MODEL 1
REMARK VINA RESULT:      -7.0      0.000      0.000
REMARK  Name = 73659_MaslinicAcid.pdbqt.pdb
REMARK  4 active torsions:
REMARK  status: ('A' for Active; 'I' for Inactive)
REMARK    1  A    between atoms: C_14  and  C_35
REMARK    2  A    between atoms: C_17  and  O_30
REMARK    3  A    between atoms: C_19  and  O_32
REMARK    4  A    between atoms: C_35  and  O_36
REMARK                            x       y       z     vdW  Elec       q    Type
REMARK                         _______ _______ _______ _____ _____    ______ ____
ROOT
ATOM      1  C   UNL     1      -8.766  -0.880  23.512  0.00  0.00    +0.000 C 
ATOM      2  C   UNL     1     -10.330  -1.132  23.635  0.00  0.00    +0.000 C 
ATOM      3  C   UNL     1     -10.935  -2.381  24.283  0.00  0.00    +0.000 C 
ATOM      4  C   UNL     1      -8.353  -0.208  22.057  0.00  0.00    +0.000 C 
ATOM      5  C   UNL     1     -10.153  -3.692  24.151  0.00  0.00    +0.000 C 
ATOM      6  C   UNL     1      -8.151  -2.201  23.685  0.00  0.00    +0.000 C 
ATOM      7  C   UNL     1      -8.751  -3.536  23.983  0.00  0.00    +0.000 C 
ATOM      8  C   UNL     1      -9.287   1.069  21.686  0.00  0.00    +0.000 C 
ATOM      9  C   UNL     1     -10.896  -5.016  24.056  0.00  0.00    +0.000 C 
ATOM     10  C   UNL     1      -8.794   2.338  21.107  0.00  0.00    +0.000 C 
ATOM     11  C   UNL     1     -11.095  -0.100  23.005  0.00  0.00    +0.000 C 
ATOM     12  C   UNL     1     -12.223  -2.678  23.677  0.00  0.00    +0.000 C 
ATOM     13  C   UNL     1      -6.986   0.344  22.033  0.00  0.00    +0.000 C 
ATOM     14  C   UNL     1      -7.278   2.928  21.389  0.00  0.00    +0.000 C 
ATOM     15  C   UNL     1      -8.365   0.062  24.719  0.00  0.00    +0.000 C 
ATOM     16  C   UNL     1      -6.493   1.735  21.707  0.00  0.00    +0.000 C 
ATOM     17  C   UNL     1     -12.399  -4.999  23.677  0.00  0.00    +0.000 C 
ATOM     18  C   UNL     1     -11.109  -2.086  25.792  0.00  0.00    +0.000 C 
ATOM     19  C   UNL     1     -13.023  -3.764  23.338  0.00  0.00    +0.000 C 
ATOM     20  C   UNL     1     -10.519   0.945  22.093  0.00  0.00    +0.000 C 
ATOM     21  C   UNL     1      -8.543  -1.227  20.853  0.00  0.00    +0.000 C 
ATOM     22  C   UNL     1      -9.412   2.817  19.872  0.00  0.00    +0.000 C 
ATOM     23  C   UNL     1      -6.920   3.622  20.124  0.00  0.00    +0.000 C 
ATOM     24  C   UNL     1      -9.177   3.583  18.590  0.00  0.00    +0.000 C 
ATOM     25  C   UNL     1     -10.227  -5.883  22.933  0.00  0.00    +0.000 C 
ATOM     26  C   UNL     1     -10.766  -5.776  25.407  0.00  0.00    +0.000 C 
ATOM     27  C   UNL     1      -7.749   3.953  18.856  0.00  0.00    +0.000 C 
ATOM     28  C   UNL     1     -10.084   4.823  18.499  0.00  0.00    +0.000 C 
ATOM     29  C   UNL     1      -9.310   2.665  17.361  0.00  0.00    +0.000 C 
ENDROOT
BRANCH  17  30
ATOM     30  O   UNL     1     -13.205  -6.135  23.668  0.00  0.00    +0.000 OA
ATOM     31  H   UNL     1     -12.883  -6.791  23.015  0.00  0.00    +0.000 HD
ENDBRANCH  17  30
BRANCH  19  32
ATOM     32  O   UNL     1     -14.374  -3.686  23.182  0.00  0.00    +0.000 OA
ATOM     33  H   UNL     1     -14.677  -4.262  22.453  0.00  0.00    +0.000 HD
ENDBRANCH  19  32
BRANCH  14  35
ATOM     34  O   UNL     1      -7.429   5.139  22.465  0.00  0.00    +0.000 OA
ATOM     35  C   UNL     1      -7.376   3.920  22.554  0.00  0.00    +0.000 C 
BRANCH  35  36
ATOM     36  O   UNL     1      -7.328   3.347  23.778  0.00  0.00    +0.000 OA
ATOM     37  H   UNL     1      -7.815   2.499  23.681  0.00  0.00    +0.000 HD
ENDBRANCH  35  36
ENDBRANCH  14  35
TORSDOF 4
ENDMDL
MODEL 2
REMARK VINA RESULT:      -7.0      3.032      8.431
REMARK  Name = 73659_MaslinicAcid.pdbqt.pdb
REMARK  4 active torsions:
REMARK  status: ('A' for Active; 'I' for Inactive)
REMARK    1  A    between atoms: C_14  and  C_35
REMARK    2  A    between atoms: C_17  and  O_30
REMARK    3  A    between atoms: C_19  and  O_32
REMARK    4  A    between atoms: C_35  and  O_36
REMARK                            x       y       z     vdW  Elec       q    Type
REMARK                         _______ _______ _______ _____ _____    ______ ____
ROOT
ATOM      1  C   UNL     1      -7.014  -0.390  24.159  0.00  0.00    +0.000 C 
ATOM      2  C   UNL     1      -5.551  -0.251  23.557  0.00  0.00    +0.000 C 
ATOM      3  C   UNL     1      -4.633   0.942  23.838  0.00  0.00    +0.000 C 
ATOM      4  C   UNL     1      -8.086  -1.010  23.062  0.00  0.00    +0.000 C 
ATOM      5  C   UNL     1      -5.297   2.307  24.050  0.00  0.00    +0.000 C 
ATOM      6  C   UNL     1      -7.391   0.968  24.568  0.00  0.00    +0.000 C 
ATOM      7  C   UNL     1      -6.631   2.252  24.538  0.00  0.00    +0.000 C 
ATOM      8  C   UNL     1      -7.513  -2.344  22.332  0.00  0.00    +0.000 C 
ATOM      9  C   UNL     1      -4.588   3.577  23.604  0.00  0.00    +0.000 C 
ATOM     10  C   UNL     1      -8.301  -3.566  22.063  0.00  0.00    +0.000 C 
ATOM     11  C   UNL     1      -5.227  -1.325  22.668  0.00  0.00    +0.000 C 
ATOM     12  C   UNL     1      -3.742   1.158  22.709  0.00  0.00    +0.000 C 
ATOM     13  C   UNL     1      -9.351  -1.465  23.669  0.00  0.00    +0.000 C 
ATOM     14  C   UNL     1      -9.562  -4.053  23.011  0.00  0.00    +0.000 C 
ATOM     15  C   UNL     1      -6.890  -1.319  25.435  0.00  0.00    +0.000 C 
ATOM     16  C   UNL     1     -10.034  -2.813  23.628  0.00  0.00    +0.000 C 
ATOM     17  C   UNL     1      -3.425   3.460  22.587  0.00  0.00    +0.000 C 
ATOM     18  C   UNL     1      -3.816   0.614  25.110  0.00  0.00    +0.000 C 
ATOM     19  C   UNL     1      -3.109   2.190  22.025  0.00  0.00    +0.000 C 
ATOM     20  C   UNL     1      -6.225  -2.313  22.135  0.00  0.00    +0.000 C 
ATOM     21  C   UNL     1      -8.393   0.010  21.883  0.00  0.00    +0.000 C 
ATOM     22  C   UNL     1      -8.344  -4.069  20.691  0.00  0.00    +0.000 C 
ATOM     23  C   UNL     1     -10.501  -4.702  22.058  0.00  0.00    +0.000 C 
ATOM     24  C   UNL     1      -9.187  -4.798  19.668  0.00  0.00    +0.000 C 
ATOM     25  C   UNL     1      -5.631   4.505  22.890  0.00  0.00    +0.000 C 
ATOM     26  C   UNL     1      -4.040   4.325  24.854  0.00  0.00    +0.000 C 
ATOM     27  C   UNL     1     -10.361  -5.071  20.558  0.00  0.00    +0.000 C 
ATOM     28  C   UNL     1      -8.506  -6.097  19.200  0.00  0.00    +0.000 C 
ATOM     29  C   UNL     1      -9.560  -3.874  18.495  0.00  0.00    +0.000 C 
ENDROOT
BRANCH  17  30
ATOM     30  O   UNL     1      -2.633   4.537  22.192  0.00  0.00    +0.000 OA
ATOM     31  H   UNL     1      -2.163   4.341  21.355  0.00  0.00    +0.000 HD
ENDBRANCH  17  30
BRANCH  19  32
ATOM     32  O   UNL     1      -1.984   2.019  21.276  0.00  0.00    +0.000 OA
ATOM     33  H   UNL     1      -2.185   2.082  20.322  0.00  0.00    +0.000 HD
ENDBRANCH  19  32
BRANCH  14  35
ATOM     34  O   UNL     1      -7.965  -4.977  24.645  0.00  0.00    +0.000 OA
ATOM     35  C   UNL     1      -9.016  -5.066  24.024  0.00  0.00    +0.000 C 
BRANCH  35  36
ATOM     36  O   UNL     1      -9.773  -6.179  24.158  0.00  0.00    +0.000 OA
ATOM     37  H   UNL     1     -10.660  -5.853  24.426  0.00  0.00    +0.000 HD
ENDBRANCH  35  36
ENDBRANCH  14  35
TORSDOF 4
ENDMDL
MODEL 3
REMARK VINA RESULT:      -6.8      1.643      8.345
REMARK  Name = 73659_MaslinicAcid.pdbqt.pdb
REMARK  4 active torsions:
REMARK  status: ('A' for Active; 'I' for Inactive)
REMARK    1  A    between atoms: C_14  and  C_35
REMARK    2  A    between atoms: C_17  and  O_30
REMARK    3  A    between atoms: C_19  and  O_32
REMARK    4  A    between atoms: C_35  and  O_36
REMARK                            x       y       z     vdW  Elec       q    Type
REMARK                         _______ _______ _______ _____ _____    ______ ____
ROOT
ATOM      1  C   UNL     1      -8.640  -1.022  22.106  0.00  0.00    +0.000 C 
ATOM      2  C   UNL     1      -9.678   0.171  21.947  0.00  0.00    +0.000 C 
ATOM      3  C   UNL     1      -9.294   1.561  21.433  0.00  0.00    +0.000 C 
ATOM      4  C   UNL     1      -8.902  -1.902  23.483  0.00  0.00    +0.000 C 
ATOM      5  C   UNL     1      -7.884   2.068  21.760  0.00  0.00    +0.000 C 
ATOM      6  C   UNL     1      -7.320  -0.380  22.123  0.00  0.00    +0.000 C 
ATOM      7  C   UNL     1      -6.917   1.049  21.967  0.00  0.00    +0.000 C 
ATOM      8  C   UNL     1     -10.462  -2.321  23.653  0.00  0.00    +0.000 C 
ATOM      9  C   UNL     1      -7.643   3.553  21.986  0.00  0.00    +0.000 C 
ATOM     10  C   UNL     1     -10.938  -3.651  24.091  0.00  0.00    +0.000 C 
ATOM     11  C   UNL     1     -10.984  -0.185  22.412  0.00  0.00    +0.000 C 
ATOM     12  C   UNL     1     -10.170   2.564  22.017  0.00  0.00    +0.000 C 
ATOM     13  C   UNL     1      -8.192  -3.194  23.496  0.00  0.00    +0.000 C 
ATOM     14  C   UNL     1     -10.103  -5.046  23.803  0.00  0.00    +0.000 C 
ATOM     15  C   UNL     1      -8.783  -1.919  20.810  0.00  0.00    +0.000 C 
ATOM     16  C   UNL     1      -8.716  -4.602  23.669  0.00  0.00    +0.000 C 
ATOM     17  C   UNL     1      -8.857   4.465  22.295  0.00  0.00    +0.000 C 
ATOM     18  C   UNL     1      -9.444   1.548  19.894  0.00  0.00    +0.000 C 
ATOM     19  C   UNL     1     -10.148   3.885  22.452  0.00  0.00    +0.000 C 
ATOM     20  C   UNL     1     -11.292  -1.418  23.212  0.00  0.00    +0.000 C 
ATOM     21  C   UNL     1      -8.546  -1.079  24.795  0.00  0.00    +0.000 C 
ATOM     22  C   UNL     1     -11.852  -3.715  25.230  0.00  0.00    +0.000 C 
ATOM     23  C   UNL     1     -10.401  -5.895  24.988  0.00  0.00    +0.000 C 
ATOM     24  C   UNL     1     -12.291  -4.543  26.417  0.00  0.00    +0.000 C 
ATOM     25  C   UNL     1      -6.709   3.721  23.235  0.00  0.00    +0.000 C 
ATOM     26  C   UNL     1      -6.917   4.150  20.746  0.00  0.00    +0.000 C 
ATOM     27  C   UNL     1     -11.389  -5.713  26.168  0.00  0.00    +0.000 C 
ATOM     28  C   UNL     1     -13.777  -4.931  26.314  0.00  0.00    +0.000 C 
ATOM     29  C   UNL     1     -11.958  -3.835  27.743  0.00  0.00    +0.000 C 
ENDROOT
BRANCH  17  30
ATOM     30  O   UNL     1      -8.772   5.851  22.410  0.00  0.00    +0.000 OA
ATOM     31  H   UNL     1      -7.893   6.175  22.125  0.00  0.00    +0.000 HD
ENDBRANCH  17  30
BRANCH  19  32
ATOM     32  O   UNL     1     -11.259   4.668  22.540  0.00  0.00    +0.000 OA
ATOM     33  H   UNL     1     -11.160   5.341  23.240  0.00  0.00    +0.000 HD
ENDBRANCH  19  32
BRANCH  14  35
ATOM     34  O   UNL     1     -10.184  -5.588  21.401  0.00  0.00    +0.000 OA
ATOM     35  C   UNL     1     -10.669  -5.669  22.522  0.00  0.00    +0.000 C 
BRANCH  35  36
ATOM     36  O   UNL     1     -11.852  -6.302  22.688  0.00  0.00    +0.000 OA
ATOM     37  H   UNL     1     -12.462  -5.616  23.036  0.00  0.00    +0.000 HD
ENDBRANCH  35  36
ENDBRANCH  14  35
TORSDOF 4
ENDMDL
MODEL 4
REMARK VINA RESULT:      -6.7     26.097     29.422
REMARK  Name = 73659_MaslinicAcid.pdbqt.pdb
REMARK  4 active torsions:
REMARK  status: ('A' for Active; 'I' for Inactive)
REMARK    1  A    between atoms: C_14  and  C_35
REMARK    2  A    between atoms: C_17  and  O_30
REMARK    3  A    between atoms: C_19  and  O_32
REMARK    4  A    between atoms: C_35  and  O_36
REMARK                            x       y       z     vdW  Elec       q    Type
REMARK                         _______ _______ _______ _____ _____    ______ ____
ROOT
ATOM      1  C   UNL     1       2.608 -21.003   5.504  0.00  0.00    +0.000 C 
ATOM      2  C   UNL     1       3.069 -19.531   5.123  0.00  0.00    +0.000 C 
ATOM      3  C   UNL     1       3.681 -19.163   3.768  0.00  0.00    +0.000 C 
ATOM      4  C   UNL     1       2.985 -21.392   7.068  0.00  0.00    +0.000 C 
ATOM      5  C   UNL     1       4.528 -20.229   3.065  0.00  0.00    +0.000 C 
ATOM      6  C   UNL     1       3.301 -21.880   4.553  0.00  0.00    +0.000 C 
ATOM      7  C   UNL     1       4.202 -21.570   3.404  0.00  0.00    +0.000 C 
ATOM      8  C   UNL     1       2.527 -20.236   8.113  0.00  0.00    +0.000 C 
ATOM      9  C   UNL     1       5.713 -19.815   2.205  0.00  0.00    +0.000 C 
ATOM     10  C   UNL     1       1.882 -20.484   9.421  0.00  0.00    +0.000 C 
ATOM     11  C   UNL     1       2.918 -18.618   6.214  0.00  0.00    +0.000 C 
ATOM     12  C   UNL     1       4.590 -18.040   3.925  0.00  0.00    +0.000 C 
ATOM     13  C   UNL     1       2.288 -22.596   7.557  0.00  0.00    +0.000 C 
ATOM     14  C   UNL     1       0.922 -21.795   9.718  0.00  0.00    +0.000 C 
ATOM     15  C   UNL     1       1.047 -21.066   5.253  0.00  0.00    +0.000 C 
ATOM     16  C   UNL     1       1.389 -22.794   8.756  0.00  0.00    +0.000 C 
ATOM     17  C   UNL     1       6.297 -18.390   2.382  0.00  0.00    +0.000 C 
ATOM     18  C   UNL     1       2.519 -18.784   2.819  0.00  0.00    +0.000 C 
ATOM     19  C   UNL     1       5.777 -17.540   3.400  0.00  0.00    +0.000 C 
ATOM     20  C   UNL     1       2.633 -19.030   7.630  0.00  0.00    +0.000 C 
ATOM     21  C   UNL     1       4.551 -21.553   7.284  0.00  0.00    +0.000 C 
ATOM     22  C   UNL     1       2.491 -19.896  10.612  0.00  0.00    +0.000 C 
ATOM     23  C   UNL     1       1.172 -22.107  11.150  0.00  0.00    +0.000 C 
ATOM     24  C   UNL     1       2.728 -20.075  12.095  0.00  0.00    +0.000 C 
ATOM     25  C   UNL     1       6.918 -20.766   2.528  0.00  0.00    +0.000 C 
ATOM     26  C   UNL     1       5.342 -19.982   0.704  0.00  0.00    +0.000 C 
ATOM     27  C   UNL     1       1.958 -21.350  12.252  0.00  0.00    +0.000 C 
ATOM     28  C   UNL     1       2.106 -18.925  12.908  0.00  0.00    +0.000 C 
ATOM     29  C   UNL     1       4.225 -20.269  12.400  0.00  0.00    +0.000 C 
ENDROOT
BRANCH  17  30
ATOM     30  O   UNL     1       7.305 -17.864   1.578  0.00  0.00    +0.000 OA
ATOM     31  H   UNL     1       7.907 -17.290   2.096  0.00  0.00    +0.000 HD
ENDBRANCH  17  30
BRANCH  19  32
ATOM     32  O   UNL     1       6.135 -16.227   3.463  0.00  0.00    +0.000 OA
ATOM     33  H   UNL     1       5.348 -15.649   3.482  0.00  0.00    +0.000 HD
ENDBRANCH  19  32
BRANCH  14  35
ATOM     34  O   UNL     1      -1.123 -21.343   8.420  0.00  0.00    +0.000 OA
ATOM     35  C   UNL     1      -0.532 -21.366   9.492  0.00  0.00    +0.000 C 
BRANCH  35  36
ATOM     36  O   UNL     1      -1.157 -20.915  10.603  0.00  0.00    +0.000 OA
ATOM     37  H   UNL     1      -1.315 -19.960  10.437  0.00  0.00    +0.000 HD
ENDBRANCH  35  36
ENDBRANCH  14  35
TORSDOF 4
ENDMDL
MODEL 5
REMARK VINA RESULT:      -6.6      2.455      4.310
REMARK  Name = 73659_MaslinicAcid.pdbqt.pdb
REMARK  4 active torsions:
REMARK  status: ('A' for Active; 'I' for Inactive)
REMARK    1  A    between atoms: C_14  and  C_35
REMARK    2  A    between atoms: C_17  and  O_30
REMARK    3  A    between atoms: C_19  and  O_32
REMARK    4  A    between atoms: C_35  and  O_36
REMARK                            x       y       z     vdW  Elec       q    Type
REMARK                         _______ _______ _______ _____ _____    ______ ____
ROOT
ATOM      1  C   UNL     1     -10.526  -2.303  23.202  0.00  0.00    +0.000 C 
ATOM      2  C   UNL     1      -9.482  -3.499  23.262  0.00  0.00    +0.000 C 
ATOM      3  C   UNL     1      -9.794  -4.861  23.889  0.00  0.00    +0.000 C 
ATOM      4  C   UNL     1      -9.816  -0.838  23.498  0.00  0.00    +0.000 C 
ATOM      5  C   UNL     1     -10.760  -4.884  25.080  0.00  0.00    +0.000 C 
ATOM      6  C   UNL     1     -11.534  -2.624  24.219  0.00  0.00    +0.000 C 
ATOM      7  C   UNL     1     -11.687  -3.808  25.116  0.00  0.00    +0.000 C 
ATOM      8  C   UNL     1      -8.470  -0.621  22.615  0.00  0.00    +0.000 C 
ATOM      9  C   UNL     1     -10.583  -5.914  26.184  0.00  0.00    +0.000 C 
ATOM     10  C   UNL     1      -8.103   0.636  21.926  0.00  0.00    +0.000 C 
ATOM     11  C   UNL     1      -8.205  -3.129  22.735  0.00  0.00    +0.000 C 
ATOM     12  C   UNL     1      -8.576  -5.455  24.415  0.00  0.00    +0.000 C 
ATOM     13  C   UNL     1     -10.664   0.310  23.125  0.00  0.00    +0.000 C 
ATOM     14  C   UNL     1      -9.220   1.710  21.355  0.00  0.00    +0.000 C 
ATOM     15  C   UNL     1     -11.182  -2.348  21.763  0.00  0.00    +0.000 C 
ATOM     16  C   UNL     1     -10.395   1.469  22.193  0.00  0.00    +0.000 C 
ATOM     17  C   UNL     1      -9.219  -6.640  26.312  0.00  0.00    +0.000 C 
ATOM     18  C   UNL     1     -10.393  -5.760  22.781  0.00  0.00    +0.000 C 
ATOM     19  C   UNL     1      -8.142  -6.264  25.460  0.00  0.00    +0.000 C 
ATOM     20  C   UNL     1      -7.793  -1.718  22.424  0.00  0.00    +0.000 C 
ATOM     21  C   UNL     1      -9.350  -0.693  25.010  0.00  0.00    +0.000 C 
ATOM     22  C   UNL     1      -6.790   1.216  22.204  0.00  0.00    +0.000 C 
ATOM     23  C   UNL     1      -8.565   3.034  21.522  0.00  0.00    +0.000 C 
ATOM     24  C   UNL     1      -6.008   2.505  22.315  0.00  0.00    +0.000 C 
ATOM     25  C   UNL     1     -10.767  -5.198  27.568  0.00  0.00    +0.000 C 
ATOM     26  C   UNL     1     -11.680  -7.008  26.047  0.00  0.00    +0.000 C 
ATOM     27  C   UNL     1      -7.122   3.430  21.930  0.00  0.00    +0.000 C 
ATOM     28  C   UNL     1      -4.849   2.550  21.303  0.00  0.00    +0.000 C 
ATOM     29  C   UNL     1      -5.537   2.747  23.761  0.00  0.00    +0.000 C 
ENDROOT
BRANCH  17  30
ATOM     30  O   UNL     1      -8.978  -7.677  27.210  0.00  0.00    +0.000 OA
ATOM     31  H   UNL     1      -9.469  -8.486  26.955  0.00  0.00    +0.000 HD
ENDBRANCH  17  30
BRANCH  19  32
ATOM     32  O   UNL     1      -6.996  -6.999  25.418  0.00  0.00    +0.000 OA
ATOM     33  H   UNL     1      -7.194  -7.953  25.339  0.00  0.00    +0.000 HD
ENDBRANCH  19  32
BRANCH  14  35
ATOM     34  O   UNL     1      -9.813   0.319  19.410  0.00  0.00    +0.000 OA
ATOM     35  C   UNL     1      -9.454   1.393  19.873  0.00  0.00    +0.000 C 
BRANCH  35  36
ATOM     36  O   UNL     1      -9.157   2.411  19.034  0.00  0.00    +0.000 OA
ATOM     37  H   UNL     1      -9.946   2.504  18.457  0.00  0.00    +0.000 HD
ENDBRANCH  35  36
ENDBRANCH  14  35
TORSDOF 4
ENDMDL
MODEL 6
REMARK VINA RESULT:      -6.6      4.665      8.298
REMARK  Name = 73659_MaslinicAcid.pdbqt.pdb
REMARK  4 active torsions:
REMARK  status: ('A' for Active; 'I' for Inactive)
REMARK    1  A    between atoms: C_14  and  C_35
REMARK    2  A    between atoms: C_17  and  O_30
REMARK    3  A    between atoms: C_19  and  O_32
REMARK    4  A    between atoms: C_35  and  O_36
REMARK                            x       y       z     vdW  Elec       q    Type
REMARK                         _______ _______ _______ _____ _____    ______ ____
ROOT
ATOM      1  C   UNL     1      -9.936  -5.390  27.511  0.00  0.00    +0.000 C 
ATOM      2  C   UNL     1      -8.750  -6.447  27.496  0.00  0.00    +0.000 C 
ATOM      3  C   UNL     1      -8.082  -6.983  28.766  0.00  0.00    +0.000 C 
ATOM      4  C   UNL     1      -9.787  -4.264  26.307  0.00  0.00    +0.000 C 
ATOM      5  C   UNL     1      -7.992  -6.035  29.968  0.00  0.00    +0.000 C 
ATOM      6  C   UNL     1      -9.878  -4.767  28.837  0.00  0.00    +0.000 C 
ATOM      7  C   UNL     1      -8.995  -5.030  30.012  0.00  0.00    +0.000 C 
ATOM      8  C   UNL     1      -9.491  -4.948  24.863  0.00  0.00    +0.000 C 
ATOM      9  C   UNL     1      -6.806  -6.120  30.917  0.00  0.00    +0.000 C 
ATOM     10  C   UNL     1     -10.122  -4.540  23.589  0.00  0.00    +0.000 C 
ATOM     11  C   UNL     1      -8.332  -6.773  26.167  0.00  0.00    +0.000 C 
ATOM     12  C   UNL     1      -6.698  -7.329  28.489  0.00  0.00    +0.000 C 
ATOM     13  C   UNL     1     -11.017  -3.486  26.076  0.00  0.00    +0.000 C 
ATOM     14  C   UNL     1     -11.636  -3.888  23.501  0.00  0.00    +0.000 C 
ATOM     15  C   UNL     1     -11.278  -6.217  27.365  0.00  0.00    +0.000 C 
ATOM     16  C   UNL     1     -11.834  -3.287  24.820  0.00  0.00    +0.000 C 
ATOM     17  C   UNL     1      -5.524  -6.850  30.441  0.00  0.00    +0.000 C 
ATOM     18  C   UNL     1      -8.870  -8.237  29.214  0.00  0.00    +0.000 C 
ATOM     19  C   UNL     1      -5.451  -7.341  29.106  0.00  0.00    +0.000 C 
ATOM     20  C   UNL     1      -8.750  -6.017  24.938  0.00  0.00    +0.000 C 
ATOM     21  C   UNL     1      -8.566  -3.279  26.559  0.00  0.00    +0.000 C 
ATOM     22  C   UNL     1      -9.249  -4.200  22.466  0.00  0.00    +0.000 C 
ATOM     23  C   UNL     1     -11.554  -2.938  22.360  0.00  0.00    +0.000 C 
ATOM     24  C   UNL     1      -9.101  -3.338  21.233  0.00  0.00    +0.000 C 
ATOM     25  C   UNL     1      -6.320  -4.663  31.237  0.00  0.00    +0.000 C 
ATOM     26  C   UNL     1      -7.257  -6.791  32.246  0.00  0.00    +0.000 C 
ATOM     27  C   UNL     1     -10.444  -2.677  21.310  0.00  0.00    +0.000 C 
ATOM     28  C   UNL     1      -8.953  -4.193  19.961  0.00  0.00    +0.000 C 
ATOM     29  C   UNL     1      -7.954  -2.324  21.397  0.00  0.00    +0.000 C 
ENDROOT
BRANCH  17  30
ATOM     30  O   UNL     1      -4.421  -7.085  31.259  0.00  0.00    +0.000 OA
ATOM     31  H   UNL     1      -4.626  -6.882  32.195  0.00  0.00    +0.000 HD
ENDBRANCH  17  30
BRANCH  19  32
ATOM     32  O   UNL     1      -4.423  -8.144  28.713  0.00  0.00    +0.000 OA
ATOM     33  H   UNL     1      -3.943  -7.754  27.956  0.00  0.00    +0.000 HD
ENDBRANCH  19  32
BRANCH  14  35
ATOM     34  O   UNL     1     -13.818  -5.030  23.425  0.00  0.00    +0.000 OA
ATOM     35  C   UNL     1     -12.615  -5.029  23.199  0.00  0.00    +0.000 C 
BRANCH  35  36
ATOM     36  O   UNL     1     -12.033  -6.142  22.698  0.00  0.00    +0.000 OA
ATOM     37  H   UNL     1     -12.733  -6.831  22.728  0.00  0.00    +0.000 HD
ENDBRANCH  35  36
ENDBRANCH  14  35
TORSDOF 4
ENDMDL
MODEL 7
REMARK VINA RESULT:      -6.4     20.419     23.005
REMARK  Name = 73659_MaslinicAcid.pdbqt.pdb
REMARK  4 active torsions:
REMARK  status: ('A' for Active; 'I' for Inactive)
REMARK    1  A    between atoms: C_14  and  C_35
REMARK    2  A    between atoms: C_17  and  O_30
REMARK    3  A    between atoms: C_19  and  O_32
REMARK    4  A    between atoms: C_35  and  O_36
REMARK                            x       y       z     vdW  Elec       q    Type
REMARK                         _______ _______ _______ _____ _____    ______ ____
ROOT
ATOM      1  C   UNL     1      -0.697  -0.590   1.771  0.00  0.00    +0.000 C 
ATOM      2  C   UNL     1      -0.363  -0.578   3.324  0.00  0.00    +0.000 C 
ATOM      3  C   UNL     1       0.796   0.218   3.931  0.00  0.00    +0.000 C 
ATOM      4  C   UNL     1      -1.139  -2.093   1.237  0.00  0.00    +0.000 C 
ATOM      5  C   UNL     1       2.054   0.395   3.073  0.00  0.00    +0.000 C 
ATOM      6  C   UNL     1       0.530  -0.128   1.112  0.00  0.00    +0.000 C 
ATOM      7  C   UNL     1       1.832   0.340   1.671  0.00  0.00    +0.000 C 
ATOM      8  C   UNL     1      -2.267  -2.772   2.189  0.00  0.00    +0.000 C 
ATOM      9  C   UNL     1       3.422   0.463   3.734  0.00  0.00    +0.000 C 
ATOM     10  C   UNL     1      -3.451  -3.514   1.701  0.00  0.00    +0.000 C 
ATOM     11  C   UNL     1      -1.219  -1.451   4.067  0.00  0.00    +0.000 C 
ATOM     12  C   UNL     1       1.280  -0.449   5.129  0.00  0.00    +0.000 C 
ATOM     13  C   UNL     1      -1.772  -2.080  -0.094  0.00  0.00    +0.000 C 
ATOM     14  C   UNL     1      -4.183  -3.194   0.257  0.00  0.00    +0.000 C 
ATOM     15  C   UNL     1      -1.855   0.465   1.549  0.00  0.00    +0.000 C 
ATOM     16  C   UNL     1      -3.118  -2.597  -0.549  0.00  0.00    +0.000 C 
ATOM     17  C   UNL     1       3.573  -0.058   5.186  0.00  0.00    +0.000 C 
ATOM     18  C   UNL     1       0.263   1.627   4.281  0.00  0.00    +0.000 C 
ATOM     19  C   UNL     1       2.460  -0.668   5.832  0.00  0.00    +0.000 C 
ATOM     20  C   UNL     1      -2.131  -2.472   3.450  0.00  0.00    +0.000 C 
ATOM     21  C   UNL     1       0.079  -3.113   1.244  0.00  0.00    +0.000 C 
ATOM     22  C   UNL     1      -3.670  -4.869   2.206  0.00  0.00    +0.000 C 
ATOM     23  C   UNL     1      -4.675  -4.521  -0.200  0.00  0.00    +0.000 C 
ATOM     24  C   UNL     1      -4.222  -6.237   1.873  0.00  0.00    +0.000 C 
ATOM     25  C   UNL     1       4.420  -0.420   2.905  0.00  0.00    +0.000 C 
ATOM     26  C   UNL     1       3.932   1.932   3.712  0.00  0.00    +0.000 C 
ATOM     27  C   UNL     1      -4.729  -5.902   0.503  0.00  0.00    +0.000 C 
ATOM     28  C   UNL     1      -5.363  -6.632   2.827  0.00  0.00    +0.000 C 
ATOM     29  C   UNL     1      -3.102  -7.292   1.827  0.00  0.00    +0.000 C 
ENDROOT
BRANCH  17  30
ATOM     30  O   UNL     1       4.747   0.054   5.928  0.00  0.00    +0.000 OA
ATOM     31  H   UNL     1       5.430   0.554   5.435  0.00  0.00    +0.000 HD
ENDBRANCH  17  30
BRANCH  19  32
ATOM     32  O   UNL     1       2.502  -0.967   7.160  0.00  0.00    +0.000 OA
ATOM     33  H   UNL     1       2.279  -0.185   7.703  0.00  0.00    +0.000 HD
ENDBRANCH  19  32
BRANCH  14  35
ATOM     34  O   UNL     1      -5.376  -1.349   1.371  0.00  0.00    +0.000 OA
ATOM     35  C   UNL     1      -5.349  -2.237   0.530  0.00  0.00    +0.000 C 
BRANCH  35  36
ATOM     36  O   UNL     1      -6.454  -2.483  -0.210  0.00  0.00    +0.000 OA
ATOM     37  H   UNL     1      -6.797  -3.341   0.122  0.00  0.00    +0.000 HD
ENDBRANCH  35  36
ENDBRANCH  14  35
TORSDOF 4
ENDMDL
MODEL 8
REMARK VINA RESULT:      -6.3     17.914     19.815
REMARK  Name = 73659_MaslinicAcid.pdbqt.pdb
REMARK  4 active torsions:
REMARK  status: ('A' for Active; 'I' for Inactive)
REMARK    1  A    between atoms: C_14  and  C_35
REMARK    2  A    between atoms: C_17  and  O_30
REMARK    3  A    between atoms: C_19  and  O_32
REMARK    4  A    between atoms: C_35  and  O_36
REMARK                            x       y       z     vdW  Elec       q    Type
REMARK                         _______ _______ _______ _____ _____    ______ ____
ROOT
ATOM      1  C   UNL     1       4.446 -14.434  16.501  0.00  0.00    +0.000 C 
ATOM      2  C   UNL     1       3.976 -13.627  17.786  0.00  0.00    +0.000 C 
ATOM      3  C   UNL     1       3.321 -14.286  19.004  0.00  0.00    +0.000 C 
ATOM      4  C   UNL     1       4.120 -13.620  15.097  0.00  0.00    +0.000 C 
ATOM      5  C   UNL     1       2.447 -15.520  18.751  0.00  0.00    +0.000 C 
ATOM      6  C   UNL     1       3.719 -15.707  16.562  0.00  0.00    +0.000 C 
ATOM      7  C   UNL     1       2.781 -16.258  17.584  0.00  0.00    +0.000 C 
ATOM      8  C   UNL     1       4.615 -12.074  15.158  0.00  0.00    +0.000 C 
ATOM      9  C   UNL     1       1.236 -15.788  19.631  0.00  0.00    +0.000 C 
ATOM     10  C   UNL     1       5.303 -11.362  14.058  0.00  0.00    +0.000 C 
ATOM     11  C   UNL     1       4.166 -12.216  17.638  0.00  0.00    +0.000 C 
ATOM     12  C   UNL     1       2.420 -13.345  19.651  0.00  0.00    +0.000 C 
ATOM     13  C   UNL     1       4.830 -14.165  13.925  0.00  0.00    +0.000 C 
ATOM     14  C   UNL     1       6.269 -12.124  12.957  0.00  0.00    +0.000 C 
ATOM     15  C   UNL     1       5.998 -14.692  16.673  0.00  0.00    +0.000 C 
ATOM     16  C   UNL     1       5.768 -13.498  12.945  0.00  0.00    +0.000 C 
ATOM     17  C   UNL     1       0.662 -14.625  20.480  0.00  0.00    +0.000 C 
ATOM     18  C   UNL     1       4.451 -14.700  19.976  0.00  0.00    +0.000 C 
ATOM     19  C   UNL     1       1.217 -13.320  20.349  0.00  0.00    +0.000 C 
ATOM     20  C   UNL     1       4.497 -11.538  16.340  0.00  0.00    +0.000 C 
ATOM     21  C   UNL     1       2.562 -13.547  14.796  0.00  0.00    +0.000 C 
ATOM     22  C   UNL     1       4.736 -10.097  13.596  0.00  0.00    +0.000 C 
ATOM     23  C   UNL     1       6.067 -11.349  11.704  0.00  0.00    +0.000 C 
ATOM     24  C   UNL     1       4.548  -9.191  12.399  0.00  0.00    +0.000 C 
ATOM     25  C   UNL     1       0.039 -16.219  18.713  0.00  0.00    +0.000 C 
ATOM     26  C   UNL     1       1.556 -16.959  20.604  0.00  0.00    +0.000 C 
ATOM     27  C   UNL     1       5.320 -10.021  11.418  0.00  0.00    +0.000 C 
ATOM     28  C   UNL     1       5.199  -7.815  12.626  0.00  0.00    +0.000 C 
ATOM     29  C   UNL     1       3.062  -9.082  12.012  0.00  0.00    +0.000 C 
ENDROOT
BRANCH  17  30
ATOM     30  O   UNL     1      -0.371 -14.779  21.401  0.00  0.00    +0.000 OA
ATOM     31  H   UNL     1      -0.244 -14.191  22.175  0.00  0.00    +0.000 HD
ENDBRANCH  17  30
BRANCH  19  32
ATOM     32  O   UNL     1       0.865 -12.322  21.206  0.00  0.00    +0.000 OA
ATOM     33  H   UNL     1       1.614 -11.716  21.367  0.00  0.00    +0.000 HD
ENDBRANCH  19  32
BRANCH  14  35
ATOM     34  O   UNL     1       8.076 -11.646  14.562  0.00  0.00    +0.000 OA
ATOM     35  C   UNL     1       7.716 -12.008  13.449  0.00  0.00    +0.000 C 
BRANCH  35  36
ATOM     36  O   UNL     1       8.647 -12.278  12.506  0.00  0.00    +0.000 OA
ATOM     37  H   UNL     1       8.410 -13.167  12.162  0.00  0.00    +0.000 HD
ENDBRANCH  35  36
ENDBRANCH  14  35
TORSDOF 4
ENDMDL
MODEL 9
REMARK VINA RESULT:      -6.3     22.563     24.999
REMARK  Name = 73659_MaslinicAcid.pdbqt.pdb
REMARK  4 active torsions:
REMARK  status: ('A' for Active; 'I' for Inactive)
REMARK    1  A    between atoms: C_14  and  C_35
REMARK    2  A    between atoms: C_17  and  O_30
REMARK    3  A    between atoms: C_19  and  O_32
REMARK    4  A    between atoms: C_35  and  O_36
REMARK                            x       y       z     vdW  Elec       q    Type
REMARK                         _______ _______ _______ _____ _____    ______ ____
ROOT
ATOM      1  C   UNL     1     -14.623 -14.464   1.800  0.00  0.00    +0.000 C 
ATOM      2  C   UNL     1     -14.216 -14.020   3.270  0.00  0.00    +0.000 C 
ATOM      3  C   UNL     1     -15.081 -14.292   4.504  0.00  0.00    +0.000 C 
ATOM      4  C   UNL     1     -14.246 -13.314   0.672  0.00  0.00    +0.000 C 
ATOM      5  C   UNL     1     -16.602 -14.302   4.310  0.00  0.00    +0.000 C 
ATOM      6  C   UNL     1     -16.070 -14.701   1.859  0.00  0.00    +0.000 C 
ATOM      7  C   UNL     1     -17.033 -14.640   2.998  0.00  0.00    +0.000 C 
ATOM      8  C   UNL     1     -12.720 -12.778   0.831  0.00  0.00    +0.000 C 
ATOM      9  C   UNL     1     -17.516 -13.826   5.428  0.00  0.00    +0.000 C 
ATOM     10  C   UNL     1     -11.788 -12.534  -0.291  0.00  0.00    +0.000 C 
ATOM     11  C   UNL     1     -12.995 -13.275   3.291  0.00  0.00    +0.000 C 
ATOM     12  C   UNL     1     -14.863 -13.256   5.500  0.00  0.00    +0.000 C 
ATOM     13  C   UNL     1     -14.295 -13.814  -0.714  0.00  0.00    +0.000 C 
ATOM     14  C   UNL     1     -11.847 -13.375  -1.711  0.00  0.00    +0.000 C 
ATOM     15  C   UNL     1     -13.867 -15.824   1.514  0.00  0.00    +0.000 C 
ATOM     16  C   UNL     1     -13.238 -13.818  -1.796  0.00  0.00    +0.000 C 
ATOM     17  C   UNL     1     -16.912 -12.960   6.563  0.00  0.00    +0.000 C 
ATOM     18  C   UNL     1     -14.670 -15.673   5.068  0.00  0.00    +0.000 C 
ATOM     19  C   UNL     1     -15.548 -12.556   6.488  0.00  0.00    +0.000 C 
ATOM     20  C   UNL     1     -12.316 -12.726   2.069  0.00  0.00    +0.000 C 
ATOM     21  C   UNL     1     -15.158 -12.020   0.809  0.00  0.00    +0.000 C 
ATOM     22  C   UNL     1     -11.159 -11.218  -0.391  0.00  0.00    +0.000 C 
ATOM     23  C   UNL     1     -11.418 -12.385  -2.734  0.00  0.00    +0.000 C 
ATOM     24  C   UNL     1     -10.616 -10.178  -1.345  0.00  0.00    +0.000 C 
ATOM     25  C   UNL     1     -18.632 -12.916   4.805  0.00  0.00    +0.000 C 
ATOM     26  C   UNL     1     -18.198 -15.055   6.093  0.00  0.00    +0.000 C 
ATOM     27  C   UNL     1     -10.842 -10.951  -2.608  0.00  0.00    +0.000 C 
ATOM     28  C   UNL     1      -9.121  -9.910  -1.094  0.00  0.00    +0.000 C 
ATOM     29  C   UNL     1     -11.460  -8.890  -1.303  0.00  0.00    +0.000 C 
ENDROOT
BRANCH  17  30
ATOM     30  O   UNL     1     -17.625 -12.561   7.692  0.00  0.00    +0.000 OA
ATOM     31  H   UNL     1     -17.027 -12.189   8.373  0.00  0.00    +0.000 HD
ENDBRANCH  17  30
BRANCH  19  32
ATOM     32  O   UNL     1     -14.939 -11.957   7.548  0.00  0.00    +0.000 OA
ATOM     33  H   UNL     1     -14.346 -11.239   7.253  0.00  0.00    +0.000 HD
ENDBRANCH  19  32
BRANCH  14  35
ATOM     34  O   UNL     1     -11.110 -15.700  -1.358  0.00  0.00    +0.000 OA
ATOM     35  C   UNL     1     -10.845 -14.531  -1.608  0.00  0.00    +0.000 C 
BRANCH  35  36
ATOM     36  O   UNL     1      -9.553 -14.160  -1.748  0.00  0.00    +0.000 OA
ATOM     37  H   UNL     1      -9.513 -13.241  -1.403  0.00  0.00    +0.000 HD
ENDBRANCH  35  36
ENDBRANCH  14  35
TORSDOF 4
ENDMDL
