MODEL 1
REMARK VINA RESULT:      -4.3      0.000      0.000
REMARK  Name = 76617_Cardol.pdbqt.pdb
REMARK  10 active torsions:
REMARK  status: ('A' for Active; 'I' for Inactive)
REMARK    1  A    between atoms: C_1  and  C_2
REMARK    2  A    between atoms: C_3  and  C_4
REMARK    3  A    between atoms: C_5  and  C_6
REMARK    4  A    between atoms: C_7  and  C_8
REMARK    5  A    between atoms: C_8  and  C_9
REMARK    6  A    between atoms: C_10  and  C_11
REMARK    7  A    between atoms: C_14  and  C_15
REMARK    8  A    between atoms: C_15  and  C_16
REMARK    9  A    between atoms: C_19  and  O_24
REMARK   10  A    between atoms: C_20  and  O_22
REMARK                            x       y       z     vdW  Elec       q    Type
REMARK                         _______ _______ _______ _____ _____    ______ ____
ROOT
ATOM      1  C   UNL     1      -1.440  -0.131   6.130  0.00  0.00    +0.000 C 
ATOM      2  C   UNL     1      -1.603   0.698   6.982  0.00  0.00    +0.000 C 
ENDROOT
BRANCH   1   3
ATOM      3  C   UNL     1      -1.230  -1.189   5.043  0.00  0.00    +0.000 C 
ATOM      4  C   UNL     1      -1.019  -2.248   3.956  0.00  0.00    +0.000 C 
BRANCH   4   5
ATOM      5  C   UNL     1      -0.810  -3.308   2.870  0.00  0.00    +0.000 C 
ATOM      6  C   UNL     1      -0.601  -4.368   1.785  0.00  0.00    +0.000 C 
BRANCH   6   7
ATOM      7  C   UNL     1      -0.391  -5.428   0.700  0.00  0.00    +0.000 C 
ATOM      8  C   UNL     1      -0.183  -6.489  -0.385  0.00  0.00    +0.000 C 
BRANCH   8   9
ATOM      9  C   UNL     1       0.026  -7.550  -1.469  0.00  0.00    +0.000 C 
BRANCH   9  10
ATOM     10  C   UNL     1       0.234  -8.611  -2.554  0.00  0.00    +0.000 C 
ATOM     11  C   UNL     1       0.441  -9.674  -3.637  0.00  0.00    +0.000 C 
BRANCH  11  12
ATOM     12  C   UNL     1       0.649 -10.736  -4.721  0.00  0.00    +0.000 C 
ATOM     13  C   UNL     1       0.856 -11.799  -5.804  0.00  0.00    +0.000 C 
ATOM     14  C   UNL     1       1.064 -12.862  -6.888  0.00  0.00    +0.000 C 
ENDBRANCH  11  12
ENDBRANCH   9  10
ENDBRANCH   8   9
ENDBRANCH   6   7
ENDBRANCH   4   5
ENDBRANCH   1   3
BRANCH   2  15
ATOM     15  C   UNL     1      -1.814   1.757   8.070  0.00  0.00    +0.000 C 
BRANCH  15  16
ATOM     16  C   UNL     1      -2.010   2.740   9.081  0.00  0.00    +0.000 A 
ATOM     17  C   UNL     1      -0.955   3.571   9.455  0.00  0.00    +0.000 A 
ATOM     18  C   UNL     1      -3.256   2.867   9.692  0.00  0.00    +0.000 A 
ATOM     19  C   UNL     1      -3.437   3.832  10.680  0.00  0.00    +0.000 A 
ATOM     20  C   UNL     1      -1.157   4.529  10.445  0.00  0.00    +0.000 A 
ATOM     21  C   UNL     1      -2.394   4.669  11.065  0.00  0.00    +0.000 A 
BRANCH  20  22
ATOM     22  O   UNL     1      -0.140   5.355  10.828  0.00  0.00    +0.000 OA
ATOM     23  H   UNL     1      -0.500   6.026  11.434  0.00  0.00    +0.000 HD
ENDBRANCH  20  22
BRANCH  19  24
ATOM     24  O   UNL     1      -4.647   3.977  11.296  0.00  0.00    +0.000 OA
ATOM     25  H   UNL     1      -5.256   4.415  10.675  0.00  0.00    +0.000 HD
ENDBRANCH  19  24
ENDBRANCH  15  16
ENDBRANCH   2  15
TORSDOF 10
ENDMDL
MODEL 2
REMARK VINA RESULT:      -4.0      6.348     16.892
REMARK  Name = 76617_Cardol.pdbqt.pdb
REMARK  10 active torsions:
REMARK  status: ('A' for Active; 'I' for Inactive)
REMARK    1  A    between atoms: C_1  and  C_2
REMARK    2  A    between atoms: C_3  and  C_4
REMARK    3  A    between atoms: C_5  and  C_6
REMARK    4  A    between atoms: C_7  and  C_8
REMARK    5  A    between atoms: C_8  and  C_9
REMARK    6  A    between atoms: C_10  and  C_11
REMARK    7  A    between atoms: C_14  and  C_15
REMARK    8  A    between atoms: C_15  and  C_16
REMARK    9  A    between atoms: C_19  and  O_24
REMARK   10  A    between atoms: C_20  and  O_22
REMARK                            x       y       z     vdW  Elec       q    Type
REMARK                         _______ _______ _______ _____ _____    ______ ____
ROOT
ATOM      1  C   UNL     1      -0.568  -5.064   1.079  0.00  0.00    +0.000 C 
ATOM      2  C   UNL     1      -0.438  -5.905   0.233  0.00  0.00    +0.000 C 
ENDROOT
BRANCH   1   3
ATOM      3  C   UNL     1      -0.734  -3.991   2.159  0.00  0.00    +0.000 C 
ATOM      4  C   UNL     1      -0.900  -2.918   3.240  0.00  0.00    +0.000 C 
BRANCH   4   5
ATOM      5  C   UNL     1      -1.065  -1.847   4.322  0.00  0.00    +0.000 C 
ATOM      6  C   UNL     1      -1.230  -0.776   5.403  0.00  0.00    +0.000 C 
BRANCH   6   7
ATOM      7  C   UNL     1      -1.394   0.297   6.486  0.00  0.00    +0.000 C 
ATOM      8  C   UNL     1      -1.558   1.367   7.568  0.00  0.00    +0.000 C 
BRANCH   8   9
ATOM      9  C   UNL     1      -1.722   2.438   8.650  0.00  0.00    +0.000 C 
BRANCH   9  10
ATOM     10  C   UNL     1      -1.887   3.510   9.733  0.00  0.00    +0.000 C 
ATOM     11  C   UNL     1      -2.052   4.579  10.816  0.00  0.00    +0.000 C 
BRANCH  11  12
ATOM     12  C   UNL     1      -2.218   5.650  11.899  0.00  0.00    +0.000 C 
ATOM     13  C   UNL     1      -2.384   6.720  12.982  0.00  0.00    +0.000 C 
ATOM     14  C   UNL     1      -2.550   7.791  14.065  0.00  0.00    +0.000 C 
ENDBRANCH  11  12
ENDBRANCH   9  10
ENDBRANCH   8   9
ENDBRANCH   6   7
ENDBRANCH   4   5
ENDBRANCH   1   3
BRANCH   2  15
ATOM     15  C   UNL     1      -0.273  -6.978  -0.849  0.00  0.00    +0.000 C 
BRANCH  15  16
ATOM     16  C   UNL     1      -0.120  -7.976  -1.853  0.00  0.00    +0.000 A 
ATOM     17  C   UNL     1      -1.180  -8.267  -2.710  0.00  0.00    +0.000 A 
ATOM     18  C   UNL     1       1.089  -8.658  -1.974  0.00  0.00    +0.000 A 
ATOM     19  C   UNL     1       1.230  -9.632  -2.959  0.00  0.00    +0.000 A 
ATOM     20  C   UNL     1      -1.019  -9.245  -3.689  0.00  0.00    +0.000 A 
ATOM     21  C   UNL     1       0.181  -9.934  -3.822  0.00  0.00    +0.000 A 
BRANCH  20  22
ATOM     22  O   UNL     1      -2.041  -9.547  -4.541  0.00  0.00    +0.000 OA
ATOM     23  H   UNL     1      -1.740  -9.387  -5.452  0.00  0.00    +0.000 HD
ENDBRANCH  20  22
BRANCH  19  24
ATOM     24  O   UNL     1       2.404 -10.315  -3.098  0.00  0.00    +0.000 OA
ATOM     25  H   UNL     1       2.320 -10.916  -3.859  0.00  0.00    +0.000 HD
ENDBRANCH  19  24
ENDBRANCH  15  16
ENDBRANCH   2  15
TORSDOF 10
ENDMDL
MODEL 3
REMARK VINA RESULT:      -4.0     10.532     17.480
REMARK  Name = 76617_Cardol.pdbqt.pdb
REMARK  10 active torsions:
REMARK  status: ('A' for Active; 'I' for Inactive)
REMARK    1  A    between atoms: C_1  and  C_2
REMARK    2  A    between atoms: C_3  and  C_4
REMARK    3  A    between atoms: C_5  and  C_6
REMARK    4  A    between atoms: C_7  and  C_8
REMARK    5  A    between atoms: C_8  and  C_9
REMARK    6  A    between atoms: C_10  and  C_11
REMARK    7  A    between atoms: C_14  and  C_15
REMARK    8  A    between atoms: C_15  and  C_16
REMARK    9  A    between atoms: C_19  and  O_24
REMARK   10  A    between atoms: C_20  and  O_22
REMARK                            x       y       z     vdW  Elec       q    Type
REMARK                         _______ _______ _______ _____ _____    ______ ____
ROOT
ATOM      1  C   UNL     1      -5.840   5.125   7.597  0.00  0.00    +0.000 C 
ATOM      2  C   UNL     1      -4.703   4.790   7.783  0.00  0.00    +0.000 C 
ENDROOT
BRANCH   1   3
ATOM      3  C   UNL     1      -7.291   5.553   7.360  0.00  0.00    +0.000 C 
ATOM      4  C   UNL     1      -8.743   5.983   7.123  0.00  0.00    +0.000 C 
BRANCH   4   5
ATOM      5  C   UNL     1     -10.193   6.413   6.886  0.00  0.00    +0.000 C 
ATOM      6  C   UNL     1     -11.644   6.842   6.648  0.00  0.00    +0.000 C 
BRANCH   6   7
ATOM      7  C   UNL     1     -13.095   7.272   6.411  0.00  0.00    +0.000 C 
ATOM      8  C   UNL     1     -14.546   7.701   6.172  0.00  0.00    +0.000 C 
BRANCH   8   9
ATOM      9  C   UNL     1     -15.996   8.130   5.934  0.00  0.00    +0.000 C 
BRANCH   9  10
ATOM     10  C   UNL     1     -17.447   8.561   5.696  0.00  0.00    +0.000 C 
ATOM     11  C   UNL     1     -18.898   8.991   5.460  0.00  0.00    +0.000 C 
BRANCH  11  12
ATOM     12  C   UNL     1     -20.349   9.421   5.224  0.00  0.00    +0.000 C 
ATOM     13  C   UNL     1     -21.800   9.850   4.988  0.00  0.00    +0.000 C 
ATOM     14  C   UNL     1     -23.251  10.279   4.751  0.00  0.00    +0.000 C 
ENDBRANCH  11  12
ENDBRANCH   9  10
ENDBRANCH   8   9
ENDBRANCH   6   7
ENDBRANCH   4   5
ENDBRANCH   1   3
BRANCH   2  15
ATOM     15  C   UNL     1      -3.252   4.360   8.021  0.00  0.00    +0.000 C 
BRANCH  15  16
ATOM     16  C   UNL     1      -1.902   3.962   8.241  0.00  0.00    +0.000 A 
ATOM     17  C   UNL     1      -0.908   4.928   8.387  0.00  0.00    +0.000 A 
ATOM     18  C   UNL     1      -1.582   2.608   8.311  0.00  0.00    +0.000 A 
ATOM     19  C   UNL     1      -0.260   2.228   8.527  0.00  0.00    +0.000 A 
ATOM     20  C   UNL     1       0.408   4.527   8.603  0.00  0.00    +0.000 A 
ATOM     21  C   UNL     1       0.744   3.180   8.674  0.00  0.00    +0.000 A 
BRANCH  20  22
ATOM     22  O   UNL     1       1.400   5.454   8.749  0.00  0.00    +0.000 OA
ATOM     23  H   UNL     1       1.326   5.847   9.636  0.00  0.00    +0.000 HD
ENDBRANCH  20  22
BRANCH  19  24
ATOM     24  O   UNL     1       0.081   0.907   8.599  0.00  0.00    +0.000 OA
ATOM     25  H   UNL     1      -0.588   0.392   8.116  0.00  0.00    +0.000 HD
ENDBRANCH  19  24
ENDBRANCH  15  16
ENDBRANCH   2  15
TORSDOF 10
ENDMDL
MODEL 4
REMARK VINA RESULT:      -3.9     20.815     24.088
REMARK  Name = 76617_Cardol.pdbqt.pdb
REMARK  10 active torsions:
REMARK  status: ('A' for Active; 'I' for Inactive)
REMARK    1  A    between atoms: C_1  and  C_2
REMARK    2  A    between atoms: C_3  and  C_4
REMARK    3  A    between atoms: C_5  and  C_6
REMARK    4  A    between atoms: C_7  and  C_8
REMARK    5  A    between atoms: C_8  and  C_9
REMARK    6  A    between atoms: C_10  and  C_11
REMARK    7  A    between atoms: C_14  and  C_15
REMARK    8  A    between atoms: C_15  and  C_16
REMARK    9  A    between atoms: C_19  and  O_24
REMARK   10  A    between atoms: C_20  and  O_22
REMARK                            x       y       z     vdW  Elec       q    Type
REMARK                         _______ _______ _______ _____ _____    ______ ____
ROOT
ATOM      1  C   UNL     1       2.520 -13.420  16.929  0.00  0.00    +0.000 C 
ATOM      2  C   UNL     1       3.242 -13.115  16.021  0.00  0.00    +0.000 C 
ENDROOT
BRANCH   1   3
ATOM      3  C   UNL     1       1.598 -13.808  18.089  0.00  0.00    +0.000 C 
ATOM      4  C   UNL     1       0.675 -14.197  19.249  0.00  0.00    +0.000 C 
BRANCH   4   5
ATOM      5  C   UNL     1      -0.247 -14.586  20.407  0.00  0.00    +0.000 C 
ATOM      6  C   UNL     1      -1.171 -14.975  21.565  0.00  0.00    +0.000 C 
BRANCH   6   7
ATOM      7  C   UNL     1      -2.095 -15.365  22.723  0.00  0.00    +0.000 C 
ATOM      8  C   UNL     1      -3.018 -15.754  23.881  0.00  0.00    +0.000 C 
BRANCH   8   9
ATOM      9  C   UNL     1      -3.942 -16.142  25.039  0.00  0.00    +0.000 C 
BRANCH   9  10
ATOM     10  C   UNL     1      -4.865 -16.532  26.199  0.00  0.00    +0.000 C 
ATOM     11  C   UNL     1      -5.786 -16.922  27.358  0.00  0.00    +0.000 C 
BRANCH  11  12
ATOM     12  C   UNL     1      -6.709 -17.312  28.517  0.00  0.00    +0.000 C 
ATOM     13  C   UNL     1      -7.630 -17.703  29.675  0.00  0.00    +0.000 C 
ATOM     14  C   UNL     1      -8.553 -18.094  30.834  0.00  0.00    +0.000 C 
ENDBRANCH  11  12
ENDBRANCH   9  10
ENDBRANCH   8   9
ENDBRANCH   6   7
ENDBRANCH   4   5
ENDBRANCH   1   3
BRANCH   2  15
ATOM     15  C   UNL     1       4.164 -12.727  14.860  0.00  0.00    +0.000 C 
BRANCH  15  16
ATOM     16  C   UNL     1       5.020 -12.365  13.780  0.00  0.00    +0.000 A 
ATOM     17  C   UNL     1       6.129 -13.153  13.480  0.00  0.00    +0.000 A 
ATOM     18  C   UNL     1       4.743 -11.224  13.029  0.00  0.00    +0.000 A 
ATOM     19  C   UNL     1       5.586 -10.878  11.976  0.00  0.00    +0.000 A 
ATOM     20  C   UNL     1       6.959 -12.790  12.422  0.00  0.00    +0.000 A 
ATOM     21  C   UNL     1       6.698 -11.655  11.663  0.00  0.00    +0.000 A 
BRANCH  20  22
ATOM     22  O   UNL     1       8.052 -13.546  12.107  0.00  0.00    +0.000 OA
ATOM     23  H   UNL     1       8.031 -14.356  12.646  0.00  0.00    +0.000 HD
ENDBRANCH  20  22
BRANCH  19  24
ATOM     24  O   UNL     1       5.338  -9.765  11.224  0.00  0.00    +0.000 OA
ATOM     25  H   UNL     1       4.845 -10.036  10.430  0.00  0.00    +0.000 HD
ENDBRANCH  19  24
ENDBRANCH  15  16
ENDBRANCH   2  15
TORSDOF 10
ENDMDL
MODEL 5
REMARK VINA RESULT:      -3.9     19.630     22.044
REMARK  Name = 76617_Cardol.pdbqt.pdb
REMARK  10 active torsions:
REMARK  status: ('A' for Active; 'I' for Inactive)
REMARK    1  A    between atoms: C_1  and  C_2
REMARK    2  A    between atoms: C_3  and  C_4
REMARK    3  A    between atoms: C_5  and  C_6
REMARK    4  A    between atoms: C_7  and  C_8
REMARK    5  A    between atoms: C_8  and  C_9
REMARK    6  A    between atoms: C_10  and  C_11
REMARK    7  A    between atoms: C_14  and  C_15
REMARK    8  A    between atoms: C_15  and  C_16
REMARK    9  A    between atoms: C_19  and  O_24
REMARK   10  A    between atoms: C_20  and  O_22
REMARK                            x       y       z     vdW  Elec       q    Type
REMARK                         _______ _______ _______ _____ _____    ______ ____
ROOT
ATOM      1  C   UNL     1      -9.464   0.248  20.273  0.00  0.00    +0.000 C 
ATOM      2  C   UNL     1      -9.556  -0.787  20.873  0.00  0.00    +0.000 C 
ENDROOT
BRANCH   1   3
ATOM      3  C   UNL     1      -9.348   1.569  19.507  0.00  0.00    +0.000 C 
ATOM      4  C   UNL     1      -9.230   2.891  18.742  0.00  0.00    +0.000 C 
BRANCH   4   5
ATOM      5  C   UNL     1      -9.112   4.211  17.975  0.00  0.00    +0.000 C 
ATOM      6  C   UNL     1      -8.994   5.532  17.209  0.00  0.00    +0.000 C 
BRANCH   6   7
ATOM      7  C   UNL     1      -8.875   6.853  16.442  0.00  0.00    +0.000 C 
ATOM      8  C   UNL     1      -8.755   8.173  15.676  0.00  0.00    +0.000 C 
BRANCH   8   9
ATOM      9  C   UNL     1      -8.635   9.493  14.909  0.00  0.00    +0.000 C 
BRANCH   9  10
ATOM     10  C   UNL     1      -8.514  10.815  14.143  0.00  0.00    +0.000 C 
ATOM     11  C   UNL     1      -8.394  12.136  13.378  0.00  0.00    +0.000 C 
BRANCH  11  12
ATOM     12  C   UNL     1      -8.274  13.458  12.613  0.00  0.00    +0.000 C 
ATOM     13  C   UNL     1      -8.155  14.779  11.848  0.00  0.00    +0.000 C 
ATOM     14  C   UNL     1      -8.035  16.100  11.082  0.00  0.00    +0.000 C 
ENDBRANCH  11  12
ENDBRANCH   9  10
ENDBRANCH   8   9
ENDBRANCH   6   7
ENDBRANCH   4   5
ENDBRANCH   1   3
BRANCH   2  15
ATOM     15  C   UNL     1      -9.671  -2.109  21.639  0.00  0.00    +0.000 C 
BRANCH  15  16
ATOM     16  C   UNL     1      -9.779  -3.339  22.350  0.00  0.00    +0.000 A 
ATOM     17  C   UNL     1     -10.856  -4.189  22.108  0.00  0.00    +0.000 A 
ATOM     18  C   UNL     1      -8.805  -3.686  23.284  0.00  0.00    +0.000 A 
ATOM     19  C   UNL     1      -8.919  -4.891  23.974  0.00  0.00    +0.000 A 
ATOM     20  C   UNL     1     -10.951  -5.389  22.809  0.00  0.00    +0.000 A 
ATOM     21  C   UNL     1      -9.988  -5.750  23.745  0.00  0.00    +0.000 A 
BRANCH  20  22
ATOM     22  O   UNL     1     -11.997  -6.238  22.589  0.00  0.00    +0.000 OA
ATOM     23  H   UNL     1     -12.340  -6.079  21.693  0.00  0.00    +0.000 HD
ENDBRANCH  20  22
BRANCH  19  24
ATOM     24  O   UNL     1      -7.979  -5.255  24.896  0.00  0.00    +0.000 OA
ATOM     25  H   UNL     1      -8.379  -5.903  25.501  0.00  0.00    +0.000 HD
ENDBRANCH  19  24
ENDBRANCH  15  16
ENDBRANCH   2  15
TORSDOF 10
ENDMDL
MODEL 6
REMARK VINA RESULT:      -3.9     19.685     22.057
REMARK  Name = 76617_Cardol.pdbqt.pdb
REMARK  10 active torsions:
REMARK  status: ('A' for Active; 'I' for Inactive)
REMARK    1  A    between atoms: C_1  and  C_2
REMARK    2  A    between atoms: C_3  and  C_4
REMARK    3  A    between atoms: C_5  and  C_6
REMARK    4  A    between atoms: C_7  and  C_8
REMARK    5  A    between atoms: C_8  and  C_9
REMARK    6  A    between atoms: C_10  and  C_11
REMARK    7  A    between atoms: C_14  and  C_15
REMARK    8  A    between atoms: C_15  and  C_16
REMARK    9  A    between atoms: C_19  and  O_24
REMARK   10  A    between atoms: C_20  and  O_22
REMARK                            x       y       z     vdW  Elec       q    Type
REMARK                         _______ _______ _______ _____ _____    ______ ____
ROOT
ATOM      1  C   UNL     1      -9.456   0.641  19.999  0.00  0.00    +0.000 C 
ATOM      2  C   UNL     1      -9.533  -0.411  20.570  0.00  0.00    +0.000 C 
ENDROOT
BRANCH   1   3
ATOM      3  C   UNL     1      -9.357   1.984  19.269  0.00  0.00    +0.000 C 
ATOM      4  C   UNL     1      -9.260   3.327  18.538  0.00  0.00    +0.000 C 
BRANCH   4   5
ATOM      5  C   UNL     1      -9.164   4.669  17.807  0.00  0.00    +0.000 C 
ATOM      6  C   UNL     1      -9.068   6.011  17.076  0.00  0.00    +0.000 C 
BRANCH   6   7
ATOM      7  C   UNL     1      -8.972   7.354  16.344  0.00  0.00    +0.000 C 
ATOM      8  C   UNL     1      -8.875   8.695  15.612  0.00  0.00    +0.000 C 
BRANCH   8   9
ATOM      9  C   UNL     1      -8.779  10.037  14.881  0.00  0.00    +0.000 C 
BRANCH   9  10
ATOM     10  C   UNL     1      -8.683  11.380  14.149  0.00  0.00    +0.000 C 
ATOM     11  C   UNL     1      -8.589  12.723  13.419  0.00  0.00    +0.000 C 
BRANCH  11  12
ATOM     12  C   UNL     1      -8.495  14.066  12.688  0.00  0.00    +0.000 C 
ATOM     13  C   UNL     1      -8.400  15.407  11.956  0.00  0.00    +0.000 C 
ATOM     14  C   UNL     1      -8.305  16.750  11.224  0.00  0.00    +0.000 C 
ENDBRANCH  11  12
ENDBRANCH   9  10
ENDBRANCH   8   9
ENDBRANCH   6   7
ENDBRANCH   4   5
ENDBRANCH   1   3
BRANCH   2  15
ATOM     15  C   UNL     1      -9.631  -1.754  21.302  0.00  0.00    +0.000 C 
BRANCH  15  16
ATOM     16  C   UNL     1      -9.721  -3.003  21.981  0.00  0.00    +0.000 A 
ATOM     17  C   UNL     1      -8.678  -3.423  22.803  0.00  0.00    +0.000 A 
ATOM     18  C   UNL     1     -10.853  -3.799  21.819  0.00  0.00    +0.000 A 
ATOM     19  C   UNL     1     -10.932  -5.018  22.488  0.00  0.00    +0.000 A 
ATOM     20  C   UNL     1      -8.776  -4.645  23.463  0.00  0.00    +0.000 A 
ATOM     21  C   UNL     1      -9.899  -5.452  23.312  0.00  0.00    +0.000 A 
BRANCH  20  22
ATOM     22  O   UNL     1      -7.768  -5.079  24.274  0.00  0.00    +0.000 OA
ATOM     23  H   UNL     1      -7.878  -4.666  25.149  0.00  0.00    +0.000 HD
ENDBRANCH  20  22
BRANCH  19  24
ATOM     24  O   UNL     1     -12.030  -5.818  22.347  0.00  0.00    +0.000 OA
ATOM     25  H   UNL     1     -11.728  -6.736  22.236  0.00  0.00    +0.000 HD
ENDBRANCH  19  24
ENDBRANCH  15  16
ENDBRANCH   2  15
TORSDOF 10
ENDMDL
MODEL 7
REMARK VINA RESULT:      -3.8     15.055     19.647
REMARK  Name = 76617_Cardol.pdbqt.pdb
REMARK  10 active torsions:
REMARK  status: ('A' for Active; 'I' for Inactive)
REMARK    1  A    between atoms: C_1  and  C_2
REMARK    2  A    between atoms: C_3  and  C_4
REMARK    3  A    between atoms: C_5  and  C_6
REMARK    4  A    between atoms: C_7  and  C_8
REMARK    5  A    between atoms: C_8  and  C_9
REMARK    6  A    between atoms: C_10  and  C_11
REMARK    7  A    between atoms: C_14  and  C_15
REMARK    8  A    between atoms: C_15  and  C_16
REMARK    9  A    between atoms: C_19  and  O_24
REMARK   10  A    between atoms: C_20  and  O_22
REMARK                            x       y       z     vdW  Elec       q    Type
REMARK                         _______ _______ _______ _____ _____    ______ ____
ROOT
ATOM      1  C   UNL     1       3.859 -12.218  13.033  0.00  0.00    +0.000 C 
ATOM      2  C   UNL     1       3.475 -13.352  13.109  0.00  0.00    +0.000 C 
ENDROOT
BRANCH   1   3
ATOM      3  C   UNL     1       4.350 -10.771  12.937  0.00  0.00    +0.000 C 
ATOM      4  C   UNL     1       4.842  -9.323  12.841  0.00  0.00    +0.000 C 
BRANCH   4   5
ATOM      5  C   UNL     1       5.334  -7.876  12.744  0.00  0.00    +0.000 C 
ATOM      6  C   UNL     1       5.826  -6.429  12.648  0.00  0.00    +0.000 C 
BRANCH   6   7
ATOM      7  C   UNL     1       6.318  -4.981  12.551  0.00  0.00    +0.000 C 
ATOM      8  C   UNL     1       6.810  -3.534  12.455  0.00  0.00    +0.000 C 
BRANCH   8   9
ATOM      9  C   UNL     1       7.302  -2.087  12.359  0.00  0.00    +0.000 C 
BRANCH   9  10
ATOM     10  C   UNL     1       7.794  -0.640  12.265  0.00  0.00    +0.000 C 
ATOM     11  C   UNL     1       8.287   0.807  12.172  0.00  0.00    +0.000 C 
BRANCH  11  12
ATOM     12  C   UNL     1       8.779   2.255  12.078  0.00  0.00    +0.000 C 
ATOM     13  C   UNL     1       9.270   3.702  11.985  0.00  0.00    +0.000 C 
ATOM     14  C   UNL     1       9.762   5.150  11.892  0.00  0.00    +0.000 C 
ENDBRANCH  11  12
ENDBRANCH   9  10
ENDBRANCH   8   9
ENDBRANCH   6   7
ENDBRANCH   4   5
ENDBRANCH   1   3
BRANCH   2  15
ATOM     15  C   UNL     1       2.984 -14.800  13.206  0.00  0.00    +0.000 C 
BRANCH  15  16
ATOM     16  C   UNL     1       2.526 -16.146  13.298  0.00  0.00    +0.000 A 
ATOM     17  C   UNL     1       2.282 -16.713  14.547  0.00  0.00    +0.000 A 
ATOM     18  C   UNL     1       2.325 -16.890  12.137  0.00  0.00    +0.000 A 
ATOM     19  C   UNL     1       1.878 -18.205  12.236  0.00  0.00    +0.000 A 
ATOM     20  C   UNL     1       1.835 -18.029  14.625  0.00  0.00    +0.000 A 
ATOM     21  C   UNL     1       1.629 -18.786  13.476  0.00  0.00    +0.000 A 
BRANCH  20  22
ATOM     22  O   UNL     1       1.588 -18.607  15.837  0.00  0.00    +0.000 OA
ATOM     23  H   UNL     1       1.919 -19.522  15.815  0.00  0.00    +0.000 HD
ENDBRANCH  20  22
BRANCH  19  24
ATOM     24  O   UNL     1       1.673 -18.957  11.115  0.00  0.00    +0.000 OA
ATOM     25  H   UNL     1       2.515 -19.020  10.631  0.00  0.00    +0.000 HD
ENDBRANCH  19  24
ENDBRANCH  15  16
ENDBRANCH   2  15
TORSDOF 10
ENDMDL
MODEL 8
REMARK VINA RESULT:      -3.7      5.741     17.056
REMARK  Name = 76617_Cardol.pdbqt.pdb
REMARK  10 active torsions:
REMARK  status: ('A' for Active; 'I' for Inactive)
REMARK    1  A    between atoms: C_1  and  C_2
REMARK    2  A    between atoms: C_3  and  C_4
REMARK    3  A    between atoms: C_5  and  C_6
REMARK    4  A    between atoms: C_7  and  C_8
REMARK    5  A    between atoms: C_8  and  C_9
REMARK    6  A    between atoms: C_10  and  C_11
REMARK    7  A    between atoms: C_14  and  C_15
REMARK    8  A    between atoms: C_15  and  C_16
REMARK    9  A    between atoms: C_19  and  O_24
REMARK   10  A    between atoms: C_20  and  O_22
REMARK                            x       y       z     vdW  Elec       q    Type
REMARK                         _______ _______ _______ _____ _____    ______ ____
ROOT
ATOM      1  C   UNL     1      -1.127  -2.027   3.949  0.00  0.00    +0.000 C 
ATOM      2  C   UNL     1      -1.021  -2.835   3.068  0.00  0.00    +0.000 C 
ENDROOT
BRANCH   1   3
ATOM      3  C   UNL     1      -1.264  -0.995   5.073  0.00  0.00    +0.000 C 
ATOM      4  C   UNL     1      -1.401   0.037   6.196  0.00  0.00    +0.000 C 
BRANCH   4   5
ATOM      5  C   UNL     1      -1.540   1.069   7.319  0.00  0.00    +0.000 C 
ATOM      6  C   UNL     1      -1.679   2.101   8.442  0.00  0.00    +0.000 C 
BRANCH   6   7
ATOM      7  C   UNL     1      -1.818   3.134   9.565  0.00  0.00    +0.000 C 
ATOM      8  C   UNL     1      -1.956   4.166  10.688  0.00  0.00    +0.000 C 
BRANCH   8   9
ATOM      9  C   UNL     1      -2.094   5.198  11.810  0.00  0.00    +0.000 C 
BRANCH   9  10
ATOM     10  C   UNL     1      -2.233   6.230  12.935  0.00  0.00    +0.000 C 
ATOM     11  C   UNL     1      -2.371   7.260  14.059  0.00  0.00    +0.000 C 
BRANCH  11  12
ATOM     12  C   UNL     1      -2.509   8.291  15.184  0.00  0.00    +0.000 C 
ATOM     13  C   UNL     1      -2.649   9.321  16.308  0.00  0.00    +0.000 C 
ATOM     14  C   UNL     1      -2.788  10.352  17.433  0.00  0.00    +0.000 C 
ENDBRANCH  11  12
ENDBRANCH   9  10
ENDBRANCH   8   9
ENDBRANCH   6   7
ENDBRANCH   4   5
ENDBRANCH   1   3
BRANCH   2  15
ATOM     15  C   UNL     1      -0.883  -3.867   1.944  0.00  0.00    +0.000 C 
BRANCH  15  16
ATOM     16  C   UNL     1      -0.755  -4.826   0.899  0.00  0.00    +0.000 A 
ATOM     17  C   UNL     1      -0.219  -4.446  -0.330  0.00  0.00    +0.000 A 
ATOM     18  C   UNL     1      -1.165  -6.141   1.111  0.00  0.00    +0.000 A 
ATOM     19  C   UNL     1      -1.036  -7.072   0.083  0.00  0.00    +0.000 A 
ATOM     20  C   UNL     1      -0.098  -5.392  -1.345  0.00  0.00    +0.000 A 
ATOM     21  C   UNL     1      -0.503  -6.708  -1.150  0.00  0.00    +0.000 A 
BRANCH  20  22
ATOM     22  O   UNL     1       0.424  -5.044  -2.558  0.00  0.00    +0.000 OA
ATOM     23  H   UNL     1       0.629  -5.858  -3.049  0.00  0.00    +0.000 HD
ENDBRANCH  20  22
BRANCH  19  24
ATOM     24  O   UNL     1      -1.431  -8.366   0.263  0.00  0.00    +0.000 OA
ATOM     25  H   UNL     1      -1.028  -8.697   1.085  0.00  0.00    +0.000 HD
ENDBRANCH  19  24
ENDBRANCH  15  16
ENDBRANCH   2  15
TORSDOF 10
ENDMDL
MODEL 9
REMARK VINA RESULT:      -3.6     23.251     27.360
REMARK  Name = 76617_Cardol.pdbqt.pdb
REMARK  10 active torsions:
REMARK  status: ('A' for Active; 'I' for Inactive)
REMARK    1  A    between atoms: C_1  and  C_2
REMARK    2  A    between atoms: C_3  and  C_4
REMARK    3  A    between atoms: C_5  and  C_6
REMARK    4  A    between atoms: C_7  and  C_8
REMARK    5  A    between atoms: C_8  and  C_9
REMARK    6  A    between atoms: C_10  and  C_11
REMARK    7  A    between atoms: C_14  and  C_15
REMARK    8  A    between atoms: C_15  and  C_16
REMARK    9  A    between atoms: C_19  and  O_24
REMARK   10  A    between atoms: C_20  and  O_22
REMARK                            x       y       z     vdW  Elec       q    Type
REMARK                         _______ _______ _______ _____ _____    ______ ____
ROOT
ATOM      1  C   UNL     1     -13.592 -16.378  12.439  0.00  0.00    +0.000 C 
ATOM      2  C   UNL     1     -12.721 -16.661  11.665  0.00  0.00    +0.000 C 
ENDROOT
BRANCH   1   3
ATOM      3  C   UNL     1     -14.705 -16.018  13.428  0.00  0.00    +0.000 C 
ATOM      4  C   UNL     1     -15.820 -15.658  14.416  0.00  0.00    +0.000 C 
BRANCH   4   5
ATOM      5  C   UNL     1     -16.934 -15.300  15.404  0.00  0.00    +0.000 C 
ATOM      6  C   UNL     1     -18.046 -14.941  16.393  0.00  0.00    +0.000 C 
BRANCH   6   7
ATOM      7  C   UNL     1     -19.160 -14.582  17.382  0.00  0.00    +0.000 C 
ATOM      8  C   UNL     1     -20.273 -14.224  18.371  0.00  0.00    +0.000 C 
BRANCH   8   9
ATOM      9  C   UNL     1     -21.386 -13.866  19.360  0.00  0.00    +0.000 C 
BRANCH   9  10
ATOM     10  C   UNL     1     -22.498 -13.507  20.350  0.00  0.00    +0.000 C 
ATOM     11  C   UNL     1     -23.611 -13.148  21.339  0.00  0.00    +0.000 C 
BRANCH  11  12
ATOM     12  C   UNL     1     -24.724 -12.787  22.328  0.00  0.00    +0.000 C 
ATOM     13  C   UNL     1     -25.836 -12.427  23.317  0.00  0.00    +0.000 C 
ATOM     14  C   UNL     1     -26.949 -12.067  24.307  0.00  0.00    +0.000 C 
ENDBRANCH  11  12
ENDBRANCH   9  10
ENDBRANCH   8   9
ENDBRANCH   6   7
ENDBRANCH   4   5
ENDBRANCH   1   3
BRANCH   2  15
ATOM     15  C   UNL     1     -11.607 -17.020  10.676  0.00  0.00    +0.000 C 
BRANCH  15  16
ATOM     16  C   UNL     1     -10.571 -17.354   9.757  0.00  0.00    +0.000 A 
ATOM     17  C   UNL     1      -9.674 -18.376  10.063  0.00  0.00    +0.000 A 
ATOM     18  C   UNL     1     -10.459 -16.657   8.556  0.00  0.00    +0.000 A 
ATOM     19  C   UNL     1      -9.443 -16.990   7.664  0.00  0.00    +0.000 A 
ATOM     20  C   UNL     1      -8.665 -18.694   9.157  0.00  0.00    +0.000 A 
ATOM     21  C   UNL     1      -8.540 -18.007   7.955  0.00  0.00    +0.000 A 
BRANCH  20  22
ATOM     22  O   UNL     1      -7.774 -19.690   9.434  0.00  0.00    +0.000 OA
ATOM     23  H   UNL     1      -8.083 -20.507   9.005  0.00  0.00    +0.000 HD
ENDBRANCH  20  22
BRANCH  19  24
ATOM     24  O   UNL     1      -9.311 -16.322   6.480  0.00  0.00    +0.000 OA
ATOM     25  H   UNL     1     -10.172 -16.329   6.027  0.00  0.00    +0.000 HD
ENDBRANCH  19  24
ENDBRANCH  15  16
ENDBRANCH   2  15
TORSDOF 10
ENDMDL
