REMARK  Name = 85668777_Hyaluronidase.pdbqt.pdb
REMARK  5 active torsions:
REMARK  status: ('A' for Active; 'I' for Inactive)
REMARK    1  A    between atoms: N_1  and  C_13
REMARK    2  A    between atoms: C_14  and  C_15
REMARK    3  A    between atoms: C_15  and  C_16
REMARK    4  A    between atoms: C_17  and  C_19
REMARK    5  A    between atoms: C_19  and  O_20
REMARK                            x       y       z     vdW  Elec       q    Type
REMARK                         _______ _______ _______ _____ _____    ______ ____
ROOT
ATOM      1  N   UNL     1       1.549  -0.419   0.023  0.00  0.00    +0.000 N 
ATOM      2  C   UNL     1       3.816  -1.257   0.148  0.00  0.00    +0.000 C 
ATOM      3  C   UNL     1       3.761   0.266   0.031  0.00  0.00    +0.000 A 
ATOM      4  C   UNL     1       2.277  -1.605   0.134  0.00  0.00    +0.000 C 
ATOM      5  C   UNL     1       2.416   0.685  -0.038  0.00  0.00    +0.000 A 
ATOM      6  C   UNL     1       4.569  -1.839  -1.090  0.00  0.00    +0.000 C 
ATOM      7  C   UNL     1       4.499  -1.641   1.500  0.00  0.00    +0.000 C 
ATOM      8  C   UNL     1       4.799   1.186  -0.012  0.00  0.00    +0.000 A 
ATOM      9  C   UNL     1       2.094   2.026  -0.149  0.00  0.00    +0.000 A 
ATOM     10  C   UNL     1       1.660  -2.802   0.209  0.00  0.00    +0.000 C 
ATOM     11  C   UNL     1       4.473   2.537  -0.124  0.00  0.00    +0.000 A 
ATOM     12  C   UNL     1       3.136   2.952  -0.191  0.00  0.00    +0.000 A 
ENDROOT
BRANCH   1  13
ATOM     13  C   UNL     1       0.111  -0.308  -0.023  0.00  0.00    +0.000 C 
ATOM     14  C   UNL     1      -1.415  -0.185  -0.073  0.00  0.00    +0.000 C 
BRANCH  14  15
ATOM     15  C   UNL     1      -2.941  -0.061  -0.123  0.00  0.00    +0.000 C 
BRANCH  15  16
ATOM     16  C   UNL     1      -4.466   0.063  -0.174  0.00  0.00    +0.000 C 
ATOM     17  C   UNL     1      -5.992   0.188  -0.225  0.00  0.00    +0.000 C 
BRANCH  17  19
ATOM     18  O   UNL     1      -8.001   1.116  -0.974  0.00  0.00    +0.000 OA
ATOM     19  C   UNL     1      -7.418   0.306  -0.274  0.00  0.00    +0.000 C 
BRANCH  19  20
ATOM     20  O   UNL     1      -8.067  -0.559   0.525  0.00  0.00    +0.000 OA
ATOM     21  H   UNL     1      -9.011  -0.350   0.374  0.00  0.00    +0.000 HD
ENDBRANCH  19  20
ENDBRANCH  17  19
ENDBRANCH  15  16
ENDBRANCH  14  15
ENDBRANCH   1  13
TORSDOF 5
