MODEL 1
REMARK VINA RESULT:      -5.2      0.000      0.000
REMARK  Name = 85668777_Hyaluronidase.pdbqt.pdb
REMARK  5 active torsions:
REMARK  status: ('A' for Active; 'I' for Inactive)
REMARK    1  A    between atoms: N_1  and  C_13
REMARK    2  A    between atoms: C_14  and  C_15
REMARK    3  A    between atoms: C_15  and  C_16
REMARK    4  A    between atoms: C_17  and  C_19
REMARK    5  A    between atoms: C_19  and  O_20
REMARK                            x       y       z     vdW  Elec       q    Type
REMARK                         _______ _______ _______ _____ _____    ______ ____
ROOT
ATOM      1  N   UNL     1      -9.434  -3.165  22.779  0.00  0.00    +0.000 N 
ATOM      2  C   UNL     1      -9.191  -0.873  22.039  0.00  0.00    +0.000 C 
ATOM      3  C   UNL     1      -9.625  -1.810  20.911  0.00  0.00    +0.000 A 
ATOM      4  C   UNL     1      -9.096  -1.891  23.241  0.00  0.00    +0.000 C 
ATOM      5  C   UNL     1      -9.746  -3.123  21.409  0.00  0.00    +0.000 A 
ATOM      6  C   UNL     1      -7.807  -0.246  21.680  0.00  0.00    +0.000 C 
ATOM      7  C   UNL     1     -10.299   0.206  22.261  0.00  0.00    +0.000 C 
ATOM      8  C   UNL     1      -9.883  -1.525  19.578  0.00  0.00    +0.000 A 
ATOM      9  C   UNL     1     -10.128  -4.165  20.583  0.00  0.00    +0.000 A 
ATOM     10  C   UNL     1      -8.758  -1.680  24.529  0.00  0.00    +0.000 C 
ATOM     11  C   UNL     1     -10.268  -2.575  18.746  0.00  0.00    +0.000 A 
ATOM     12  C   UNL     1     -10.389  -3.880  19.243  0.00  0.00    +0.000 A 
ENDROOT
BRANCH   1  13
ATOM     13  C   UNL     1      -9.470  -4.372  23.569  0.00  0.00    +0.000 C 
ATOM     14  C   UNL     1      -9.512  -5.654  24.406  0.00  0.00    +0.000 C 
BRANCH  14  15
ATOM     15  C   UNL     1      -9.555  -6.937  25.241  0.00  0.00    +0.000 C 
BRANCH  15  16
ATOM     16  C   UNL     1      -9.597  -8.220  26.076  0.00  0.00    +0.000 C 
ATOM     17  C   UNL     1      -9.640  -9.504  26.910  0.00  0.00    +0.000 C 
BRANCH  17  19
ATOM     18  O   UNL     1      -9.652 -10.716  28.907  0.00  0.00    +0.000 OA
ATOM     19  C   UNL     1      -9.679 -10.705  27.689  0.00  0.00    +0.000 C 
BRANCH  19  20
ATOM     20  O   UNL     1      -9.749 -11.831  26.956  0.00  0.00    +0.000 OA
ATOM     21  H   UNL     1     -10.397 -12.382  27.440  0.00  0.00    +0.000 HD
ENDBRANCH  19  20
ENDBRANCH  17  19
ENDBRANCH  15  16
ENDBRANCH  14  15
ENDBRANCH   1  13
TORSDOF 5
ENDMDL
MODEL 2
REMARK VINA RESULT:      -4.9     17.815     19.267
REMARK  Name = 85668777_Hyaluronidase.pdbqt.pdb
REMARK  5 active torsions:
REMARK  status: ('A' for Active; 'I' for Inactive)
REMARK    1  A    between atoms: N_1  and  C_13
REMARK    2  A    between atoms: C_14  and  C_15
REMARK    3  A    between atoms: C_15  and  C_16
REMARK    4  A    between atoms: C_17  and  C_19
REMARK    5  A    between atoms: C_19  and  O_20
REMARK                            x       y       z     vdW  Elec       q    Type
REMARK                         _______ _______ _______ _____ _____    ______ ____
ROOT
ATOM      1  N   UNL     1       5.077  -8.724  13.866  0.00  0.00    +0.000 N 
ATOM      2  C   UNL     1       5.283 -11.131  13.710  0.00  0.00    +0.000 C 
ATOM      3  C   UNL     1       4.204 -10.575  12.781  0.00  0.00    +0.000 A 
ATOM      4  C   UNL     1       5.799  -9.801  14.384  0.00  0.00    +0.000 C 
ATOM      5  C   UNL     1       4.137  -9.173  12.923  0.00  0.00    +0.000 A 
ATOM      6  C   UNL     1       4.622 -12.102  14.738  0.00  0.00    +0.000 C 
ATOM      7  C   UNL     1       6.387 -11.828  12.851  0.00  0.00    +0.000 C 
ATOM      8  C   UNL     1       3.366 -11.245  11.901  0.00  0.00    +0.000 A 
ATOM      9  C   UNL     1       3.234  -8.427  12.187  0.00  0.00    +0.000 A 
ATOM     10  C   UNL     1       6.762  -9.618  15.311  0.00  0.00    +0.000 C 
ATOM     11  C   UNL     1       2.457 -10.491  11.160  0.00  0.00    +0.000 A 
ATOM     12  C   UNL     1       2.392  -9.098  11.301  0.00  0.00    +0.000 A 
ENDROOT
BRANCH   1  13
ATOM     13  C   UNL     1       5.247  -7.337  14.226  0.00  0.00    +0.000 C 
ATOM     14  C   UNL     1       5.428  -5.864  14.602  0.00  0.00    +0.000 C 
BRANCH  14  15
ATOM     15  C   UNL     1       5.609  -4.390  14.977  0.00  0.00    +0.000 C 
BRANCH  15  16
ATOM     16  C   UNL     1       5.791  -2.916  15.352  0.00  0.00    +0.000 C 
ATOM     17  C   UNL     1       5.974  -1.443  15.727  0.00  0.00    +0.000 C 
BRANCH  17  19
ATOM     18  O   UNL     1       7.183   0.388  16.532  0.00  0.00    +0.000 OA
ATOM     19  C   UNL     1       6.147  -0.065  16.077  0.00  0.00    +0.000 C 
BRANCH  19  20
ATOM     20  O   UNL     1       5.059   0.695  15.861  0.00  0.00    +0.000 OA
ATOM     21  H   UNL     1       5.398   1.610  15.935  0.00  0.00    +0.000 HD
ENDBRANCH  19  20
ENDBRANCH  17  19
ENDBRANCH  15  16
ENDBRANCH  14  15
ENDBRANCH   1  13
TORSDOF 5
ENDMDL
MODEL 3
REMARK VINA RESULT:      -4.8      1.233      2.717
REMARK  Name = 85668777_Hyaluronidase.pdbqt.pdb
REMARK  5 active torsions:
REMARK  status: ('A' for Active; 'I' for Inactive)
REMARK    1  A    between atoms: N_1  and  C_13
REMARK    2  A    between atoms: C_14  and  C_15
REMARK    3  A    between atoms: C_15  and  C_16
REMARK    4  A    between atoms: C_17  and  C_19
REMARK    5  A    between atoms: C_19  and  O_20
REMARK                            x       y       z     vdW  Elec       q    Type
REMARK                         _______ _______ _______ _____ _____    ______ ____
ROOT
ATOM      1  N   UNL     1      -9.522  -3.207  23.135  0.00  0.00    +0.000 N 
ATOM      2  C   UNL     1      -8.995  -1.447  21.561  0.00  0.00    +0.000 C 
ATOM      3  C   UNL     1     -10.109  -1.051  22.529  0.00  0.00    +0.000 A 
ATOM      4  C   UNL     1      -8.680  -2.909  22.063  0.00  0.00    +0.000 C 
ATOM      5  C   UNL     1     -10.365  -2.119  23.415  0.00  0.00    +0.000 A 
ATOM      6  C   UNL     1      -9.553  -1.425  20.102  0.00  0.00    +0.000 C 
ATOM      7  C   UNL     1      -7.783  -0.479  21.754  0.00  0.00    +0.000 C 
ATOM      8  C   UNL     1     -10.825   0.135  22.615  0.00  0.00    +0.000 A 
ATOM      9  C   UNL     1     -11.336  -2.013  24.395  0.00  0.00    +0.000 A 
ATOM     10  C   UNL     1      -7.778  -3.804  21.610  0.00  0.00    +0.000 C 
ATOM     11  C   UNL     1     -11.803   0.241  23.603  0.00  0.00    +0.000 A 
ATOM     12  C   UNL     1     -12.055  -0.821  24.483  0.00  0.00    +0.000 A 
ENDROOT
BRANCH   1  13
ATOM     13  C   UNL     1      -9.547  -4.446  23.875  0.00  0.00    +0.000 C 
ATOM     14  C   UNL     1      -9.579  -5.762  24.658  0.00  0.00    +0.000 C 
BRANCH  14  15
ATOM     15  C   UNL     1      -9.611  -7.078  25.442  0.00  0.00    +0.000 C 
BRANCH  15  16
ATOM     16  C   UNL     1      -9.645  -8.393  26.225  0.00  0.00    +0.000 C 
ATOM     17  C   UNL     1      -9.679  -9.709  27.009  0.00  0.00    +0.000 C 
BRANCH  17  19
ATOM     18  O   UNL     1      -9.732 -10.993  28.960  0.00  0.00    +0.000 OA
ATOM     19  C   UNL     1      -9.712 -10.938  27.742  0.00  0.00    +0.000 C 
BRANCH  19  20
ATOM     20  O   UNL     1      -9.719 -12.038  26.968  0.00  0.00    +0.000 OA
ATOM     21  H   UNL     1     -10.591 -12.443  27.149  0.00  0.00    +0.000 HD
ENDBRANCH  19  20
ENDBRANCH  17  19
ENDBRANCH  15  16
ENDBRANCH  14  15
ENDBRANCH   1  13
TORSDOF 5
ENDMDL
MODEL 4
REMARK VINA RESULT:      -4.7     12.527     14.336
REMARK  Name = 85668777_Hyaluronidase.pdbqt.pdb
REMARK  5 active torsions:
REMARK  status: ('A' for Active; 'I' for Inactive)
REMARK    1  A    between atoms: N_1  and  C_13
REMARK    2  A    between atoms: C_14  and  C_15
REMARK    3  A    between atoms: C_15  and  C_16
REMARK    4  A    between atoms: C_17  and  C_19
REMARK    5  A    between atoms: C_19  and  O_20
REMARK                            x       y       z     vdW  Elec       q    Type
REMARK                         _______ _______ _______ _____ _____    ______ ____
ROOT
ATOM      1  N   UNL     1      -0.193 -14.437  19.483  0.00  0.00    +0.000 N 
ATOM      2  C   UNL     1       2.111 -14.437  18.741  0.00  0.00    +0.000 C 
ATOM      3  C   UNL     1       1.747 -13.173  19.521  0.00  0.00    +0.000 A 
ATOM      4  C   UNL     1       0.735 -15.209  18.781  0.00  0.00    +0.000 C 
ATOM      5  C   UNL     1       0.396 -13.239  19.920  0.00  0.00    +0.000 A 
ATOM      6  C   UNL     1       2.529 -14.041  17.290  0.00  0.00    +0.000 C 
ATOM      7  C   UNL     1       3.242 -15.200  19.504  0.00  0.00    +0.000 C 
ATOM      8  C   UNL     1       2.535 -12.076  19.841  0.00  0.00    +0.000 A 
ATOM      9  C   UNL     1      -0.182 -12.211  20.644  0.00  0.00    +0.000 A 
ATOM     10  C   UNL     1       0.400 -16.407  18.261  0.00  0.00    +0.000 C 
ATOM     11  C   UNL     1       1.951 -11.041  20.570  0.00  0.00    +0.000 A 
ATOM     12  C   UNL     1       0.609 -11.108  20.968  0.00  0.00    +0.000 A 
ENDROOT
BRANCH   1  13
ATOM     13  C   UNL     1      -1.568 -14.791  19.741  0.00  0.00    +0.000 C 
ATOM     14  C   UNL     1      -3.028 -15.163  20.014  0.00  0.00    +0.000 C 
BRANCH  14  15
ATOM     15  C   UNL     1      -4.490 -15.533  20.286  0.00  0.00    +0.000 C 
BRANCH  15  16
ATOM     16  C   UNL     1      -5.950 -15.902  20.559  0.00  0.00    +0.000 C 
ATOM     17  C   UNL     1      -7.412 -16.271  20.833  0.00  0.00    +0.000 C 
BRANCH  17  19
ATOM     18  O   UNL     1      -9.266 -17.691  20.792  0.00  0.00    +0.000 OA
ATOM     19  C   UNL     1      -8.778 -16.614  21.088  0.00  0.00    +0.000 C 
BRANCH  19  20
ATOM     20  O   UNL     1      -9.485 -15.639  21.686  0.00  0.00    +0.000 OA
ATOM     21  H   UNL     1     -10.401 -15.983  21.683  0.00  0.00    +0.000 HD
ENDBRANCH  19  20
ENDBRANCH  17  19
ENDBRANCH  15  16
ENDBRANCH  14  15
ENDBRANCH   1  13
TORSDOF 5
ENDMDL
MODEL 5
REMARK VINA RESULT:      -4.7      6.283      8.531
REMARK  Name = 85668777_Hyaluronidase.pdbqt.pdb
REMARK  5 active torsions:
REMARK  status: ('A' for Active; 'I' for Inactive)
REMARK    1  A    between atoms: N_1  and  C_13
REMARK    2  A    between atoms: C_14  and  C_15
REMARK    3  A    between atoms: C_15  and  C_16
REMARK    4  A    between atoms: C_17  and  C_19
REMARK    5  A    between atoms: C_19  and  O_20
REMARK                            x       y       z     vdW  Elec       q    Type
REMARK                         _______ _______ _______ _____ _____    ______ ____
ROOT
ATOM      1  N   UNL     1      -3.066  -0.304  23.037  0.00  0.00    +0.000 N 
ATOM      2  C   UNL     1      -1.035   0.414  24.140  0.00  0.00    +0.000 C 
ATOM      3  C   UNL     1      -1.209   1.052  22.762  0.00  0.00    +0.000 A 
ATOM      4  C   UNL     1      -2.338  -0.473  24.216  0.00  0.00    +0.000 C 
ATOM      5  C   UNL     1      -2.408   0.591  22.178  0.00  0.00    +0.000 A 
ATOM      6  C   UNL     1       0.270  -0.445  24.145  0.00  0.00    +0.000 C 
ATOM      7  C   UNL     1      -1.017   1.538  25.225  0.00  0.00    +0.000 C 
ATOM      8  C   UNL     1      -0.387   1.948  22.094  0.00  0.00    +0.000 A 
ATOM      9  C   UNL     1      -2.798   1.022  20.922  0.00  0.00    +0.000 A 
ATOM     10  C   UNL     1      -2.773  -1.289  25.198  0.00  0.00    +0.000 C 
ATOM     11  C   UNL     1      -0.782   2.381  20.828  0.00  0.00    +0.000 A 
ATOM     12  C   UNL     1      -1.973   1.923  20.250  0.00  0.00    +0.000 A 
ENDROOT
BRANCH   1  13
ATOM     13  C   UNL     1      -4.320  -0.942  22.717  0.00  0.00    +0.000 C 
ATOM     14  C   UNL     1      -5.649  -1.621  22.372  0.00  0.00    +0.000 C 
BRANCH  14  15
ATOM     15  C   UNL     1      -6.978  -2.300  22.026  0.00  0.00    +0.000 C 
BRANCH  15  16
ATOM     16  C   UNL     1      -8.306  -2.978  21.680  0.00  0.00    +0.000 C 
ATOM     17  C   UNL     1      -9.636  -3.656  21.334  0.00  0.00    +0.000 C 
BRANCH  17  19
ATOM     18  O   UNL     1     -11.380  -5.169  21.688  0.00  0.00    +0.000 OA
ATOM     19  C   UNL     1     -10.879  -4.288  21.011  0.00  0.00    +0.000 C 
BRANCH  19  20
ATOM     20  O   UNL     1     -11.454  -3.825  19.887  0.00  0.00    +0.000 OA
ATOM     21  H   UNL     1     -12.265  -3.382  20.207  0.00  0.00    +0.000 HD
ENDBRANCH  19  20
ENDBRANCH  17  19
ENDBRANCH  15  16
ENDBRANCH  14  15
ENDBRANCH   1  13
TORSDOF 5
ENDMDL
MODEL 6
REMARK VINA RESULT:      -4.7     18.489     21.412
REMARK  Name = 85668777_Hyaluronidase.pdbqt.pdb
REMARK  5 active torsions:
REMARK  status: ('A' for Active; 'I' for Inactive)
REMARK    1  A    between atoms: N_1  and  C_13
REMARK    2  A    between atoms: C_14  and  C_15
REMARK    3  A    between atoms: C_15  and  C_16
REMARK    4  A    between atoms: C_17  and  C_19
REMARK    5  A    between atoms: C_19  and  O_20
REMARK                            x       y       z     vdW  Elec       q    Type
REMARK                         _______ _______ _______ _____ _____    ______ ____
ROOT
ATOM      1  N   UNL     1       0.694  -0.649   4.634  0.00  0.00    +0.000 N 
ATOM      2  C   UNL     1       2.423  -1.429   3.131  0.00  0.00    +0.000 C 
ATOM      3  C   UNL     1       1.086  -2.133   2.900  0.00  0.00    +0.000 A 
ATOM      4  C   UNL     1       2.039  -0.458   4.313  0.00  0.00    +0.000 C 
ATOM      5  C   UNL     1       0.128  -1.633   3.806  0.00  0.00    +0.000 A 
ATOM      6  C   UNL     1       3.492  -2.486   3.552  0.00  0.00    +0.000 C 
ATOM      7  C   UNL     1       2.823  -0.655   1.833  0.00  0.00    +0.000 C 
ATOM      8  C   UNL     1       0.754  -3.118   1.981  0.00  0.00    +0.000 A 
ATOM      9  C   UNL     1      -1.171  -2.110   3.803  0.00  0.00    +0.000 A 
ATOM     10  C   UNL     1       2.797   0.441   4.975  0.00  0.00    +0.000 C 
ATOM     11  C   UNL     1      -0.555  -3.598   1.978  0.00  0.00    +0.000 A 
ATOM     12  C   UNL     1      -1.506  -3.099   2.879  0.00  0.00    +0.000 A 
ENDROOT
BRANCH   1  13
ATOM     13  C   UNL     1      -0.040   0.049   5.662  0.00  0.00    +0.000 C 
ATOM     14  C   UNL     1      -0.815   0.790   6.755  0.00  0.00    +0.000 C 
BRANCH  14  15
ATOM     15  C   UNL     1      -1.589   1.531   7.850  0.00  0.00    +0.000 C 
BRANCH  15  16
ATOM     16  C   UNL     1      -2.362   2.273   8.944  0.00  0.00    +0.000 C 
ATOM     17  C   UNL     1      -3.136   3.015  10.038  0.00  0.00    +0.000 C 
BRANCH  17  19
ATOM     18  O   UNL     1      -3.533   4.801  11.490  0.00  0.00    +0.000 OA
ATOM     19  C   UNL     1      -3.860   3.709  11.059  0.00  0.00    +0.000 C 
BRANCH  19  20
ATOM     20  O   UNL     1      -4.943   3.050  11.508  0.00  0.00    +0.000 OA
ATOM     21  H   UNL     1      -5.163   2.441  10.774  0.00  0.00    +0.000 HD
ENDBRANCH  19  20
ENDBRANCH  17  19
ENDBRANCH  15  16
ENDBRANCH  14  15
ENDBRANCH   1  13
TORSDOF 5
ENDMDL
MODEL 7
REMARK VINA RESULT:      -4.6      7.158     10.193
REMARK  Name = 85668777_Hyaluronidase.pdbqt.pdb
REMARK  5 active torsions:
REMARK  status: ('A' for Active; 'I' for Inactive)
REMARK    1  A    between atoms: N_1  and  C_13
REMARK    2  A    between atoms: C_14  and  C_15
REMARK    3  A    between atoms: C_15  and  C_16
REMARK    4  A    between atoms: C_17  and  C_19
REMARK    5  A    between atoms: C_19  and  O_20
REMARK                            x       y       z     vdW  Elec       q    Type
REMARK                         _______ _______ _______ _____ _____    ______ ____
ROOT
ATOM      1  N   UNL     1     -10.128  -2.076  22.007  0.00  0.00    +0.000 N 
ATOM      2  C   UNL     1      -9.995  -4.302  22.948  0.00  0.00    +0.000 C 
ATOM      3  C   UNL     1     -11.175  -3.503  23.500  0.00  0.00    +0.000 A 
ATOM      4  C   UNL     1      -9.368  -3.246  21.957  0.00  0.00    +0.000 C 
ATOM      5  C   UNL     1     -11.192  -2.221  22.913  0.00  0.00    +0.000 A 
ATOM      6  C   UNL     1      -9.030  -4.666  24.120  0.00  0.00    +0.000 C 
ATOM      7  C   UNL     1     -10.537  -5.565  22.204  0.00  0.00    +0.000 C 
ATOM      8  C   UNL     1     -12.135  -3.875  24.431  0.00  0.00    +0.000 A 
ATOM      9  C   UNL     1     -12.168  -1.298  23.247  0.00  0.00    +0.000 A 
ATOM     10  C   UNL     1      -8.288  -3.348  21.155  0.00  0.00    +0.000 C 
ATOM     11  C   UNL     1     -13.117  -2.945  24.767  0.00  0.00    +0.000 A 
ATOM     12  C   UNL     1     -13.134  -1.671  24.181  0.00  0.00    +0.000 A 
ENDROOT
BRANCH   1  13
ATOM     13  C   UNL     1      -9.883  -0.874  21.248  0.00  0.00    +0.000 C 
ATOM     14  C   UNL     1      -9.619   0.401  20.441  0.00  0.00    +0.000 C 
BRANCH  14  15
ATOM     15  C   UNL     1      -9.353   1.676  19.634  0.00  0.00    +0.000 C 
BRANCH  15  16
ATOM     16  C   UNL     1      -9.088   2.950  18.828  0.00  0.00    +0.000 C 
ATOM     17  C   UNL     1      -8.822   4.226  18.023  0.00  0.00    +0.000 C 
BRANCH  17  19
ATOM     18  O   UNL     1      -7.464   5.908  17.138  0.00  0.00    +0.000 OA
ATOM     19  C   UNL     1      -8.572   5.417  17.269  0.00  0.00    +0.000 C 
BRANCH  19  20
ATOM     20  O   UNL     1      -9.672   5.956  16.714  0.00  0.00    +0.000 OA
ATOM     21  H   UNL     1      -9.928   6.659  17.344  0.00  0.00    +0.000 HD
ENDBRANCH  19  20
ENDBRANCH  17  19
ENDBRANCH  15  16
ENDBRANCH  14  15
ENDBRANCH   1  13
TORSDOF 5
ENDMDL
MODEL 8
REMARK VINA RESULT:      -4.5      4.652      5.649
REMARK  Name = 85668777_Hyaluronidase.pdbqt.pdb
REMARK  5 active torsions:
REMARK  status: ('A' for Active; 'I' for Inactive)
REMARK    1  A    between atoms: N_1  and  C_13
REMARK    2  A    between atoms: C_14  and  C_15
REMARK    3  A    between atoms: C_15  and  C_16
REMARK    4  A    between atoms: C_17  and  C_19
REMARK    5  A    between atoms: C_19  and  O_20
REMARK                            x       y       z     vdW  Elec       q    Type
REMARK                         _______ _______ _______ _____ _____    ______ ____
ROOT
ATOM      1  N   UNL     1     -11.183  -3.239  22.435  0.00  0.00    +0.000 N 
ATOM      2  C   UNL     1      -9.790  -3.581  20.485  0.00  0.00    +0.000 C 
ATOM      3  C   UNL     1      -9.774  -2.131  20.968  0.00  0.00    +0.000 A 
ATOM      4  C   UNL     1     -10.765  -4.229  21.543  0.00  0.00    +0.000 C 
ATOM      5  C   UNL     1     -10.603  -2.003  22.102  0.00  0.00    +0.000 A 
ATOM      6  C   UNL     1     -10.367  -3.631  19.035  0.00  0.00    +0.000 C 
ATOM      7  C   UNL     1      -8.344  -4.166  20.575  0.00  0.00    +0.000 C 
ATOM      8  C   UNL     1      -9.094  -1.037  20.454  0.00  0.00    +0.000 A 
ATOM      9  C   UNL     1     -10.761  -0.782  22.733  0.00  0.00    +0.000 A 
ATOM     10  C   UNL     1     -11.191  -5.503  21.661  0.00  0.00    +0.000 C 
ATOM     11  C   UNL     1      -9.253   0.193  21.091  0.00  0.00    +0.000 A 
ATOM     12  C   UNL     1     -10.077   0.319  22.218  0.00  0.00    +0.000 A 
ENDROOT
BRANCH   1  13
ATOM     13  C   UNL     1     -12.079  -3.426  23.550  0.00  0.00    +0.000 C 
ATOM     14  C   UNL     1     -13.030  -3.630  24.733  0.00  0.00    +0.000 C 
BRANCH  14  15
ATOM     15  C   UNL     1     -13.981  -3.834  25.917  0.00  0.00    +0.000 C 
BRANCH  15  16
ATOM     16  C   UNL     1     -14.932  -4.039  27.098  0.00  0.00    +0.000 C 
ATOM     17  C   UNL     1     -15.883  -4.244  28.282  0.00  0.00    +0.000 C 
BRANCH  17  19
ATOM     18  O   UNL     1     -16.535  -4.034  30.515  0.00  0.00    +0.000 OA
ATOM     19  C   UNL     1     -16.771  -4.434  29.389  0.00  0.00    +0.000 C 
BRANCH  19  20
ATOM     20  O   UNL     1     -17.899  -5.099  29.079  0.00  0.00    +0.000 OA
ATOM     21  H   UNL     1     -17.605  -6.029  29.000  0.00  0.00    +0.000 HD
ENDBRANCH  19  20
ENDBRANCH  17  19
ENDBRANCH  15  16
ENDBRANCH  14  15
ENDBRANCH   1  13
TORSDOF 5
ENDMDL
MODEL 9
REMARK VINA RESULT:      -4.5     15.111     17.455
REMARK  Name = 85668777_Hyaluronidase.pdbqt.pdb
REMARK  5 active torsions:
REMARK  status: ('A' for Active; 'I' for Inactive)
REMARK    1  A    between atoms: N_1  and  C_13
REMARK    2  A    between atoms: C_14  and  C_15
REMARK    3  A    between atoms: C_15  and  C_16
REMARK    4  A    between atoms: C_17  and  C_19
REMARK    5  A    between atoms: C_19  and  O_20
REMARK                            x       y       z     vdW  Elec       q    Type
REMARK                         _______ _______ _______ _____ _____    ______ ____
ROOT
ATOM      1  N   UNL     1       0.991 -14.650  19.806  0.00  0.00    +0.000 N 
ATOM      2  C   UNL     1       0.605 -15.451  22.057  0.00  0.00    +0.000 C 
ATOM      3  C   UNL     1      -0.693 -15.089  21.335  0.00  0.00    +0.000 A 
ATOM      4  C   UNL     1       1.664 -15.117  20.937  0.00  0.00    +0.000 C 
ATOM      5  C   UNL     1      -0.395 -14.631  20.034  0.00  0.00    +0.000 A 
ATOM      6  C   UNL     1       0.762 -14.539  23.315  0.00  0.00    +0.000 C 
ATOM      7  C   UNL     1       0.581 -16.971  22.418  0.00  0.00    +0.000 C 
ATOM      8  C   UNL     1      -2.003 -15.157  21.786  0.00  0.00    +0.000 A 
ATOM      9  C   UNL     1      -1.403 -14.238  19.171  0.00  0.00    +0.000 A 
ATOM     10  C   UNL     1       3.008 -15.225  20.957  0.00  0.00    +0.000 C 
ATOM     11  C   UNL     1      -3.017 -14.761  20.915  0.00  0.00    +0.000 A 
ATOM     12  C   UNL     1      -2.721 -14.307  19.623  0.00  0.00    +0.000 A 
ENDROOT
BRANCH   1  13
ATOM     13  C   UNL     1       1.602 -14.239  18.565  0.00  0.00    +0.000 C 
ATOM     14  C   UNL     1       2.247 -13.798  17.248  0.00  0.00    +0.000 C 
BRANCH  14  15
ATOM     15  C   UNL     1       2.891 -13.357  15.930  0.00  0.00    +0.000 C 
BRANCH  15  16
ATOM     16  C   UNL     1       3.534 -12.916  14.613  0.00  0.00    +0.000 C 
ATOM     17  C   UNL     1       4.177 -12.474  13.294  0.00  0.00    +0.000 C 
BRANCH  17  19
ATOM     18  O   UNL     1       4.799 -10.902  11.682  0.00  0.00    +0.000 OA
ATOM     19  C   UNL     1       4.777 -12.060  12.062  0.00  0.00    +0.000 C 
BRANCH  19  20
ATOM     20  O   UNL     1       5.319 -13.064  11.351  0.00  0.00    +0.000 OA
ATOM     21  H   UNL     1       6.015 -13.417  11.942  0.00  0.00    +0.000 HD
ENDBRANCH  19  20
ENDBRANCH  17  19
ENDBRANCH  15  16
ENDBRANCH  14  15
ENDBRANCH   1  13
TORSDOF 5
ENDMDL
