MODEL 1
REMARK VINA RESULT:      -4.4      0.000      0.000
REMARK  Name = 86311066_OplopantriolA.pdbqt.pdb
REMARK  12 active torsions:
REMARK  status: ('A' for Active; 'I' for Inactive)
REMARK    1  A    between atoms: C_1  and  C_3
REMARK    2  A    between atoms: C_2  and  C_13
REMARK    3  A    between atoms: C_4  and  C_5
REMARK    4  A    between atoms: C_6  and  C_7
REMARK    5  A    between atoms: C_8  and  C_9
REMARK    6  A    between atoms: C_10  and  O_11
REMARK    7  A    between atoms: C_13  and  O_14
REMARK    8  A    between atoms: C_13  and  C_16
REMARK    9  A    between atoms: C_17  and  C_18
REMARK   10  A    between atoms: C_19  and  C_20
REMARK   11  A    between atoms: C_20  and  C_21
REMARK   12  A    between atoms: C_20  and  O_23
REMARK                            x       y       z     vdW  Elec       q    Type
REMARK                         _______ _______ _______ _____ _____    ______ ____
ROOT
ATOM      1  C   UNL     1      -0.685 -14.243  19.229  0.00  0.00    +0.000 C 
ATOM      2  C   UNL     1       0.427 -13.909  18.920  0.00  0.00    +0.000 C 
ENDROOT
BRANCH   1   3
ATOM      3  C   UNL     1      -2.102 -14.669  19.624  0.00  0.00    +0.000 C 
ATOM      4  C   UNL     1      -3.519 -15.094  20.018  0.00  0.00    +0.000 C 
BRANCH   4   5
ATOM      5  C   UNL     1      -4.937 -15.518  20.414  0.00  0.00    +0.000 C 
ATOM      6  C   UNL     1      -6.354 -15.943  20.811  0.00  0.00    +0.000 C 
BRANCH   6   7
ATOM      7  C   UNL     1      -7.771 -16.368  21.207  0.00  0.00    +0.000 C 
ATOM      8  C   UNL     1      -9.188 -16.793  21.604  0.00  0.00    +0.000 C 
BRANCH   8   9
ATOM      9  C   UNL     1     -10.605 -17.218  22.001  0.00  0.00    +0.000 C 
ATOM     10  C   UNL     1     -12.022 -17.642  22.398  0.00  0.00    +0.000 C 
BRANCH  10  11
ATOM     11  O   UNL     1     -13.250 -18.011  22.742  0.00  0.00    +0.000 OA
ATOM     12  H   UNL     1     -13.644 -17.356  23.344  0.00  0.00    +0.000 HD
ENDBRANCH  10  11
ENDBRANCH   8   9
ENDBRANCH   6   7
ENDBRANCH   4   5
ENDBRANCH   1   3
BRANCH   2  13
ATOM     13  C   UNL     1       1.738 -13.516  18.556  0.00  0.00    +0.000 C 
BRANCH  13  14
ATOM     14  O   UNL     1       2.574 -13.084  19.560  0.00  0.00    +0.000 OA
ATOM     15  H   UNL     1       3.114 -13.811  19.913  0.00  0.00    +0.000 HD
ENDBRANCH  13  14
BRANCH  13  16
ATOM     16  C   UNL     1       2.227 -13.545  17.224  0.00  0.00    +0.000 C 
ATOM     17  C   UNL     1       2.641 -13.568  16.097  0.00  0.00    +0.000 C 
BRANCH  17  18
ATOM     18  C   UNL     1       3.169 -13.596  14.661  0.00  0.00    +0.000 C 
ATOM     19  C   UNL     1       3.584 -13.619  13.534  0.00  0.00    +0.000 C 
BRANCH  19  20
ATOM     20  C   UNL     1       4.076 -13.645  12.202  0.00  0.00    +0.000 C 
BRANCH  20  21
ATOM     21  C   UNL     1       5.317 -13.068  11.816  0.00  0.00    +0.000 C 
ATOM     22  C   UNL     1       6.481 -12.533  11.439  0.00  0.00    +0.000 C 
ENDBRANCH  20  21
BRANCH  20  23
ATOM     23  O   UNL     1       3.309 -14.262  11.234  0.00  0.00    +0.000 OA
ATOM     24  H   UNL     1       2.849 -13.616  10.671  0.00  0.00    +0.000 HD
ENDBRANCH  20  23
ENDBRANCH  19  20
ENDBRANCH  17  18
ENDBRANCH  13  16
ENDBRANCH   2  13
TORSDOF 12
ENDMDL
MODEL 2
REMARK VINA RESULT:      -4.3     26.698     27.818
REMARK  Name = 86311066_OplopantriolA.pdbqt.pdb
REMARK  12 active torsions:
REMARK  status: ('A' for Active; 'I' for Inactive)
REMARK    1  A    between atoms: C_1  and  C_3
REMARK    2  A    between atoms: C_2  and  C_13
REMARK    3  A    between atoms: C_4  and  C_5
REMARK    4  A    between atoms: C_6  and  C_7
REMARK    5  A    between atoms: C_8  and  C_9
REMARK    6  A    between atoms: C_10  and  O_11
REMARK    7  A    between atoms: C_13  and  O_14
REMARK    8  A    between atoms: C_13  and  C_16
REMARK    9  A    between atoms: C_17  and  C_18
REMARK   10  A    between atoms: C_19  and  C_20
REMARK   11  A    between atoms: C_20  and  C_21
REMARK   12  A    between atoms: C_20  and  O_23
REMARK                            x       y       z     vdW  Elec       q    Type
REMARK                         _______ _______ _______ _____ _____    ______ ____
ROOT
ATOM      1  C   UNL     1     -14.990  -1.464  -2.637  0.00  0.00    +0.000 C 
ATOM      2  C   UNL     1     -14.470  -2.405  -3.173  0.00  0.00    +0.000 C 
ENDROOT
BRANCH   1   3
ATOM      3  C   UNL     1     -15.653  -0.264  -1.956  0.00  0.00    +0.000 C 
ATOM      4  C   UNL     1     -16.315   0.938  -1.274  0.00  0.00    +0.000 C 
BRANCH   4   5
ATOM      5  C   UNL     1     -16.977   2.138  -0.592  0.00  0.00    +0.000 C 
ATOM      6  C   UNL     1     -17.641   3.338   0.091  0.00  0.00    +0.000 C 
BRANCH   6   7
ATOM      7  C   UNL     1     -18.305   4.538   0.773  0.00  0.00    +0.000 C 
ATOM      8  C   UNL     1     -18.968   5.738   1.455  0.00  0.00    +0.000 C 
BRANCH   8   9
ATOM      9  C   UNL     1     -19.632   6.937   2.138  0.00  0.00    +0.000 C 
ATOM     10  C   UNL     1     -20.296   8.137   2.821  0.00  0.00    +0.000 C 
BRANCH  10  11
ATOM     11  O   UNL     1     -20.872   9.177   3.413  0.00  0.00    +0.000 OA
ATOM     12  H   UNL     1     -20.306   9.964   3.339  0.00  0.00    +0.000 HD
ENDBRANCH  10  11
ENDBRANCH   8   9
ENDBRANCH   6   7
ENDBRANCH   4   5
ENDBRANCH   1   3
BRANCH   2  13
ATOM     13  C   UNL     1     -13.856  -3.515  -3.804  0.00  0.00    +0.000 C 
BRANCH  13  14
ATOM     14  O   UNL     1     -14.008  -3.635  -5.166  0.00  0.00    +0.000 OA
ATOM     15  H   UNL     1     -14.173  -2.774  -5.586  0.00  0.00    +0.000 HD
ENDBRANCH  13  14
BRANCH  13  16
ATOM     16  C   UNL     1     -13.102  -4.496  -3.111  0.00  0.00    +0.000 C 
ATOM     17  C   UNL     1     -12.464  -5.328  -2.525  0.00  0.00    +0.000 C 
BRANCH  17  18
ATOM     18  C   UNL     1     -11.652  -6.389  -1.779  0.00  0.00    +0.000 C 
ATOM     19  C   UNL     1     -11.015  -7.222  -1.193  0.00  0.00    +0.000 C 
BRANCH  19  20
ATOM     20  C   UNL     1     -10.261  -8.206  -0.500  0.00  0.00    +0.000 C 
BRANCH  20  21
ATOM     21  C   UNL     1      -8.839  -8.247  -0.503  0.00  0.00    +0.000 C 
ATOM     22  C   UNL     1      -7.504  -8.270  -0.502  0.00  0.00    +0.000 C 
ENDBRANCH  20  21
BRANCH  20  23
ATOM     23  O   UNL     1     -10.944  -9.172   0.212  0.00  0.00    +0.000 OA
ATOM     24  H   UNL     1     -11.028 -10.000  -0.291  0.00  0.00    +0.000 HD
ENDBRANCH  20  23
ENDBRANCH  19  20
ENDBRANCH  17  18
ENDBRANCH  13  16
ENDBRANCH   2  13
TORSDOF 12
ENDMDL
MODEL 3
REMARK VINA RESULT:      -4.2     13.258     14.414
REMARK  Name = 86311066_OplopantriolA.pdbqt.pdb
REMARK  12 active torsions:
REMARK  status: ('A' for Active; 'I' for Inactive)
REMARK    1  A    between atoms: C_1  and  C_3
REMARK    2  A    between atoms: C_2  and  C_13
REMARK    3  A    between atoms: C_4  and  C_5
REMARK    4  A    between atoms: C_6  and  C_7
REMARK    5  A    between atoms: C_8  and  C_9
REMARK    6  A    between atoms: C_10  and  O_11
REMARK    7  A    between atoms: C_13  and  O_14
REMARK    8  A    between atoms: C_13  and  C_16
REMARK    9  A    between atoms: C_17  and  C_18
REMARK   10  A    between atoms: C_19  and  C_20
REMARK   11  A    between atoms: C_20  and  C_21
REMARK   12  A    between atoms: C_20  and  O_23
REMARK                            x       y       z     vdW  Elec       q    Type
REMARK                         _______ _______ _______ _____ _____    ______ ____
ROOT
ATOM      1  C   UNL     1     -11.639 -16.241  10.647  0.00  0.00    +0.000 C 
ATOM      2  C   UNL     1     -10.758 -16.422   9.851  0.00  0.00    +0.000 C 
ENDROOT
BRANCH   1   3
ATOM      3  C   UNL     1     -12.760 -16.009  11.663  0.00  0.00    +0.000 C 
ATOM      4  C   UNL     1     -13.883 -15.778  12.680  0.00  0.00    +0.000 C 
BRANCH   4   5
ATOM      5  C   UNL     1     -15.006 -15.548  13.696  0.00  0.00    +0.000 C 
ATOM      6  C   UNL     1     -16.130 -15.318  14.710  0.00  0.00    +0.000 C 
BRANCH   6   7
ATOM      7  C   UNL     1     -17.254 -15.088  15.725  0.00  0.00    +0.000 C 
ATOM      8  C   UNL     1     -18.377 -14.857  16.740  0.00  0.00    +0.000 C 
BRANCH   8   9
ATOM      9  C   UNL     1     -19.500 -14.625  17.755  0.00  0.00    +0.000 C 
ATOM     10  C   UNL     1     -20.624 -14.395  18.770  0.00  0.00    +0.000 C 
BRANCH  10  11
ATOM     11  O   UNL     1     -21.597 -14.194  19.651  0.00  0.00    +0.000 OA
ATOM     12  H   UNL     1     -22.345 -13.738  19.230  0.00  0.00    +0.000 HD
ENDBRANCH  10  11
ENDBRANCH   8   9
ENDBRANCH   6   7
ENDBRANCH   4   5
ENDBRANCH   1   3
BRANCH   2  13
ATOM     13  C   UNL     1      -9.720 -16.638   8.912  0.00  0.00    +0.000 C 
BRANCH  13  14
ATOM     14  O   UNL     1      -8.606 -17.323   9.341  0.00  0.00    +0.000 OA
ATOM     15  H   UNL     1      -8.236 -17.883   8.638  0.00  0.00    +0.000 HD
ENDBRANCH  13  14
BRANCH  13  16
ATOM     16  C   UNL     1      -9.769 -16.189   7.567  0.00  0.00    +0.000 C 
ATOM     17  C   UNL     1      -9.810 -15.809   6.429  0.00  0.00    +0.000 C 
BRANCH  17  18
ATOM     18  C   UNL     1      -9.860 -15.324   4.978  0.00  0.00    +0.000 C 
ATOM     19  C   UNL     1      -9.899 -14.944   3.839  0.00  0.00    +0.000 C 
BRANCH  19  20
ATOM     20  C   UNL     1      -9.945 -14.494   2.493  0.00  0.00    +0.000 C 
BRANCH  20  21
ATOM     21  C   UNL     1      -9.597 -15.314   1.383  0.00  0.00    +0.000 C 
ATOM     22  C   UNL     1      -9.256 -16.078   0.344  0.00  0.00    +0.000 C 
ENDBRANCH  20  21
BRANCH  20  23
ATOM     23  O   UNL     1     -10.345 -13.196   2.250  0.00  0.00    +0.000 OA
ATOM     24  H   UNL     1     -10.692 -12.768   3.051  0.00  0.00    +0.000 HD
ENDBRANCH  20  23
ENDBRANCH  19  20
ENDBRANCH  17  18
ENDBRANCH  13  16
ENDBRANCH   2  13
TORSDOF 12
ENDMDL
MODEL 4
REMARK VINA RESULT:      -4.0     12.002     12.813
REMARK  Name = 86311066_OplopantriolA.pdbqt.pdb
REMARK  12 active torsions:
REMARK  status: ('A' for Active; 'I' for Inactive)
REMARK    1  A    between atoms: C_1  and  C_3
REMARK    2  A    between atoms: C_2  and  C_13
REMARK    3  A    between atoms: C_4  and  C_5
REMARK    4  A    between atoms: C_6  and  C_7
REMARK    5  A    between atoms: C_8  and  C_9
REMARK    6  A    between atoms: C_10  and  O_11
REMARK    7  A    between atoms: C_13  and  O_14
REMARK    8  A    between atoms: C_13  and  C_16
REMARK    9  A    between atoms: C_17  and  C_18
REMARK   10  A    between atoms: C_19  and  C_20
REMARK   11  A    between atoms: C_20  and  C_21
REMARK   12  A    between atoms: C_20  and  O_23
REMARK                            x       y       z     vdW  Elec       q    Type
REMARK                         _______ _______ _______ _____ _____    ______ ____
ROOT
ATOM      1  C   UNL     1      -5.293 -20.988   6.784  0.00  0.00    +0.000 C 
ATOM      2  C   UNL     1      -4.436 -21.561   6.168  0.00  0.00    +0.000 C 
ENDROOT
BRANCH   1   3
ATOM      3  C   UNL     1      -6.387 -20.259   7.569  0.00  0.00    +0.000 C 
ATOM      4  C   UNL     1      -7.481 -19.528   8.353  0.00  0.00    +0.000 C 
BRANCH   4   5
ATOM      5  C   UNL     1      -8.575 -18.797   9.137  0.00  0.00    +0.000 C 
ATOM      6  C   UNL     1      -9.668 -18.064   9.921  0.00  0.00    +0.000 C 
BRANCH   6   7
ATOM      7  C   UNL     1     -10.762 -17.332  10.705  0.00  0.00    +0.000 C 
ATOM      8  C   UNL     1     -11.855 -16.599  11.489  0.00  0.00    +0.000 C 
BRANCH   8   9
ATOM      9  C   UNL     1     -12.948 -15.868  12.273  0.00  0.00    +0.000 C 
ATOM     10  C   UNL     1     -14.042 -15.138  13.058  0.00  0.00    +0.000 C 
BRANCH  10  11
ATOM     11  O   UNL     1     -14.989 -14.504  13.739  0.00  0.00    +0.000 OA
ATOM     12  H   UNL     1     -15.708 -14.231  13.144  0.00  0.00    +0.000 HD
ENDBRANCH  10  11
ENDBRANCH   8   9
ENDBRANCH   6   7
ENDBRANCH   4   5
ENDBRANCH   1   3
BRANCH   2  13
ATOM     13  C   UNL     1      -3.424 -22.234   5.441  0.00  0.00    +0.000 C 
BRANCH  13  14
ATOM     14  O   UNL     1      -3.614 -23.572   5.177  0.00  0.00    +0.000 OA
ATOM     15  H   UNL     1      -4.394 -23.718   4.616  0.00  0.00    +0.000 HD
ENDBRANCH  13  14
BRANCH  13  16
ATOM     16  C   UNL     1      -2.239 -21.608   4.977  0.00  0.00    +0.000 C 
ATOM     17  C   UNL     1      -1.236 -21.077   4.585  0.00  0.00    +0.000 C 
BRANCH  17  18
ATOM     18  C   UNL     1       0.043 -20.399   4.087  0.00  0.00    +0.000 C 
ATOM     19  C   UNL     1       1.046 -19.866   3.696  0.00  0.00    +0.000 C 
BRANCH  19  20
ATOM     20  C   UNL     1       2.232 -19.238   3.233  0.00  0.00    +0.000 C 
BRANCH  20  21
ATOM     21  C   UNL     1       3.499 -19.404   3.857  0.00  0.00    +0.000 C 
ATOM     22  C   UNL     1       4.696 -19.554   4.430  0.00  0.00    +0.000 C 
ENDBRANCH  20  21
BRANCH  20  23
ATOM     23  O   UNL     1       2.150 -18.424   2.121  0.00  0.00    +0.000 OA
ATOM     24  H   UNL     1       1.977 -17.498   2.363  0.00  0.00    +0.000 HD
ENDBRANCH  20  23
ENDBRANCH  19  20
ENDBRANCH  17  18
ENDBRANCH  13  16
ENDBRANCH   2  13
TORSDOF 12
ENDMDL
MODEL 5
REMARK VINA RESULT:      -3.9      5.364      6.915
REMARK  Name = 86311066_OplopantriolA.pdbqt.pdb
REMARK  12 active torsions:
REMARK  status: ('A' for Active; 'I' for Inactive)
REMARK    1  A    between atoms: C_1  and  C_3
REMARK    2  A    between atoms: C_2  and  C_13
REMARK    3  A    between atoms: C_4  and  C_5
REMARK    4  A    between atoms: C_6  and  C_7
REMARK    5  A    between atoms: C_8  and  C_9
REMARK    6  A    between atoms: C_10  and  O_11
REMARK    7  A    between atoms: C_13  and  O_14
REMARK    8  A    between atoms: C_13  and  C_16
REMARK    9  A    between atoms: C_17  and  C_18
REMARK   10  A    between atoms: C_19  and  C_20
REMARK   11  A    between atoms: C_20  and  C_21
REMARK   12  A    between atoms: C_20  and  O_23
REMARK                            x       y       z     vdW  Elec       q    Type
REMARK                         _______ _______ _______ _____ _____    ______ ____
ROOT
ATOM      1  C   UNL     1       0.273 -12.593  20.680  0.00  0.00    +0.000 C 
ATOM      2  C   UNL     1       1.329 -12.022  20.728  0.00  0.00    +0.000 C 
ENDROOT
BRANCH   1   3
ATOM      3  C   UNL     1      -1.073 -13.319  20.618  0.00  0.00    +0.000 C 
ATOM      4  C   UNL     1      -2.420 -14.046  20.556  0.00  0.00    +0.000 C 
BRANCH   4   5
ATOM      5  C   UNL     1      -3.767 -14.773  20.493  0.00  0.00    +0.000 C 
ATOM      6  C   UNL     1      -5.114 -15.499  20.428  0.00  0.00    +0.000 C 
BRANCH   6   7
ATOM      7  C   UNL     1      -6.461 -16.225  20.364  0.00  0.00    +0.000 C 
ATOM      8  C   UNL     1      -7.808 -16.951  20.300  0.00  0.00    +0.000 C 
BRANCH   8   9
ATOM      9  C   UNL     1      -9.156 -17.676  20.235  0.00  0.00    +0.000 C 
ATOM     10  C   UNL     1     -10.504 -18.401  20.170  0.00  0.00    +0.000 C 
BRANCH  10  11
ATOM     11  O   UNL     1     -11.672 -19.029  20.113  0.00  0.00    +0.000 OA
ATOM     12  H   UNL     1     -12.378 -18.463  20.467  0.00  0.00    +0.000 HD
ENDBRANCH  10  11
ENDBRANCH   8   9
ENDBRANCH   6   7
ENDBRANCH   4   5
ENDBRANCH   1   3
BRANCH   2  13
ATOM     13  C   UNL     1       2.573 -11.348  20.785  0.00  0.00    +0.000 C 
BRANCH  13  14
ATOM     14  O   UNL     1       3.705 -12.116  20.940  0.00  0.00    +0.000 OA
ATOM     15  H   UNL     1       4.352 -11.946  20.236  0.00  0.00    +0.000 HD
ENDBRANCH  13  14
BRANCH  13  16
ATOM     16  C   UNL     1       2.711  -9.939  20.692  0.00  0.00    +0.000 C 
ATOM     17  C   UNL     1       2.826  -8.747  20.613  0.00  0.00    +0.000 C 
BRANCH  17  18
ATOM     18  C   UNL     1       2.971  -7.227  20.513  0.00  0.00    +0.000 C 
ATOM     19  C   UNL     1       3.085  -6.034  20.433  0.00  0.00    +0.000 C 
BRANCH  19  20
ATOM     20  C   UNL     1       3.220  -4.623  20.340  0.00  0.00    +0.000 C 
BRANCH  20  21
ATOM     21  C   UNL     1       4.253  -3.893  20.990  0.00  0.00    +0.000 C 
ATOM     22  C   UNL     1       5.222  -3.197  21.589  0.00  0.00    +0.000 C 
ENDBRANCH  20  21
BRANCH  20  23
ATOM     23  O   UNL     1       2.303  -3.926  19.580  0.00  0.00    +0.000 OA
ATOM     24  H   UNL     1       2.039  -3.093  20.006  0.00  0.00    +0.000 HD
ENDBRANCH  20  23
ENDBRANCH  19  20
ENDBRANCH  17  18
ENDBRANCH  13  16
ENDBRANCH   2  13
TORSDOF 12
ENDMDL
MODEL 6
REMARK VINA RESULT:      -3.9     24.680     26.698
REMARK  Name = 86311066_OplopantriolA.pdbqt.pdb
REMARK  12 active torsions:
REMARK  status: ('A' for Active; 'I' for Inactive)
REMARK    1  A    between atoms: C_1  and  C_3
REMARK    2  A    between atoms: C_2  and  C_13
REMARK    3  A    between atoms: C_4  and  C_5
REMARK    4  A    between atoms: C_6  and  C_7
REMARK    5  A    between atoms: C_8  and  C_9
REMARK    6  A    between atoms: C_10  and  O_11
REMARK    7  A    between atoms: C_13  and  O_14
REMARK    8  A    between atoms: C_13  and  C_16
REMARK    9  A    between atoms: C_17  and  C_18
REMARK   10  A    between atoms: C_19  and  C_20
REMARK   11  A    between atoms: C_20  and  C_21
REMARK   12  A    between atoms: C_20  and  O_23
REMARK                            x       y       z     vdW  Elec       q    Type
REMARK                         _______ _______ _______ _____ _____    ______ ____
ROOT
ATOM      1  C   UNL     1     -20.355   1.248  10.659  0.00  0.00    +0.000 C 
ATOM      2  C   UNL     1     -21.004   0.679   9.823  0.00  0.00    +0.000 C 
ENDROOT
BRANCH   1   3
ATOM      3  C   UNL     1     -19.529   1.974  11.724  0.00  0.00    +0.000 C 
ATOM      4  C   UNL     1     -18.702   2.699  12.790  0.00  0.00    +0.000 C 
BRANCH   4   5
ATOM      5  C   UNL     1     -17.876   3.424  13.857  0.00  0.00    +0.000 C 
ATOM      6  C   UNL     1     -17.049   4.147  14.924  0.00  0.00    +0.000 C 
BRANCH   6   7
ATOM      7  C   UNL     1     -16.223   4.871  15.991  0.00  0.00    +0.000 C 
ATOM      8  C   UNL     1     -15.396   5.595  17.059  0.00  0.00    +0.000 C 
BRANCH   8   9
ATOM      9  C   UNL     1     -14.571   6.319  18.127  0.00  0.00    +0.000 C 
ATOM     10  C   UNL     1     -13.746   7.043  19.195  0.00  0.00    +0.000 C 
BRANCH  10  11
ATOM     11  O   UNL     1     -13.031   7.670  20.121  0.00  0.00    +0.000 OA
ATOM     12  H   UNL     1     -13.035   8.629  19.959  0.00  0.00    +0.000 HD
ENDBRANCH  10  11
ENDBRANCH   8   9
ENDBRANCH   6   7
ENDBRANCH   4   5
ENDBRANCH   1   3
BRANCH   2  13
ATOM     13  C   UNL     1     -21.768   0.009   8.837  0.00  0.00    +0.000 C 
BRANCH  13  14
ATOM     14  O   UNL     1     -22.416   0.782   7.900  0.00  0.00    +0.000 OA
ATOM     15  H   UNL     1     -21.989   1.648   7.794  0.00  0.00    +0.000 HD
ENDBRANCH  13  14
BRANCH  13  16
ATOM     16  C   UNL     1     -21.898  -1.402   8.766  0.00  0.00    +0.000 C 
ATOM     17  C   UNL     1     -22.008  -2.596   8.705  0.00  0.00    +0.000 C 
BRANCH  17  18
ATOM     18  C   UNL     1     -22.150  -4.118   8.626  0.00  0.00    +0.000 C 
ATOM     19  C   UNL     1     -22.261  -5.312   8.564  0.00  0.00    +0.000 C 
BRANCH  19  20
ATOM     20  C   UNL     1     -22.393  -6.724   8.492  0.00  0.00    +0.000 C 
BRANCH  20  21
ATOM     21  C   UNL     1     -23.185  -7.385   7.512  0.00  0.00    +0.000 C 
ATOM     22  C   UNL     1     -23.939  -8.009   6.604  0.00  0.00    +0.000 C 
ENDBRANCH  20  21
BRANCH  20  23
ATOM     23  O   UNL     1     -21.721  -7.494   9.419  0.00  0.00    +0.000 OA
ATOM     24  H   UNL     1     -21.853  -7.166  10.326  0.00  0.00    +0.000 HD
ENDBRANCH  20  23
ENDBRANCH  19  20
ENDBRANCH  17  18
ENDBRANCH  13  16
ENDBRANCH   2  13
TORSDOF 12
ENDMDL
MODEL 7
REMARK VINA RESULT:      -3.7     24.802     25.902
REMARK  Name = 86311066_OplopantriolA.pdbqt.pdb
REMARK  12 active torsions:
REMARK  status: ('A' for Active; 'I' for Inactive)
REMARK    1  A    between atoms: C_1  and  C_3
REMARK    2  A    between atoms: C_2  and  C_13
REMARK    3  A    between atoms: C_4  and  C_5
REMARK    4  A    between atoms: C_6  and  C_7
REMARK    5  A    between atoms: C_8  and  C_9
REMARK    6  A    between atoms: C_10  and  O_11
REMARK    7  A    between atoms: C_13  and  O_14
REMARK    8  A    between atoms: C_13  and  C_16
REMARK    9  A    between atoms: C_17  and  C_18
REMARK   10  A    between atoms: C_19  and  C_20
REMARK   11  A    between atoms: C_20  and  C_21
REMARK   12  A    between atoms: C_20  and  O_23
REMARK                            x       y       z     vdW  Elec       q    Type
REMARK                         _______ _______ _______ _____ _____    ______ ____
ROOT
ATOM      1  C   UNL     1      -9.743   4.476   1.849  0.00  0.00    +0.000 C 
ATOM      2  C   UNL     1      -8.958   3.846   1.192  0.00  0.00    +0.000 C 
ENDROOT
BRANCH   1   3
ATOM      3  C   UNL     1     -10.744   5.277   2.685  0.00  0.00    +0.000 C 
ATOM      4  C   UNL     1     -11.745   6.079   3.522  0.00  0.00    +0.000 C 
BRANCH   4   5
ATOM      5  C   UNL     1     -12.746   6.880   4.360  0.00  0.00    +0.000 C 
ATOM      6  C   UNL     1     -13.747   7.680   5.199  0.00  0.00    +0.000 C 
BRANCH   6   7
ATOM      7  C   UNL     1     -14.748   8.480   6.038  0.00  0.00    +0.000 C 
ATOM      8  C   UNL     1     -15.750   9.281   6.876  0.00  0.00    +0.000 C 
BRANCH   8   9
ATOM      9  C   UNL     1     -16.752  10.081   7.713  0.00  0.00    +0.000 C 
ATOM     10  C   UNL     1     -17.754  10.881   8.551  0.00  0.00    +0.000 C 
BRANCH  10  11
ATOM     11  O   UNL     1     -18.623  11.574   9.277  0.00  0.00    +0.000 OA
ATOM     12  H   UNL     1     -19.427  11.755   8.761  0.00  0.00    +0.000 HD
ENDBRANCH  10  11
ENDBRANCH   8   9
ENDBRANCH   6   7
ENDBRANCH   4   5
ENDBRANCH   1   3
BRANCH   2  13
ATOM     13  C   UNL     1      -8.033   3.105   0.417  0.00  0.00    +0.000 C 
BRANCH  13  14
ATOM     14  O   UNL     1      -7.910   3.435  -0.914  0.00  0.00    +0.000 OA
ATOM     15  H   UNL     1      -8.627   4.022  -1.205  0.00  0.00    +0.000 HD
ENDBRANCH  13  14
BRANCH  13  16
ATOM     16  C   UNL     1      -7.235   2.053   0.937  0.00  0.00    +0.000 C 
ATOM     17  C   UNL     1      -6.561   1.163   1.376  0.00  0.00    +0.000 C 
BRANCH  17  18
ATOM     18  C   UNL     1      -5.702   0.025   1.936  0.00  0.00    +0.000 C 
ATOM     19  C   UNL     1      -5.029  -0.867   2.374  0.00  0.00    +0.000 C 
BRANCH  19  20
ATOM     20  C   UNL     1      -4.233  -1.921   2.894  0.00  0.00    +0.000 C 
BRANCH  20  21
ATOM     21  C   UNL     1      -3.373  -1.771   4.018  0.00  0.00    +0.000 C 
ATOM     22  C   UNL     1      -2.557  -1.641   5.066  0.00  0.00    +0.000 C 
ENDBRANCH  20  21
BRANCH  20  23
ATOM     23  O   UNL     1      -4.296  -3.155   2.278  0.00  0.00    +0.000 OA
ATOM     24  H   UNL     1      -4.400  -3.073   1.314  0.00  0.00    +0.000 HD
ENDBRANCH  20  23
ENDBRANCH  19  20
ENDBRANCH  17  18
ENDBRANCH  13  16
ENDBRANCH   2  13
TORSDOF 12
ENDMDL
MODEL 8
REMARK VINA RESULT:      -3.7     24.504     27.082
REMARK  Name = 86311066_OplopantriolA.pdbqt.pdb
REMARK  12 active torsions:
REMARK  status: ('A' for Active; 'I' for Inactive)
REMARK    1  A    between atoms: C_1  and  C_3
REMARK    2  A    between atoms: C_2  and  C_13
REMARK    3  A    between atoms: C_4  and  C_5
REMARK    4  A    between atoms: C_6  and  C_7
REMARK    5  A    between atoms: C_8  and  C_9
REMARK    6  A    between atoms: C_10  and  O_11
REMARK    7  A    between atoms: C_13  and  O_14
REMARK    8  A    between atoms: C_13  and  C_16
REMARK    9  A    between atoms: C_17  and  C_18
REMARK   10  A    between atoms: C_19  and  C_20
REMARK   11  A    between atoms: C_20  and  C_21
REMARK   12  A    between atoms: C_20  and  O_23
REMARK                            x       y       z     vdW  Elec       q    Type
REMARK                         _______ _______ _______ _____ _____    ______ ____
ROOT
ATOM      1  C   UNL     1     -19.613  -8.690   0.924  0.00  0.00    +0.000 C 
ATOM      2  C   UNL     1     -19.571  -9.861   1.184  0.00  0.00    +0.000 C 
ENDROOT
BRANCH   1   3
ATOM      3  C   UNL     1     -19.666  -7.196   0.590  0.00  0.00    +0.000 C 
ATOM      4  C   UNL     1     -19.720  -5.703   0.255  0.00  0.00    +0.000 C 
BRANCH   4   5
ATOM      5  C   UNL     1     -19.774  -4.209  -0.080  0.00  0.00    +0.000 C 
ATOM      6  C   UNL     1     -19.825  -2.715  -0.416  0.00  0.00    +0.000 C 
BRANCH   6   7
ATOM      7  C   UNL     1     -19.877  -1.222  -0.751  0.00  0.00    +0.000 C 
ATOM      8  C   UNL     1     -19.930   0.272  -1.087  0.00  0.00    +0.000 C 
BRANCH   8   9
ATOM      9  C   UNL     1     -19.982   1.765  -1.423  0.00  0.00    +0.000 C 
ATOM     10  C   UNL     1     -20.035   3.258  -1.759  0.00  0.00    +0.000 C 
BRANCH  10  11
ATOM     11  O   UNL     1     -20.080   4.553  -2.051  0.00  0.00    +0.000 OA
ATOM     12  H   UNL     1     -19.395   5.035  -1.558  0.00  0.00    +0.000 HD
ENDBRANCH  10  11
ENDBRANCH   8   9
ENDBRANCH   6   7
ENDBRANCH   4   5
ENDBRANCH   1   3
BRANCH   2  13
ATOM     13  C   UNL     1     -19.521 -11.243   1.493  0.00  0.00    +0.000 C 
BRANCH  13  14
ATOM     14  O   UNL     1     -19.948 -12.126   0.528  0.00  0.00    +0.000 OA
ATOM     15  H   UNL     1     -19.332 -12.162  -0.223  0.00  0.00    +0.000 HD
ENDBRANCH  13  14
BRANCH  13  16
ATOM     16  C   UNL     1     -19.057 -11.756   2.732  0.00  0.00    +0.000 C 
ATOM     17  C   UNL     1     -18.665 -12.191   3.780  0.00  0.00    +0.000 C 
BRANCH  17  18
ATOM     18  C   UNL     1     -18.166 -12.747   5.116  0.00  0.00    +0.000 C 
ATOM     19  C   UNL     1     -17.775 -13.184   6.164  0.00  0.00    +0.000 C 
BRANCH  19  20
ATOM     20  C   UNL     1     -17.314 -13.701   7.403  0.00  0.00    +0.000 C 
BRANCH  20  21
ATOM     21  C   UNL     1     -16.253 -14.643   7.510  0.00  0.00    +0.000 C 
ATOM     22  C   UNL     1     -15.268 -15.539   7.611  0.00  0.00    +0.000 C 
ENDBRANCH  20  21
BRANCH  20  23
ATOM     23  O   UNL     1     -17.926 -13.268   8.562  0.00  0.00    +0.000 OA
ATOM     24  H   UNL     1     -18.754 -12.792   8.378  0.00  0.00    +0.000 HD
ENDBRANCH  20  23
ENDBRANCH  19  20
ENDBRANCH  17  18
ENDBRANCH  13  16
ENDBRANCH   2  13
TORSDOF 12
ENDMDL
MODEL 9
REMARK VINA RESULT:      -3.6     13.839     15.203
REMARK  Name = 86311066_OplopantriolA.pdbqt.pdb
REMARK  12 active torsions:
REMARK  status: ('A' for Active; 'I' for Inactive)
REMARK    1  A    between atoms: C_1  and  C_3
REMARK    2  A    between atoms: C_2  and  C_13
REMARK    3  A    between atoms: C_4  and  C_5
REMARK    4  A    between atoms: C_6  and  C_7
REMARK    5  A    between atoms: C_8  and  C_9
REMARK    6  A    between atoms: C_10  and  O_11
REMARK    7  A    between atoms: C_13  and  O_14
REMARK    8  A    between atoms: C_13  and  C_16
REMARK    9  A    between atoms: C_17  and  C_18
REMARK   10  A    between atoms: C_19  and  C_20
REMARK   11  A    between atoms: C_20  and  C_21
REMARK   12  A    between atoms: C_20  and  O_23
REMARK                            x       y       z     vdW  Elec       q    Type
REMARK                         _______ _______ _______ _____ _____    ______ ____
ROOT
ATOM      1  C   UNL     1     -11.148 -16.527   9.448  0.00  0.00    +0.000 C 
ATOM      2  C   UNL     1     -10.753 -16.339   8.329  0.00  0.00    +0.000 C 
ENDROOT
BRANCH   1   3
ATOM      3  C   UNL     1     -11.650 -16.765  10.874  0.00  0.00    +0.000 C 
ATOM      4  C   UNL     1     -12.153 -17.002  12.301  0.00  0.00    +0.000 C 
BRANCH   4   5
ATOM      5  C   UNL     1     -12.655 -17.238  13.729  0.00  0.00    +0.000 C 
ATOM      6  C   UNL     1     -13.159 -17.473  15.156  0.00  0.00    +0.000 C 
BRANCH   6   7
ATOM      7  C   UNL     1     -13.662 -17.709  16.584  0.00  0.00    +0.000 C 
ATOM      8  C   UNL     1     -14.165 -17.944  18.011  0.00  0.00    +0.000 C 
BRANCH   8   9
ATOM      9  C   UNL     1     -14.667 -18.180  19.439  0.00  0.00    +0.000 C 
ATOM     10  C   UNL     1     -15.168 -18.416  20.867  0.00  0.00    +0.000 C 
BRANCH  10  11
ATOM     11  O   UNL     1     -15.603 -18.620  22.104  0.00  0.00    +0.000 OA
ATOM     12  H   UNL     1     -14.856 -18.649  22.725  0.00  0.00    +0.000 HD
ENDBRANCH  10  11
ENDBRANCH   8   9
ENDBRANCH   6   7
ENDBRANCH   4   5
ENDBRANCH   1   3
BRANCH   2  13
ATOM     13  C   UNL     1     -10.287 -16.120   7.009  0.00  0.00    +0.000 C 
BRANCH  13  14
ATOM     14  O   UNL     1      -9.037 -16.598   6.689  0.00  0.00    +0.000 OA
ATOM     15  H   UNL     1      -8.336 -15.992   6.983  0.00  0.00    +0.000 HD
ENDBRANCH  13  14
BRANCH  13  16
ATOM     16  C   UNL     1     -11.036 -15.441   6.013  0.00  0.00    +0.000 C 
ATOM     17  C   UNL     1     -11.669 -14.866   5.171  0.00  0.00    +0.000 C 
BRANCH  17  18
ATOM     18  C   UNL     1     -12.474 -14.131   4.097  0.00  0.00    +0.000 C 
ATOM     19  C   UNL     1     -13.107 -13.554   3.254  0.00  0.00    +0.000 C 
BRANCH  19  20
ATOM     20  C   UNL     1     -13.853 -12.872   2.257  0.00  0.00    +0.000 C 
BRANCH  20  21
ATOM     21  C   UNL     1     -13.301 -11.861   1.423  0.00  0.00    +0.000 C 
ATOM     22  C   UNL     1     -12.769 -10.915   0.645  0.00  0.00    +0.000 C 
ENDBRANCH  20  21
BRANCH  20  23
ATOM     23  O   UNL     1     -15.182 -13.207   2.091  0.00  0.00    +0.000 OA
ATOM     24  H   UNL     1     -15.367 -14.114   2.390  0.00  0.00    +0.000 HD
ENDBRANCH  20  23
ENDBRANCH  19  20
ENDBRANCH  17  18
ENDBRANCH  13  16
ENDBRANCH   2  13
TORSDOF 12
ENDMDL
