MODEL 1
REMARK VINA RESULT:      -7.4      0.000      0.000
REMARK  Name = 91746246_sitosterol.pdbqt.pdb
REMARK  10 active torsions:
REMARK  status: ('A' for Active; 'I' for Inactive)
REMARK    1  A    between atoms: C_5  and  C_20
REMARK    2  A    between atoms: C_19  and  O_30
REMARK    3  A    between atoms: C_20  and  C_22
REMARK    4  A    between atoms: C_23  and  C_24
REMARK    5  A    between atoms: C_24  and  C_28
REMARK    6  A    between atoms: O_30  and  C_32
REMARK    7  A    between atoms: C_32  and  C_33
REMARK    8  A    between atoms: C_34  and  C_35
REMARK    9  A    between atoms: C_38  and  O_41
REMARK   10  A    between atoms: C_40  and  O_43
REMARK                            x       y       z     vdW  Elec       q    Type
REMARK                         _______ _______ _______ _____ _____    ______ ____
ROOT
ATOM      1  C   UNL     1      -9.539  -6.855  27.390  0.00  0.00    +0.000 C 
ATOM      2  C   UNL     1     -10.758  -6.963  26.326  0.00  0.00    +0.000 C 
ATOM      3  C   UNL     1     -10.849  -6.089  25.139  0.00  0.00    +0.000 C 
ATOM      4  C   UNL     1      -9.754  -5.195  24.612  0.00  0.00    +0.000 C 
ATOM      5  C   UNL     1      -9.187  -8.313  27.658  0.00  0.00    +0.000 C 
ATOM      6  C   UNL     1      -8.508  -6.089  26.691  0.00  0.00    +0.000 C 
ATOM      7  C   UNL     1      -9.925  -4.256  23.390  0.00  0.00    +0.000 C 
ATOM      8  C   UNL     1     -11.120  -8.344  26.233  0.00  0.00    +0.000 C 
ATOM      9  C   UNL     1      -8.587  -5.286  25.416  0.00  0.00    +0.000 C 
ATOM     10  C   UNL     1     -10.140  -9.166  27.026  0.00  0.00    +0.000 C 
ATOM     11  C   UNL     1     -11.972  -6.141  24.278  0.00  0.00    +0.000 C 
ATOM     12  C   UNL     1     -10.107  -6.171  28.661  0.00  0.00    +0.000 C 
ATOM     13  C   UNL     1     -11.216  -4.627  22.432  0.00  0.00    +0.000 C 
ATOM     14  C   UNL     1      -8.756  -4.381  22.470  0.00  0.00    +0.000 C 
ATOM     15  C   UNL     1     -12.097  -5.412  22.974  0.00  0.00    +0.000 C 
ATOM     16  C   UNL     1     -10.125  -2.794  23.888  0.00  0.00    +0.000 C 
ATOM     17  C   UNL     1     -10.913  -4.826  21.033  0.00  0.00    +0.000 C 
ATOM     18  C   UNL     1      -8.609  -4.662  20.965  0.00  0.00    +0.000 C 
ATOM     19  C   UNL     1      -9.773  -4.896  20.157  0.00  0.00    +0.000 C 
ENDROOT
BRANCH   5  20
ATOM     20  C   UNL     1      -8.214  -8.742  28.610  0.00  0.00    +0.000 C 
ATOM     21  C   UNL     1      -8.550  -9.680  29.738  0.00  0.00    +0.000 C 
BRANCH  20  22
ATOM     22  C   UNL     1      -6.941  -8.112  28.690  0.00  0.00    +0.000 C 
ATOM     23  C   UNL     1      -5.565  -7.434  28.778  0.00  0.00    +0.000 C 
BRANCH  23  24
ATOM     24  C   UNL     1      -4.285  -6.809  28.877  0.00  0.00    +0.000 C 
ATOM     25  C   UNL     1      -3.083  -7.590  29.080  0.00  0.00    +0.000 C 
ATOM     26  C   UNL     1      -1.709  -6.976  29.233  0.00  0.00    +0.000 C 
ATOM     27  C   UNL     1      -3.093  -9.103  29.155  0.00  0.00    +0.000 C 
BRANCH  24  28
ATOM     28  C   UNL     1      -4.188  -5.395  28.775  0.00  0.00    +0.000 C 
ATOM     29  C   UNL     1      -4.025  -3.873  28.704  0.00  0.00    +0.000 C 
ENDBRANCH  24  28
ENDBRANCH  23  24
ENDBRANCH  20  22
ENDBRANCH   5  20
BRANCH  19  30
ATOM     30  O   UNL     1      -9.880  -4.338  18.886  0.00  0.00    +0.000 OA
BRANCH  30  32
ATOM     31  O   UNL     1     -11.661  -2.915  18.429  0.00  0.00    +0.000 OA
ATOM     32  C   UNL     1     -10.565  -3.158  18.911  0.00  0.00    +0.000 C 
BRANCH  32  33
ATOM     33  C   UNL     1      -9.844  -2.144  19.640  0.00  0.00    +0.000 C 
ATOM     34  C   UNL     1      -9.250  -1.306  20.264  0.00  0.00    +0.000 C 
BRANCH  34  35
ATOM     35  C   UNL     1      -8.551  -0.320  21.021  0.00  0.00    +0.000 A 
ATOM     36  C   UNL     1      -7.593  -0.714  21.954  0.00  0.00    +0.000 A 
ATOM     37  C   UNL     1      -8.830   1.031  20.833  0.00  0.00    +0.000 A 
ATOM     38  C   UNL     1      -6.902   0.236  22.709  0.00  0.00    +0.000 A 
ATOM     39  C   UNL     1      -8.148   1.990  21.579  0.00  0.00    +0.000 A 
ATOM     40  C   UNL     1      -7.192   1.589  22.511  0.00  0.00    +0.000 A 
BRANCH  38  41
ATOM     41  O   UNL     1      -5.946  -0.067  23.648  0.00  0.00    +0.000 OA
ATOM     42  C   UNL     1      -6.078  -1.323  24.262  0.00  0.00    +0.000 C 
ENDBRANCH  38  41
BRANCH  40  43
ATOM     43  O   UNL     1      -6.528   2.535  23.243  0.00  0.00    +0.000 OA
ATOM     44  H   UNL     1      -5.572   2.454  23.064  0.00  0.00    +0.000 HD
ENDBRANCH  40  43
ENDBRANCH  34  35
ENDBRANCH  32  33
ENDBRANCH  30  32
ENDBRANCH  19  30
TORSDOF 10
ENDMDL
MODEL 2
REMARK VINA RESULT:      -7.3      3.999      8.711
REMARK  Name = 91746246_sitosterol.pdbqt.pdb
REMARK  10 active torsions:
REMARK  status: ('A' for Active; 'I' for Inactive)
REMARK    1  A    between atoms: C_5  and  C_20
REMARK    2  A    between atoms: C_19  and  O_30
REMARK    3  A    between atoms: C_20  and  C_22
REMARK    4  A    between atoms: C_23  and  C_24
REMARK    5  A    between atoms: C_24  and  C_28
REMARK    6  A    between atoms: O_30  and  C_32
REMARK    7  A    between atoms: C_32  and  C_33
REMARK    8  A    between atoms: C_34  and  C_35
REMARK    9  A    between atoms: C_38  and  O_41
REMARK   10  A    between atoms: C_40  and  O_43
REMARK                            x       y       z     vdW  Elec       q    Type
REMARK                         _______ _______ _______ _____ _____    ______ ____
ROOT
ATOM      1  C   UNL     1      -8.298  -2.100  22.279  0.00  0.00    +0.000 C 
ATOM      2  C   UNL     1      -8.412  -0.573  21.749  0.00  0.00    +0.000 C 
ATOM      3  C   UNL     1      -7.316   0.403  21.915  0.00  0.00    +0.000 C 
ATOM      4  C   UNL     1      -5.903   0.085  22.337  0.00  0.00    +0.000 C 
ATOM      5  C   UNL     1      -8.887  -2.908  21.128  0.00  0.00    +0.000 C 
ATOM      6  C   UNL     1      -6.869  -2.305  22.509  0.00  0.00    +0.000 C 
ATOM      7  C   UNL     1      -4.805   1.160  22.548  0.00  0.00    +0.000 C 
ATOM      8  C   UNL     1      -9.175  -0.598  20.540  0.00  0.00    +0.000 C 
ATOM      9  C   UNL     1      -5.739  -1.307  22.569  0.00  0.00    +0.000 C 
ATOM     10  C   UNL     1      -9.438  -2.028  20.151  0.00  0.00    +0.000 C 
ATOM     11  C   UNL     1      -7.477   1.756  21.527  0.00  0.00    +0.000 C 
ATOM     12  C   UNL     1      -9.183  -2.206  23.550  0.00  0.00    +0.000 C 
ATOM     13  C   UNL     1      -5.148   2.615  21.850  0.00  0.00    +0.000 C 
ATOM     14  C   UNL     1      -3.533   0.742  21.888  0.00  0.00    +0.000 C 
ATOM     15  C   UNL     1      -6.389   2.787  21.513  0.00  0.00    +0.000 C 
ATOM     16  C   UNL     1      -4.619   1.413  24.073  0.00  0.00    +0.000 C 
ATOM     17  C   UNL     1      -4.133   3.126  20.955  0.00  0.00    +0.000 C 
ATOM     18  C   UNL     1      -2.584   1.413  20.882  0.00  0.00    +0.000 C 
ATOM     19  C   UNL     1      -2.884   2.720  20.367  0.00  0.00    +0.000 C 
ENDROOT
BRANCH   5  20
ATOM     20  C   UNL     1      -9.087  -4.321  21.159  0.00  0.00    +0.000 C 
ATOM     21  C   UNL     1      -8.988  -5.174  19.922  0.00  0.00    +0.000 C 
BRANCH  20  22
ATOM     22  C   UNL     1      -9.634  -4.959  22.307  0.00  0.00    +0.000 C 
ATOM     23  C   UNL     1     -10.223  -5.650  23.546  0.00  0.00    +0.000 C 
BRANCH  23  24
ATOM     24  C   UNL     1     -10.768  -6.307  24.690  0.00  0.00    +0.000 C 
ATOM     25  C   UNL     1     -12.175  -6.205  25.014  0.00  0.00    +0.000 C 
ATOM     26  C   UNL     1     -12.796  -6.847  26.235  0.00  0.00    +0.000 C 
ATOM     27  C   UNL     1     -13.160  -5.445  24.151  0.00  0.00    +0.000 C 
BRANCH  24  28
ATOM     28  C   UNL     1      -9.914  -7.074  25.528  0.00  0.00    +0.000 C 
ATOM     29  C   UNL     1      -8.982  -7.946  26.378  0.00  0.00    +0.000 C 
ENDBRANCH  24  28
ENDBRANCH  23  24
ENDBRANCH  20  22
ENDBRANCH   5  20
BRANCH  19  30
ATOM     30  O   UNL     1      -1.881   3.674  20.220  0.00  0.00    +0.000 OA
BRANCH  30  32
ATOM     31  O   UNL     1      -0.850   4.218  18.208  0.00  0.00    +0.000 OA
ATOM     32  C   UNL     1      -1.824   4.151  18.942  0.00  0.00    +0.000 C 
BRANCH  32  33
ATOM     33  C   UNL     1      -3.122   4.576  18.479  0.00  0.00    +0.000 C 
ATOM     34  C   UNL     1      -4.211   4.926  18.109  0.00  0.00    +0.000 C 
BRANCH  34  35
ATOM     35  C   UNL     1      -5.510   5.334  17.687  0.00  0.00    +0.000 A 
ATOM     36  C   UNL     1      -6.623   4.574  18.042  0.00  0.00    +0.000 A 
ATOM     37  C   UNL     1      -5.665   6.484  16.917  0.00  0.00    +0.000 A 
ATOM     38  C   UNL     1      -7.905   4.954  17.634  0.00  0.00    +0.000 A 
ATOM     39  C   UNL     1      -6.936   6.874  16.503  0.00  0.00    +0.000 A 
ATOM     40  C   UNL     1      -8.046   6.110  16.861  0.00  0.00    +0.000 A 
BRANCH  38  41
ATOM     41  O   UNL     1      -9.051   4.262  17.939  0.00  0.00    +0.000 OA
ATOM     42  C   UNL     1      -9.197   3.020  17.300  0.00  0.00    +0.000 C 
ENDBRANCH  38  41
BRANCH  40  43
ATOM     43  O   UNL     1      -9.291   6.498  16.450  0.00  0.00    +0.000 OA
ATOM     44  H   UNL     1      -9.198   7.060  15.658  0.00  0.00    +0.000 HD
ENDBRANCH  40  43
ENDBRANCH  34  35
ENDBRANCH  32  33
ENDBRANCH  30  32
ENDBRANCH  19  30
TORSDOF 10
ENDMDL
MODEL 3
REMARK VINA RESULT:      -6.8     13.829     15.802
REMARK  Name = 91746246_sitosterol.pdbqt.pdb
REMARK  10 active torsions:
REMARK  status: ('A' for Active; 'I' for Inactive)
REMARK    1  A    between atoms: C_5  and  C_20
REMARK    2  A    between atoms: C_19  and  O_30
REMARK    3  A    between atoms: C_20  and  C_22
REMARK    4  A    between atoms: C_23  and  C_24
REMARK    5  A    between atoms: C_24  and  C_28
REMARK    6  A    between atoms: O_30  and  C_32
REMARK    7  A    between atoms: C_32  and  C_33
REMARK    8  A    between atoms: C_34  and  C_35
REMARK    9  A    between atoms: C_38  and  O_41
REMARK   10  A    between atoms: C_40  and  O_43
REMARK                            x       y       z     vdW  Elec       q    Type
REMARK                         _______ _______ _______ _____ _____    ______ ____
ROOT
ATOM      1  C   UNL     1       0.337 -15.104  20.263  0.00  0.00    +0.000 C 
ATOM      2  C   UNL     1       1.192 -13.751  20.005  0.00  0.00    +0.000 C 
ATOM      3  C   UNL     1       2.189 -13.643  18.921  0.00  0.00    +0.000 C 
ATOM      4  C   UNL     1       2.370 -14.617  17.783  0.00  0.00    +0.000 C 
ATOM      5  C   UNL     1      -1.069 -14.577  20.521  0.00  0.00    +0.000 C 
ATOM      6  C   UNL     1       0.491 -15.877  19.032  0.00  0.00    +0.000 C 
ATOM      7  C   UNL     1       3.472 -14.480  16.701  0.00  0.00    +0.000 C 
ATOM      8  C   UNL     1       0.340 -12.644  20.312  0.00  0.00    +0.000 C 
ATOM      9  C   UNL     1       1.445 -15.690  17.877  0.00  0.00    +0.000 C 
ATOM     10  C   UNL     1      -1.047 -13.153  20.599  0.00  0.00    +0.000 C 
ATOM     11  C   UNL     1       2.989 -12.482  18.778  0.00  0.00    +0.000 C 
ATOM     12  C   UNL     1       0.926 -15.778  21.531  0.00  0.00    +0.000 C 
ATOM     13  C   UNL     1       4.140 -12.974  16.609  0.00  0.00    +0.000 C 
ATOM     14  C   UNL     1       2.895 -14.694  15.341  0.00  0.00    +0.000 C 
ATOM     15  C   UNL     1       3.918 -12.208  17.633  0.00  0.00    +0.000 C 
ATOM     16  C   UNL     1       4.626 -15.478  17.012  0.00  0.00    +0.000 C 
ATOM     17  C   UNL     1       4.114 -12.364  15.298  0.00  0.00    +0.000 C 
ATOM     18  C   UNL     1       2.918 -13.885  14.034  0.00  0.00    +0.000 C 
ATOM     19  C   UNL     1       3.588 -12.615  13.982  0.00  0.00    +0.000 C 
ENDROOT
BRANCH   5  20
ATOM     20  C   UNL     1      -2.179 -15.396  20.888  0.00  0.00    +0.000 C 
ATOM     21  C   UNL     1      -3.205 -15.856  19.887  0.00  0.00    +0.000 C 
BRANCH  20  22
ATOM     22  C   UNL     1      -2.510 -15.612  22.255  0.00  0.00    +0.000 C 
ATOM     23  C   UNL     1      -2.866 -15.843  23.731  0.00  0.00    +0.000 C 
BRANCH  23  24
ATOM     24  C   UNL     1      -3.179 -16.057  25.108  0.00  0.00    +0.000 C 
ATOM     25  C   UNL     1      -2.158 -16.448  26.057  0.00  0.00    +0.000 C 
ATOM     26  C   UNL     1      -2.443 -16.728  27.516  0.00  0.00    +0.000 C 
ATOM     27  C   UNL     1      -0.702 -16.611  25.672  0.00  0.00    +0.000 C 
BRANCH  24  28
ATOM     28  C   UNL     1      -4.516 -15.885  25.555  0.00  0.00    +0.000 C 
ATOM     29  C   UNL     1      -5.980 -15.740  25.986  0.00  0.00    +0.000 C 
ENDBRANCH  24  28
ENDBRANCH  23  24
ENDBRANCH  20  22
ENDBRANCH   5  20
BRANCH  19  30
ATOM     30  O   UNL     1       4.364 -12.265  12.881  0.00  0.00    +0.000 OA
BRANCH  30  32
ATOM     31  O   UNL     1       2.806 -11.282  11.462  0.00  0.00    +0.000 OA
ATOM     32  C   UNL     1       3.800 -11.244  12.172  0.00  0.00    +0.000 C 
BRANCH  32  33
ATOM     33  C   UNL     1       4.512 -10.006  12.370  0.00  0.00    +0.000 C 
ATOM     34  C   UNL     1       5.121  -8.984  12.537  0.00  0.00    +0.000 C 
BRANCH  34  35
ATOM     35  C   UNL     1       5.860  -7.781  12.738  0.00  0.00    +0.000 A 
ATOM     36  C   UNL     1       5.185  -6.588  12.993  0.00  0.00    +0.000 A 
ATOM     37  C   UNL     1       7.251  -7.797  12.673  0.00  0.00    +0.000 A 
ATOM     38  C   UNL     1       5.890  -5.398  13.187  0.00  0.00    +0.000 A 
ATOM     39  C   UNL     1       7.967  -6.618  12.864  0.00  0.00    +0.000 A 
ATOM     40  C   UNL     1       7.286  -5.428  13.118  0.00  0.00    +0.000 A 
BRANCH  38  41
ATOM     41  O   UNL     1       5.304  -4.182  13.440  0.00  0.00    +0.000 OA
ATOM     42  C   UNL     1       4.708  -4.049  14.704  0.00  0.00    +0.000 C 
ENDBRANCH  38  41
BRANCH  40  43
ATOM     43  O   UNL     1       7.995  -4.273  13.303  0.00  0.00    +0.000 OA
ATOM     44  H   UNL     1       7.603  -3.573  12.748  0.00  0.00    +0.000 HD
ENDBRANCH  40  43
ENDBRANCH  34  35
ENDBRANCH  32  33
ENDBRANCH  30  32
ENDBRANCH  19  30
TORSDOF 10
ENDMDL
MODEL 4
REMARK VINA RESULT:      -6.8     14.913     16.840
REMARK  Name = 91746246_sitosterol.pdbqt.pdb
REMARK  10 active torsions:
REMARK  status: ('A' for Active; 'I' for Inactive)
REMARK    1  A    between atoms: C_5  and  C_20
REMARK    2  A    between atoms: C_19  and  O_30
REMARK    3  A    between atoms: C_20  and  C_22
REMARK    4  A    between atoms: C_23  and  C_24
REMARK    5  A    between atoms: C_24  and  C_28
REMARK    6  A    between atoms: O_30  and  C_32
REMARK    7  A    between atoms: C_32  and  C_33
REMARK    8  A    between atoms: C_34  and  C_35
REMARK    9  A    between atoms: C_38  and  O_41
REMARK   10  A    between atoms: C_40  and  O_43
REMARK                            x       y       z     vdW  Elec       q    Type
REMARK                         _______ _______ _______ _____ _____    ______ ____
ROOT
ATOM      1  C   UNL     1       0.326 -15.373  19.962  0.00  0.00    +0.000 C 
ATOM      2  C   UNL     1       1.154 -13.995  19.754  0.00  0.00    +0.000 C 
ATOM      3  C   UNL     1       2.149 -13.827  18.676  0.00  0.00    +0.000 C 
ATOM      4  C   UNL     1       2.349 -14.755  17.503  0.00  0.00    +0.000 C 
ATOM      5  C   UNL     1      -1.091 -14.884  20.237  0.00  0.00    +0.000 C 
ATOM      6  C   UNL     1       0.496 -16.098  18.703  0.00  0.00    +0.000 C 
ATOM      7  C   UNL     1       3.449 -14.557  16.427  0.00  0.00    +0.000 C 
ATOM      8  C   UNL     1       0.279 -12.917  20.100  0.00  0.00    +0.000 C 
ATOM      9  C   UNL     1       1.446 -15.850  17.557  0.00  0.00    +0.000 C 
ATOM     10  C   UNL     1      -1.097 -13.464  20.367  0.00  0.00    +0.000 C 
ATOM     11  C   UNL     1       2.925 -12.646  18.575  0.00  0.00    +0.000 C 
ATOM     12  C   UNL     1       0.928 -16.080  21.205  0.00  0.00    +0.000 C 
ATOM     13  C   UNL     1       4.086 -13.035  16.390  0.00  0.00    +0.000 C 
ATOM     14  C   UNL     1       2.877 -14.734  15.060  0.00  0.00    +0.000 C 
ATOM     15  C   UNL     1       3.848 -12.312  17.441  0.00  0.00    +0.000 C 
ATOM     16  C   UNL     1       4.622 -15.542  16.704  0.00  0.00    +0.000 C 
ATOM     17  C   UNL     1       4.047 -12.379  15.103  0.00  0.00    +0.000 C 
ATOM     18  C   UNL     1       2.883 -13.877  13.783  0.00  0.00    +0.000 C 
ATOM     19  C   UNL     1       3.527 -12.593  13.778  0.00  0.00    +0.000 C 
ENDROOT
BRANCH   5  20
ATOM     20  C   UNL     1      -2.184 -15.739  20.573  0.00  0.00    +0.000 C 
ATOM     21  C   UNL     1      -2.931 -15.615  21.874  0.00  0.00    +0.000 C 
BRANCH  20  22
ATOM     22  C   UNL     1      -2.461 -16.908  19.811  0.00  0.00    +0.000 C 
ATOM     23  C   UNL     1      -2.758 -18.170  18.987  0.00  0.00    +0.000 C 
BRANCH  23  24
ATOM     24  C   UNL     1      -3.029 -19.334  18.206  0.00  0.00    +0.000 C 
ATOM     25  C   UNL     1      -2.009 -19.930  17.370  0.00  0.00    +0.000 C 
ATOM     26  C   UNL     1      -2.254 -21.137  16.492  0.00  0.00    +0.000 C 
ATOM     27  C   UNL     1      -0.593 -19.396  17.300  0.00  0.00    +0.000 C 
BRANCH  24  28
ATOM     28  C   UNL     1      -4.323 -19.919  18.249  0.00  0.00    +0.000 C 
ATOM     29  C   UNL     1      -5.704 -20.576  18.358  0.00  0.00    +0.000 C 
ENDBRANCH  24  28
ENDBRANCH  23  24
ENDBRANCH  20  22
ENDBRANCH   5  20
BRANCH  19  30
ATOM     30  O   UNL     1       4.296 -12.188  12.691  0.00  0.00    +0.000 OA
BRANCH  30  32
ATOM     31  O   UNL     1       2.714 -11.139  11.349  0.00  0.00    +0.000 OA
ATOM     32  C   UNL     1       3.725 -11.136  12.035  0.00  0.00    +0.000 C 
BRANCH  32  33
ATOM     33  C   UNL     1       4.453  -9.913  12.261  0.00  0.00    +0.000 C 
ATOM     34  C   UNL     1       5.069  -8.901  12.464  0.00  0.00    +0.000 C 
BRANCH  34  35
ATOM     35  C   UNL     1       5.808  -7.709  12.720  0.00  0.00    +0.000 A 
ATOM     36  C   UNL     1       5.132  -6.527  13.021  0.00  0.00    +0.000 A 
ATOM     37  C   UNL     1       7.199  -7.723  12.663  0.00  0.00    +0.000 A 
ATOM     38  C   UNL     1       5.838  -5.347  13.271  0.00  0.00    +0.000 A 
ATOM     39  C   UNL     1       7.915  -6.554  12.908  0.00  0.00    +0.000 A 
ATOM     40  C   UNL     1       7.234  -5.376  13.208  0.00  0.00    +0.000 A 
BRANCH  38  41
ATOM     41  O   UNL     1       5.251  -4.143  13.572  0.00  0.00    +0.000 OA
ATOM     42  C   UNL     1       4.674  -4.053  14.849  0.00  0.00    +0.000 C 
ENDBRANCH  38  41
BRANCH  40  43
ATOM     43  O   UNL     1       7.943  -4.230  13.447  0.00  0.00    +0.000 OA
ATOM     44  H   UNL     1       8.582  -4.102  12.721  0.00  0.00    +0.000 HD
ENDBRANCH  40  43
ENDBRANCH  34  35
ENDBRANCH  32  33
ENDBRANCH  30  32
ENDBRANCH  19  30
TORSDOF 10
ENDMDL
MODEL 5
REMARK VINA RESULT:      -6.7     14.700     19.504
REMARK  Name = 91746246_sitosterol.pdbqt.pdb
REMARK  10 active torsions:
REMARK  status: ('A' for Active; 'I' for Inactive)
REMARK    1  A    between atoms: C_5  and  C_20
REMARK    2  A    between atoms: C_19  and  O_30
REMARK    3  A    between atoms: C_20  and  C_22
REMARK    4  A    between atoms: C_23  and  C_24
REMARK    5  A    between atoms: C_24  and  C_28
REMARK    6  A    between atoms: O_30  and  C_32
REMARK    7  A    between atoms: C_32  and  C_33
REMARK    8  A    between atoms: C_34  and  C_35
REMARK    9  A    between atoms: C_38  and  O_41
REMARK   10  A    between atoms: C_40  and  O_43
REMARK                            x       y       z     vdW  Elec       q    Type
REMARK                         _______ _______ _______ _____ _____    ______ ____
ROOT
ATOM      1  C   UNL     1     -23.369  -3.927   8.938  0.00  0.00    +0.000 C 
ATOM      2  C   UNL     1     -22.946  -2.624   8.072  0.00  0.00    +0.000 C 
ATOM      3  C   UNL     1     -22.702  -1.308   8.696  0.00  0.00    +0.000 C 
ATOM      4  C   UNL     1     -22.553  -1.042  10.174  0.00  0.00    +0.000 C 
ATOM      5  C   UNL     1     -22.514  -5.034   8.333  0.00  0.00    +0.000 C 
ATOM      6  C   UNL     1     -23.039  -3.576  10.318  0.00  0.00    +0.000 C 
ATOM      7  C   UNL     1     -22.351   0.372  10.778  0.00  0.00    +0.000 C 
ATOM      8  C   UNL     1     -22.115  -3.077   6.999  0.00  0.00    +0.000 C 
ATOM      9  C   UNL     1     -22.684  -2.240  10.925  0.00  0.00    +0.000 C 
ATOM     10  C   UNL     1     -21.832  -4.544   7.180  0.00  0.00    +0.000 C 
ATOM     11  C   UNL     1     -22.425  -0.165   7.906  0.00  0.00    +0.000 C 
ATOM     12  C   UNL     1     -24.878  -4.176   8.674  0.00  0.00    +0.000 C 
ATOM     13  C   UNL     1     -21.857   1.505   9.684  0.00  0.00    +0.000 C 
ATOM     14  C   UNL     1     -21.252   0.355  11.788  0.00  0.00    +0.000 C 
ATOM     15  C   UNL     1     -22.017   1.176   8.438  0.00  0.00    +0.000 C 
ATOM     16  C   UNL     1     -23.696   0.870  11.382  0.00  0.00    +0.000 C 
ATOM     17  C   UNL     1     -20.653   2.224  10.038  0.00  0.00    +0.000 C 
ATOM     18  C   UNL     1     -19.973   1.184  11.986  0.00  0.00    +0.000 C 
ATOM     19  C   UNL     1     -19.631   2.219  11.050  0.00  0.00    +0.000 C 
ENDROOT
BRANCH   5  20
ATOM     20  C   UNL     1     -22.594  -6.408   8.710  0.00  0.00    +0.000 C 
ATOM     21  C   UNL     1     -22.547  -7.524   7.700  0.00  0.00    +0.000 C 
BRANCH  20  22
ATOM     22  C   UNL     1     -22.974  -6.785  10.028  0.00  0.00    +0.000 C 
ATOM     23  C   UNL     1     -23.386  -7.194  11.451  0.00  0.00    +0.000 C 
BRANCH  23  24
ATOM     24  C   UNL     1     -23.786  -7.573  12.768  0.00  0.00    +0.000 C 
ATOM     25  C   UNL     1     -23.143  -7.010  13.937  0.00  0.00    +0.000 C 
ATOM     26  C   UNL     1     -23.499  -7.406  15.353  0.00  0.00    +0.000 C 
ATOM     27  C   UNL     1     -22.052  -5.964  13.847  0.00  0.00    +0.000 C 
BRANCH  24  28
ATOM     28  C   UNL     1     -24.832  -8.519  12.936  0.00  0.00    +0.000 C 
ATOM     29  C   UNL     1     -26.003  -9.498  13.082  0.00  0.00    +0.000 C 
ENDBRANCH  24  28
ENDBRANCH  23  24
ENDBRANCH  20  22
ENDBRANCH   5  20
BRANCH  19  30
ATOM     30  O   UNL     1     -19.131   3.440  11.492  0.00  0.00    +0.000 OA
BRANCH  30  32
ATOM     31  O   UNL     1     -20.873   3.829  12.982  0.00  0.00    +0.000 OA
ATOM     32  C   UNL     1     -19.689   3.811  12.681  0.00  0.00    +0.000 C 
BRANCH  32  33
ATOM     33  C   UNL     1     -18.682   4.183  13.644  0.00  0.00    +0.000 C 
ATOM     34  C   UNL     1     -17.830   4.484  14.436  0.00  0.00    +0.000 C 
BRANCH  34  35
ATOM     35  C   UNL     1     -16.806   4.831  15.366  0.00  0.00    +0.000 A 
ATOM     36  C   UNL     1     -15.733   5.617  14.951  0.00  0.00    +0.000 A 
ATOM     37  C   UNL     1     -16.876   4.380  16.681  0.00  0.00    +0.000 A 
ATOM     38  C   UNL     1     -14.716   5.964  15.845  0.00  0.00    +0.000 A 
ATOM     39  C   UNL     1     -15.869   4.718  17.583  0.00  0.00    +0.000 A 
ATOM     40  C   UNL     1     -14.798   5.504  17.162  0.00  0.00    +0.000 A 
BRANCH  38  41
ATOM     41  O   UNL     1     -13.625   6.732  15.518  0.00  0.00    +0.000 OA
ATOM     42  C   UNL     1     -13.887   7.831  14.684  0.00  0.00    +0.000 C 
ENDBRANCH  38  41
BRANCH  40  43
ATOM     43  O   UNL     1     -13.812   5.830  18.052  0.00  0.00    +0.000 OA
ATOM     44  H   UNL     1     -12.958   5.851  17.580  0.00  0.00    +0.000 HD
ENDBRANCH  40  43
ENDBRANCH  34  35
ENDBRANCH  32  33
ENDBRANCH  30  32
ENDBRANCH  19  30
TORSDOF 10
ENDMDL
MODEL 6
REMARK VINA RESULT:      -6.6     15.707     17.638
REMARK  Name = 91746246_sitosterol.pdbqt.pdb
REMARK  10 active torsions:
REMARK  status: ('A' for Active; 'I' for Inactive)
REMARK    1  A    between atoms: C_5  and  C_20
REMARK    2  A    between atoms: C_19  and  O_30
REMARK    3  A    between atoms: C_20  and  C_22
REMARK    4  A    between atoms: C_23  and  C_24
REMARK    5  A    between atoms: C_24  and  C_28
REMARK    6  A    between atoms: O_30  and  C_32
REMARK    7  A    between atoms: C_32  and  C_33
REMARK    8  A    between atoms: C_34  and  C_35
REMARK    9  A    between atoms: C_38  and  O_41
REMARK   10  A    between atoms: C_40  and  O_43
REMARK                            x       y       z     vdW  Elec       q    Type
REMARK                         _______ _______ _______ _____ _____    ______ ____
ROOT
ATOM      1  C   UNL     1       3.395 -15.307  14.734  0.00  0.00    +0.000 C 
ATOM      2  C   UNL     1       4.697 -15.075  13.798  0.00  0.00    +0.000 C 
ATOM      3  C   UNL     1       4.949 -13.798  13.100  0.00  0.00    +0.000 C 
ATOM      4  C   UNL     1       4.224 -12.497  13.343  0.00  0.00    +0.000 C 
ATOM      5  C   UNL     1       3.968 -16.030  15.947  0.00  0.00    +0.000 C 
ATOM      6  C   UNL     1       2.887 -13.962  14.999  0.00  0.00    +0.000 C 
ATOM      7  C   UNL     1       4.495 -11.198  12.541  0.00  0.00    +0.000 C 
ATOM      8  C   UNL     1       5.781 -15.797  14.389  0.00  0.00    +0.000 C 
ATOM      9  C   UNL     1       3.234 -12.644  14.350  0.00  0.00    +0.000 C 
ATOM     10  C   UNL     1       5.337 -16.355  15.715  0.00  0.00    +0.000 C 
ATOM     11  C   UNL     1       6.045 -13.653  12.214  0.00  0.00    +0.000 C 
ATOM     12  C   UNL     1       2.424 -16.222  13.941  0.00  0.00    +0.000 C 
ATOM     13  C   UNL     1       5.928 -11.201  11.722  0.00  0.00    +0.000 C 
ATOM     14  C   UNL     1       4.618 -10.032  13.464  0.00  0.00    +0.000 C 
ATOM     15  C   UNL     1       6.477 -12.368  11.574  0.00  0.00    +0.000 C 
ATOM     16  C   UNL     1       3.364 -10.997  11.490  0.00  0.00    +0.000 C 
ATOM     17  C   UNL     1       6.799 -10.080  11.995  0.00  0.00    +0.000 C 
ATOM     18  C   UNL     1       5.680  -8.937  13.662  0.00  0.00    +0.000 C 
ATOM     19  C   UNL     1       6.873  -8.935  12.863  0.00  0.00    +0.000 C 
ENDROOT
BRANCH   5  20
ATOM     20  C   UNL     1       3.183 -16.531  17.028  0.00  0.00    +0.000 C 
ATOM     21  C   UNL     1       3.012 -18.005  17.283  0.00  0.00    +0.000 C 
BRANCH  20  22
ATOM     22  C   UNL     1       2.321 -15.674  17.767  0.00  0.00    +0.000 C 
ATOM     23  C   UNL     1       1.388 -14.748  18.563  0.00  0.00    +0.000 C 
BRANCH  23  24
ATOM     24  C   UNL     1       0.519 -13.878  19.289  0.00  0.00    +0.000 C 
ATOM     25  C   UNL     1       1.041 -12.773  20.063  0.00  0.00    +0.000 C 
ATOM     26  C   UNL     1       0.169 -11.846  20.882  0.00  0.00    +0.000 C 
ATOM     27  C   UNL     1       2.517 -12.439  20.121  0.00  0.00    +0.000 C 
BRANCH  24  28
ATOM     28  C   UNL     1      -0.884 -14.101  19.251  0.00  0.00    +0.000 C 
ATOM     29  C   UNL     1      -2.388 -14.376  19.149  0.00  0.00    +0.000 C 
ENDBRANCH  24  28
ENDBRANCH  23  24
ENDBRANCH  20  22
ENDBRANCH   5  20
BRANCH  19  30
ATOM     30  O   UNL     1       7.382  -7.746  12.348  0.00  0.00    +0.000 OA
BRANCH  30  32
ATOM     31  O   UNL     1       9.367  -7.096  13.371  0.00  0.00    +0.000 OA
ATOM     32  C   UNL     1       8.150  -7.089  13.266  0.00  0.00    +0.000 C 
BRANCH  32  33
ATOM     33  C   UNL     1       7.342  -6.293  14.157  0.00  0.00    +0.000 C 
ATOM     34  C   UNL     1       6.655  -5.632  14.888  0.00  0.00    +0.000 C 
BRANCH  34  35
ATOM     35  C   UNL     1       5.824  -4.850  15.744  0.00  0.00    +0.000 A 
ATOM     36  C   UNL     1       5.743  -5.159  17.100  0.00  0.00    +0.000 A 
ATOM     37  C   UNL     1       5.092  -3.786  15.224  0.00  0.00    +0.000 A 
ATOM     38  C   UNL     1       4.931  -4.408  17.954  0.00  0.00    +0.000 A 
ATOM     39  C   UNL     1       4.278  -3.029  16.063  0.00  0.00    +0.000 A 
ATOM     40  C   UNL     1       4.200  -3.344  17.419  0.00  0.00    +0.000 A 
BRANCH  38  41
ATOM     41  O   UNL     1       4.792  -4.646  19.300  0.00  0.00    +0.000 OA
ATOM     42  C   UNL     1       4.503  -5.974  19.653  0.00  0.00    +0.000 C 
ENDBRANCH  38  41
BRANCH  40  43
ATOM     43  O   UNL     1       3.397  -2.598  18.238  0.00  0.00    +0.000 OA
ATOM     44  H   UNL     1       3.327  -1.697  17.870  0.00  0.00    +0.000 HD
ENDBRANCH  40  43
ENDBRANCH  34  35
ENDBRANCH  32  33
ENDBRANCH  30  32
ENDBRANCH  19  30
TORSDOF 10
ENDMDL
MODEL 7
REMARK VINA RESULT:      -6.4     15.795     20.289
REMARK  Name = 91746246_sitosterol.pdbqt.pdb
REMARK  10 active torsions:
REMARK  status: ('A' for Active; 'I' for Inactive)
REMARK    1  A    between atoms: C_5  and  C_20
REMARK    2  A    between atoms: C_19  and  O_30
REMARK    3  A    between atoms: C_20  and  C_22
REMARK    4  A    between atoms: C_23  and  C_24
REMARK    5  A    between atoms: C_24  and  C_28
REMARK    6  A    between atoms: O_30  and  C_32
REMARK    7  A    between atoms: C_32  and  C_33
REMARK    8  A    between atoms: C_34  and  C_35
REMARK    9  A    between atoms: C_38  and  O_41
REMARK   10  A    between atoms: C_40  and  O_43
REMARK                            x       y       z     vdW  Elec       q    Type
REMARK                         _______ _______ _______ _____ _____    ______ ____
ROOT
ATOM      1  C   UNL     1     -12.010 -18.021   9.988  0.00  0.00    +0.000 C 
ATOM      2  C   UNL     1     -12.180 -17.201  11.375  0.00  0.00    +0.000 C 
ATOM      3  C   UNL     1     -12.630 -17.847  12.624  0.00  0.00    +0.000 C 
ATOM      4  C   UNL     1     -12.739 -19.333  12.863  0.00  0.00    +0.000 C 
ATOM      5  C   UNL     1     -10.692 -17.493   9.435  0.00  0.00    +0.000 C 
ATOM      6  C   UNL     1     -11.992 -19.426  10.391  0.00  0.00    +0.000 C 
ATOM      7  C   UNL     1     -13.270 -19.956  14.180  0.00  0.00    +0.000 C 
ATOM      8  C   UNL     1     -11.153 -16.206  11.409  0.00  0.00    +0.000 C 
ATOM      9  C   UNL     1     -12.352 -20.066  11.710  0.00  0.00    +0.000 C 
ATOM     10  C   UNL     1     -10.231 -16.408  10.237  0.00  0.00    +0.000 C 
ATOM     11  C   UNL     1     -12.860 -17.088  13.798  0.00  0.00    +0.000 C 
ATOM     12  C   UNL     1     -13.202 -17.622   9.077  0.00  0.00    +0.000 C 
ATOM     13  C   UNL     1     -13.280 -18.914  15.459  0.00  0.00    +0.000 C 
ATOM     14  C   UNL     1     -12.374 -21.061  14.631  0.00  0.00    +0.000 C 
ATOM     15  C   UNL     1     -13.170 -17.658  15.150  0.00  0.00    +0.000 C 
ATOM     16  C   UNL     1     -14.735 -20.438  13.966  0.00  0.00    +0.000 C 
ATOM     17  C   UNL     1     -12.585 -19.377  16.640  0.00  0.00    +0.000 C 
ATOM     18  C   UNL     1     -11.651 -21.375  15.952  0.00  0.00    +0.000 C 
ATOM     19  C   UNL     1     -11.761 -20.477  17.067  0.00  0.00    +0.000 C 
ENDROOT
BRANCH   5  20
ATOM     20  C   UNL     1     -10.149 -17.858   8.166  0.00  0.00    +0.000 C 
ATOM     21  C   UNL     1      -9.459 -19.175   7.935  0.00  0.00    +0.000 C 
BRANCH  20  22
ATOM     22  C   UNL     1     -10.011 -16.898   7.125  0.00  0.00    +0.000 C 
ATOM     23  C   UNL     1      -9.861 -15.859   6.003  0.00  0.00    +0.000 C 
BRANCH  23  24
ATOM     24  C   UNL     1      -9.735 -14.884   4.968  0.00  0.00    +0.000 C 
ATOM     25  C   UNL     1     -10.348 -15.085   3.671  0.00  0.00    +0.000 C 
ATOM     26  C   UNL     1     -10.212 -14.105   2.527  0.00  0.00    +0.000 C 
ATOM     27  C   UNL     1     -11.189 -16.302   3.344  0.00  0.00    +0.000 C 
BRANCH  24  28
ATOM     28  C   UNL     1      -8.995 -13.696   5.212  0.00  0.00    +0.000 C 
ATOM     29  C   UNL     1      -8.158 -12.429   5.419  0.00  0.00    +0.000 C 
ENDBRANCH  24  28
ENDBRANCH  23  24
ENDBRANCH  20  22
ENDBRANCH   5  20
BRANCH  19  30
ATOM     30  O   UNL     1     -11.928 -20.965  18.360  0.00  0.00    +0.000 OA
BRANCH  30  32
ATOM     31  O   UNL     1     -10.486 -22.688  18.960  0.00  0.00    +0.000 OA
ATOM     32  C   UNL     1     -10.772 -21.506  18.846  0.00  0.00    +0.000 C 
BRANCH  32  33
ATOM     33  C   UNL     1      -9.825 -20.483  19.215  0.00  0.00    +0.000 C 
ATOM     34  C   UNL     1      -9.049 -19.622  19.531  0.00  0.00    +0.000 C 
BRANCH  34  35
ATOM     35  C   UNL     1      -8.144 -18.589  19.914  0.00  0.00    +0.000 A 
ATOM     36  C   UNL     1      -6.772 -18.835  19.910  0.00  0.00    +0.000 A 
ATOM     37  C   UNL     1      -8.629 -17.341  20.298  0.00  0.00    +0.000 A 
ATOM     38  C   UNL     1      -5.868 -17.838  20.286  0.00  0.00    +0.000 A 
ATOM     39  C   UNL     1      -7.739 -16.338  20.676  0.00  0.00    +0.000 A 
ATOM     40  C   UNL     1      -6.368 -16.591  20.670  0.00  0.00    +0.000 A 
BRANCH  38  41
ATOM     41  O   UNL     1      -4.504 -17.999  20.312  0.00  0.00    +0.000 OA
ATOM     42  C   UNL     1      -3.991 -18.638  21.451  0.00  0.00    +0.000 C 
ENDBRANCH  38  41
BRANCH  40  43
ATOM     43  O   UNL     1      -5.500 -15.603  21.045  0.00  0.00    +0.000 OA
ATOM     44  H   UNL     1      -4.648 -15.746  20.591  0.00  0.00    +0.000 HD
ENDBRANCH  40  43
ENDBRANCH  34  35
ENDBRANCH  32  33
ENDBRANCH  30  32
ENDBRANCH  19  30
TORSDOF 10
ENDMDL
MODEL 8
REMARK VINA RESULT:      -6.3     12.035     15.329
REMARK  Name = 91746246_sitosterol.pdbqt.pdb
REMARK  10 active torsions:
REMARK  status: ('A' for Active; 'I' for Inactive)
REMARK    1  A    between atoms: C_5  and  C_20
REMARK    2  A    between atoms: C_19  and  O_30
REMARK    3  A    between atoms: C_20  and  C_22
REMARK    4  A    between atoms: C_23  and  C_24
REMARK    5  A    between atoms: C_24  and  C_28
REMARK    6  A    between atoms: O_30  and  C_32
REMARK    7  A    between atoms: C_32  and  C_33
REMARK    8  A    between atoms: C_34  and  C_35
REMARK    9  A    between atoms: C_38  and  O_41
REMARK   10  A    between atoms: C_40  and  O_43
REMARK                            x       y       z     vdW  Elec       q    Type
REMARK                         _______ _______ _______ _____ _____    ______ ____
ROOT
ATOM      1  C   UNL     1      -3.076 -16.531  23.433  0.00  0.00    +0.000 C 
ATOM      2  C   UNL     1      -1.502 -16.335  23.764  0.00  0.00    +0.000 C 
ATOM      3  C   UNL     1      -0.567 -15.704  22.811  0.00  0.00    +0.000 C 
ATOM      4  C   UNL     1      -0.952 -14.945  21.565  0.00  0.00    +0.000 C 
ATOM      5  C   UNL     1      -3.754 -16.131  24.737  0.00  0.00    +0.000 C 
ATOM      6  C   UNL     1      -3.329 -15.636  22.305  0.00  0.00    +0.000 C 
ATOM      7  C   UNL     1       0.076 -14.347  20.569  0.00  0.00    +0.000 C 
ATOM      8  C   UNL     1      -1.392 -16.066  25.165  0.00  0.00    +0.000 C 
ATOM      9  C   UNL     1      -2.362 -14.908  21.403  0.00  0.00    +0.000 C 
ATOM     10  C   UNL     1      -2.771 -15.914  25.747  0.00  0.00    +0.000 C 
ATOM     11  C   UNL     1       0.820 -15.630  23.087  0.00  0.00    +0.000 C 
ATOM     12  C   UNL     1      -3.291 -18.037  23.127  0.00  0.00    +0.000 C 
ATOM     13  C   UNL     1       1.600 -14.199  21.186  0.00  0.00    +0.000 C 
ATOM     14  C   UNL     1      -0.297 -12.947  20.212  0.00  0.00    +0.000 C 
ATOM     15  C   UNL     1       1.828 -14.884  22.265  0.00  0.00    +0.000 C 
ATOM     16  C   UNL     1       0.173 -15.266  19.317  0.00  0.00    +0.000 C 
ATOM     17  C   UNL     1       2.178 -12.877  21.097  0.00  0.00    +0.000 C 
ATOM     18  C   UNL     1       0.453 -11.605  20.235  0.00  0.00    +0.000 C 
ATOM     19  C   UNL     1       1.810 -11.543  20.702  0.00  0.00    +0.000 C 
ENDROOT
BRANCH   5  20
ATOM     20  C   UNL     1      -5.159 -16.220  24.972  0.00  0.00    +0.000 C 
ATOM     21  C   UNL     1      -5.739 -16.313  26.358  0.00  0.00    +0.000 C 
BRANCH  20  22
ATOM     22  C   UNL     1      -6.066 -16.479  23.906  0.00  0.00    +0.000 C 
ATOM     23  C   UNL     1      -7.044 -16.755  22.754  0.00  0.00    +0.000 C 
BRANCH  23  24
ATOM     24  C   UNL     1      -7.966 -17.002  21.693  0.00  0.00    +0.000 C 
ATOM     25  C   UNL     1      -7.567 -17.730  20.507  0.00  0.00    +0.000 C 
ATOM     26  C   UNL     1      -8.490 -17.984  19.336  0.00  0.00    +0.000 C 
ATOM     27  C   UNL     1      -6.179 -18.311  20.333  0.00  0.00    +0.000 C 
BRANCH  24  28
ATOM     28  C   UNL     1      -9.300 -16.524  21.800  0.00  0.00    +0.000 C 
ATOM     29  C   UNL     1     -10.727 -15.994  21.982  0.00  0.00    +0.000 C 
ENDBRANCH  24  28
ENDBRANCH  23  24
ENDBRANCH  20  22
ENDBRANCH   5  20
BRANCH  19  30
ATOM     30  O   UNL     1       2.755 -10.764  20.041  0.00  0.00    +0.000 OA
BRANCH  30  32
ATOM     31  O   UNL     1       4.837 -11.758  20.333  0.00  0.00    +0.000 OA
ATOM     32  C   UNL     1       3.843 -11.500  19.670  0.00  0.00    +0.000 C 
BRANCH  32  33
ATOM     33  C   UNL     1       3.700 -12.019  18.333  0.00  0.00    +0.000 C 
ATOM     34  C   UNL     1       3.597 -12.461  17.220  0.00  0.00    +0.000 C 
BRANCH  34  35
ATOM     35  C   UNL     1       3.492 -12.995  15.902  0.00  0.00    +0.000 A 
ATOM     36  C   UNL     1       3.961 -12.256  14.817  0.00  0.00    +0.000 A 
ATOM     37  C   UNL     1       2.916 -14.246  15.699  0.00  0.00    +0.000 A 
ATOM     38  C   UNL     1       3.863 -12.759  13.517  0.00  0.00    +0.000 A 
ATOM     39  C   UNL     1       2.810 -14.760  14.409  0.00  0.00    +0.000 A 
ATOM     40  C   UNL     1       3.281 -14.016  13.328  0.00  0.00    +0.000 A 
BRANCH  38  41
ATOM     41  O   UNL     1       4.298 -12.097  12.395  0.00  0.00    +0.000 OA
ATOM     42  C   UNL     1       3.494 -11.025  11.976  0.00  0.00    +0.000 C 
ENDBRANCH  38  41
BRANCH  40  43
ATOM     43  O   UNL     1       3.173 -14.525  12.062  0.00  0.00    +0.000 OA
ATOM     44  H   UNL     1       2.228 -14.637  11.851  0.00  0.00    +0.000 HD
ENDBRANCH  40  43
ENDBRANCH  34  35
ENDBRANCH  32  33
ENDBRANCH  30  32
ENDBRANCH  19  30
TORSDOF 10
ENDMDL
MODEL 9
REMARK VINA RESULT:      -6.3      5.789     12.516
REMARK  Name = 91746246_sitosterol.pdbqt.pdb
REMARK  10 active torsions:
REMARK  status: ('A' for Active; 'I' for Inactive)
REMARK    1  A    between atoms: C_5  and  C_20
REMARK    2  A    between atoms: C_19  and  O_30
REMARK    3  A    between atoms: C_20  and  C_22
REMARK    4  A    between atoms: C_23  and  C_24
REMARK    5  A    between atoms: C_24  and  C_28
REMARK    6  A    between atoms: O_30  and  C_32
REMARK    7  A    between atoms: C_32  and  C_33
REMARK    8  A    between atoms: C_34  and  C_35
REMARK    9  A    between atoms: C_38  and  O_41
REMARK   10  A    between atoms: C_40  and  O_43
REMARK                            x       y       z     vdW  Elec       q    Type
REMARK                         _______ _______ _______ _____ _____    ______ ____
ROOT
ATOM      1  C   UNL     1      -7.234   4.620  19.409  0.00  0.00    +0.000 C 
ATOM      2  C   UNL     1      -6.489   3.588  20.412  0.00  0.00    +0.000 C 
ATOM      3  C   UNL     1      -7.172   2.410  20.982  0.00  0.00    +0.000 C 
ATOM      4  C   UNL     1      -8.506   1.860  20.541  0.00  0.00    +0.000 C 
ATOM      5  C   UNL     1      -6.186   4.869  18.331  0.00  0.00    +0.000 C 
ATOM      6  C   UNL     1      -8.424   3.901  18.958  0.00  0.00    +0.000 C 
ATOM      7  C   UNL     1      -9.203   0.649  21.214  0.00  0.00    +0.000 C 
ATOM      8  C   UNL     1      -5.125   3.495  19.990  0.00  0.00    +0.000 C 
ATOM      9  C   UNL     1      -9.053   2.633  19.482  0.00  0.00    +0.000 C 
ATOM     10  C   UNL     1      -4.953   4.256  18.703  0.00  0.00    +0.000 C 
ATOM     11  C   UNL     1      -6.526   1.577  21.929  0.00  0.00    +0.000 C 
ATOM     12  C   UNL     1      -7.524   5.911  20.220  0.00  0.00    +0.000 C 
ATOM     13  C   UNL     1      -8.196  -0.277  22.137  0.00  0.00    +0.000 C 
ATOM     14  C   UNL     1      -9.708  -0.302  20.180  0.00  0.00    +0.000 C 
ATOM     15  C   UNL     1      -7.068   0.282  22.454  0.00  0.00    +0.000 C 
ATOM     16  C   UNL     1     -10.341   1.162  22.145  0.00  0.00    +0.000 C 
ATOM     17  C   UNL     1      -8.177  -1.686  21.810  0.00  0.00    +0.000 C 
ATOM     18  C   UNL     1      -9.536  -1.811  19.945  0.00  0.00    +0.000 C 
ATOM     19  C   UNL     1      -8.715  -2.591  20.829  0.00  0.00    +0.000 C 
ENDROOT
BRANCH   5  20
ATOM     20  C   UNL     1      -6.345   5.793  17.254  0.00  0.00    +0.000 C 
ATOM     21  C   UNL     1      -5.175   6.329  16.474  0.00  0.00    +0.000 C 
BRANCH  20  22
ATOM     22  C   UNL     1      -7.589   6.445  17.026  0.00  0.00    +0.000 C 
ATOM     23  C   UNL     1      -8.933   7.148  16.782  0.00  0.00    +0.000 C 
BRANCH  23  24
ATOM     24  C   UNL     1     -10.191   7.785  16.555  0.00  0.00    +0.000 C 
ATOM     25  C   UNL     1     -11.419   7.226  17.078  0.00  0.00    +0.000 C 
ATOM     26  C   UNL     1     -12.781   7.837  16.834  0.00  0.00    +0.000 C 
ATOM     27  C   UNL     1     -11.451   5.971  17.927  0.00  0.00    +0.000 C 
BRANCH  24  28
ATOM     28  C   UNL     1     -10.239   8.989  15.803  0.00  0.00    +0.000 C 
ATOM     29  C   UNL     1     -10.350  10.266  14.962  0.00  0.00    +0.000 C 
ENDBRANCH  24  28
ENDBRANCH  23  24
ENDBRANCH  20  22
ENDBRANCH   5  20
BRANCH  19  30
ATOM     30  O   UNL     1      -9.120  -3.855  21.247  0.00  0.00    +0.000 OA
BRANCH  30  32
ATOM     31  O   UNL     1     -10.942  -4.745  20.108  0.00  0.00    +0.000 OA
ATOM     32  C   UNL     1     -10.445  -4.066  20.995  0.00  0.00    +0.000 C 
BRANCH  32  33
ATOM     33  C   UNL     1     -11.281  -3.394  21.958  0.00  0.00    +0.000 C 
ATOM     34  C   UNL     1     -11.986  -2.824  22.747  0.00  0.00    +0.000 C 
BRANCH  34  35
ATOM     35  C   UNL     1     -12.831  -2.138  23.668  0.00  0.00    +0.000 A 
ATOM     36  C   UNL     1     -13.142  -0.796  23.454  0.00  0.00    +0.000 A 
ATOM     37  C   UNL     1     -13.336  -2.804  24.781  0.00  0.00    +0.000 A 
ATOM     38  C   UNL     1     -13.964  -0.105  24.348  0.00  0.00    +0.000 A 
ATOM     39  C   UNL     1     -14.156  -2.127  25.681  0.00  0.00    +0.000 A 
ATOM     40  C   UNL     1     -14.464  -0.785  25.462  0.00  0.00    +0.000 A 
BRANCH  38  41
ATOM     41  O   UNL     1     -14.318   1.215  24.212  0.00  0.00    +0.000 OA
ATOM     42  C   UNL     1     -13.305   2.146  24.495  0.00  0.00    +0.000 C 
ENDBRANCH  38  41
BRANCH  40  43
ATOM     43  O   UNL     1     -15.268  -0.125  26.350  0.00  0.00    +0.000 OA
ATOM     44  H   UNL     1     -16.175  -0.100  25.991  0.00  0.00    +0.000 HD
ENDBRANCH  40  43
ENDBRANCH  34  35
ENDBRANCH  32  33
ENDBRANCH  30  32
ENDBRANCH  19  30
TORSDOF 10
ENDMDL
