MODEL 1
REMARK VINA RESULT:      -4.2      0.000      0.000
REMARK  Name = 92041_2Ethoxy5fluorouracil.pdbqt.pdb
REMARK  2 active torsions:
REMARK  status: ('A' for Active; 'I' for Inactive)
REMARK    1  A    between atoms: C_5  and  O_10
REMARK    2  A    between atoms: O_10  and  C_11
REMARK                            x       y       z     vdW  Elec       q    Type
REMARK                         _______ _______ _______ _____ _____    ______ ____
ROOT
ATOM      1  F   UNL     1      -8.534  -5.534  18.155  0.00  0.00    +0.000 F 
ATOM      2  O   UNL     1     -10.173  -3.263  17.619  0.00  0.00    +0.000 OA
ATOM      3  N   UNL     1     -10.990  -3.426  19.761  0.00  0.00    +0.000 N 
ATOM      4  N   UNL     1     -10.171  -4.980  21.344  0.00  0.00    +0.000 NA
ATOM      5  C   UNL     1     -11.011  -4.041  21.009  0.00  0.00    +0.000 C 
ATOM      6  C   UNL     1     -10.105  -3.762  18.734  0.00  0.00    +0.000 C 
ATOM      7  C   UNL     1      -9.095  -4.796  19.126  0.00  0.00    +0.000 C 
ATOM      8  C   UNL     1      -9.337  -5.217  20.324  0.00  0.00    +0.000 C 
ATOM      9  H   UNL     1     -11.688  -2.732  19.539  0.00  0.00    +0.000 HD
ENDROOT
BRANCH   5  10
ATOM     10  O   UNL     1     -11.987  -3.556  21.811  0.00  0.00    +0.000 OA
BRANCH  10  11
ATOM     11  C   UNL     1     -12.438  -4.383  22.750  0.00  0.00    +0.000 C 
ATOM     12  C   UNL     1     -12.946  -5.384  23.792  0.00  0.00    +0.000 C 
ENDBRANCH  10  11
ENDBRANCH   5  10
TORSDOF 2
ENDMDL
MODEL 2
REMARK VINA RESULT:      -3.8     17.447     18.133
REMARK  Name = 92041_2Ethoxy5fluorouracil.pdbqt.pdb
REMARK  2 active torsions:
REMARK  status: ('A' for Active; 'I' for Inactive)
REMARK    1  A    between atoms: C_5  and  O_10
REMARK    2  A    between atoms: O_10  and  C_11
REMARK                            x       y       z     vdW  Elec       q    Type
REMARK                         _______ _______ _______ _____ _____    ______ ____
ROOT
ATOM      1  F   UNL     1       4.508  -7.451  12.037  0.00  0.00    +0.000 F 
ATOM      2  O   UNL     1       6.626  -9.359  12.102  0.00  0.00    +0.000 OA
ATOM      3  N   UNL     1       5.042 -11.024  12.100  0.00  0.00    +0.000 N 
ATOM      4  N   UNL     1       2.724 -10.606  11.880  0.00  0.00    +0.000 NA
ATOM      5  C   UNL     1       3.712 -11.435  12.065  0.00  0.00    +0.000 C 
ATOM      6  C   UNL     1       5.456  -9.696  11.977  0.00  0.00    +0.000 C 
ATOM      7  C   UNL     1       4.336  -8.740  11.703  0.00  0.00    +0.000 C 
ATOM      8  C   UNL     1       3.206  -9.364  11.735  0.00  0.00    +0.000 C 
ATOM      9  H   UNL     1       5.765 -11.703  12.285  0.00  0.00    +0.000 HD
ENDROOT
BRANCH   5  10
ATOM     10  O   UNL     1       3.577 -12.770  12.242  0.00  0.00    +0.000 OA
BRANCH  10  11
ATOM     11  C   UNL     1       3.190 -13.164  13.451  0.00  0.00    +0.000 C 
ATOM     12  C   UNL     1       2.793 -13.586  14.869  0.00  0.00    +0.000 C 
ENDBRANCH  10  11
ENDBRANCH   5  10
TORSDOF 2
ENDMDL
MODEL 3
REMARK VINA RESULT:      -3.7     14.233     15.245
REMARK  Name = 92041_2Ethoxy5fluorouracil.pdbqt.pdb
REMARK  2 active torsions:
REMARK  status: ('A' for Active; 'I' for Inactive)
REMARK    1  A    between atoms: C_5  and  O_10
REMARK    2  A    between atoms: O_10  and  C_11
REMARK                            x       y       z     vdW  Elec       q    Type
REMARK                         _______ _______ _______ _____ _____    ______ ____
ROOT
ATOM      1  F   UNL     1     -24.229  -6.589  13.318  0.00  0.00    +0.000 F 
ATOM      2  O   UNL     1     -21.461  -6.889  13.935  0.00  0.00    +0.000 OA
ATOM      3  N   UNL     1     -20.973  -5.717  12.018  0.00  0.00    +0.000 N 
ATOM      4  N   UNL     1     -22.627  -4.729  10.647  0.00  0.00    +0.000 NA
ATOM      5  C   UNL     1     -21.379  -5.020  10.884  0.00  0.00    +0.000 C 
ATOM      6  C   UNL     1     -21.844  -6.203  12.996  0.00  0.00    +0.000 C 
ATOM      7  C   UNL     1     -23.274  -5.821  12.768  0.00  0.00    +0.000 C 
ATOM      8  C   UNL     1     -23.390  -5.195  11.644  0.00  0.00    +0.000 C 
ATOM      9  H   UNL     1     -19.998  -5.951  12.133  0.00  0.00    +0.000 HD
ENDROOT
BRANCH   5  10
ATOM     10  O   UNL     1     -20.343  -4.692  10.077  0.00  0.00    +0.000 OA
BRANCH  10  11
ATOM     11  C   UNL     1     -20.421  -5.120   8.821  0.00  0.00    +0.000 C 
ATOM     12  C   UNL     1     -20.477  -5.564   7.356  0.00  0.00    +0.000 C 
ENDBRANCH  10  11
ENDBRANCH   5  10
TORSDOF 2
ENDMDL
MODEL 4
REMARK VINA RESULT:      -3.7      2.872      4.680
REMARK  Name = 92041_2Ethoxy5fluorouracil.pdbqt.pdb
REMARK  2 active torsions:
REMARK  status: ('A' for Active; 'I' for Inactive)
REMARK    1  A    between atoms: C_5  and  O_10
REMARK    2  A    between atoms: O_10  and  C_11
REMARK                            x       y       z     vdW  Elec       q    Type
REMARK                         _______ _______ _______ _____ _____    ______ ____
ROOT
ATOM      1  F   UNL     1     -13.425  -4.954  24.407  0.00  0.00    +0.000 F 
ATOM      2  O   UNL     1     -13.205  -2.542  22.901  0.00  0.00    +0.000 OA
ATOM      3  N   UNL     1     -11.398  -3.459  21.817  0.00  0.00    +0.000 N 
ATOM      4  N   UNL     1     -10.679  -5.687  22.152  0.00  0.00    +0.000 NA
ATOM      5  C   UNL     1     -10.521  -4.518  21.599  0.00  0.00    +0.000 C 
ATOM      6  C   UNL     1     -12.507  -3.519  22.663  0.00  0.00    +0.000 C 
ATOM      7  C   UNL     1     -12.736  -4.874  23.257  0.00  0.00    +0.000 C 
ATOM      8  C   UNL     1     -11.780  -5.673  22.915  0.00  0.00    +0.000 C 
ATOM      9  H   UNL     1     -11.206  -2.562  21.394  0.00  0.00    +0.000 HD
ENDROOT
BRANCH   5  10
ATOM     10  O   UNL     1      -9.508  -4.190  20.763  0.00  0.00    +0.000 OA
BRANCH  10  11
ATOM     11  C   UNL     1      -9.853  -3.899  19.512  0.00  0.00    +0.000 C 
ATOM     12  C   UNL     1     -10.191  -3.571  18.055  0.00  0.00    +0.000 C 
ENDBRANCH  10  11
ENDBRANCH   5  10
TORSDOF 2
ENDMDL
MODEL 5
REMARK VINA RESULT:      -3.5     18.499     20.143
REMARK  Name = 92041_2Ethoxy5fluorouracil.pdbqt.pdb
REMARK  2 active torsions:
REMARK  status: ('A' for Active; 'I' for Inactive)
REMARK    1  A    between atoms: C_5  and  O_10
REMARK    2  A    between atoms: O_10  and  C_11
REMARK                            x       y       z     vdW  Elec       q    Type
REMARK                         _______ _______ _______ _____ _____    ______ ____
ROOT
ATOM      1  F   UNL     1       2.417 -10.892  11.676  0.00  0.00    +0.000 F 
ATOM      2  O   UNL     1       3.738 -13.394  12.033  0.00  0.00    +0.000 OA
ATOM      3  N   UNL     1       5.743 -12.303  11.765  0.00  0.00    +0.000 N 
ATOM      4  N   UNL     1       5.919  -9.954  11.544  0.00  0.00    +0.000 NA
ATOM      5  C   UNL     1       6.472 -11.135  11.558  0.00  0.00    +0.000 C 
ATOM      6  C   UNL     1       4.358 -12.343  11.943  0.00  0.00    +0.000 C 
ATOM      7  C   UNL     1       3.719 -10.989  11.991  0.00  0.00    +0.000 C 
ATOM      8  C   UNL     1       4.603 -10.076  11.758  0.00  0.00    +0.000 C 
ATOM      9  H   UNL     1       6.214 -13.194  11.727  0.00  0.00    +0.000 HD
ENDROOT
BRANCH   5  10
ATOM     10  O   UNL     1       7.792 -11.371  11.378  0.00  0.00    +0.000 OA
BRANCH  10  11
ATOM     11  C   UNL     1       8.606 -10.342  11.593  0.00  0.00    +0.000 C 
ATOM     12  C   UNL     1       9.500  -9.132  11.879  0.00  0.00    +0.000 C 
ENDBRANCH  10  11
ENDBRANCH   5  10
TORSDOF 2
ENDMDL
MODEL 6
REMARK VINA RESULT:      -3.5     19.312     20.838
REMARK  Name = 92041_2Ethoxy5fluorouracil.pdbqt.pdb
REMARK  2 active torsions:
REMARK  status: ('A' for Active; 'I' for Inactive)
REMARK    1  A    between atoms: C_5  and  O_10
REMARK    2  A    between atoms: O_10  and  C_11
REMARK                            x       y       z     vdW  Elec       q    Type
REMARK                         _______ _______ _______ _____ _____    ______ ____
ROOT
ATOM      1  F   UNL     1      -6.586  -8.006   0.881  0.00  0.00    +0.000 F 
ATOM      2  O   UNL     1      -5.577  -6.847   3.284  0.00  0.00    +0.000 OA
ATOM      3  N   UNL     1      -3.639  -6.348   2.154  0.00  0.00    +0.000 N 
ATOM      4  N   UNL     1      -3.356  -6.726  -0.163  0.00  0.00    +0.000 NA
ATOM      5  C   UNL     1      -2.878  -6.348   0.988  0.00  0.00    +0.000 C 
ATOM      6  C   UNL     1      -4.966  -6.777   2.225  0.00  0.00    +0.000 C 
ATOM      7  C   UNL     1      -5.547  -7.155   0.898  0.00  0.00    +0.000 C 
ATOM      8  C   UNL     1      -4.638  -7.085  -0.017  0.00  0.00    +0.000 C 
ATOM      9  H   UNL     1      -3.207  -6.082   3.027  0.00  0.00    +0.000 HD
ENDROOT
BRANCH   5  10
ATOM     10  O   UNL     1      -1.611  -5.918   1.195  0.00  0.00    +0.000 OA
BRANCH  10  11
ATOM     11  C   UNL     1      -0.749  -6.828   1.638  0.00  0.00    +0.000 C 
ATOM     12  C   UNL     1       0.266  -7.835   2.189  0.00  0.00    +0.000 C 
ENDBRANCH  10  11
ENDBRANCH   5  10
TORSDOF 2
ENDMDL
MODEL 7
REMARK VINA RESULT:      -3.5     17.394     18.048
REMARK  Name = 92041_2Ethoxy5fluorouracil.pdbqt.pdb
REMARK  2 active torsions:
REMARK  status: ('A' for Active; 'I' for Inactive)
REMARK    1  A    between atoms: C_5  and  O_10
REMARK    2  A    between atoms: O_10  and  C_11
REMARK                            x       y       z     vdW  Elec       q    Type
REMARK                         _______ _______ _______ _____ _____    ______ ____
ROOT
ATOM      1  F   UNL     1       4.483  -7.787  11.951  0.00  0.00    +0.000 F 
ATOM      2  O   UNL     1       2.423  -9.109  10.489  0.00  0.00    +0.000 OA
ATOM      3  N   UNL     1       2.920 -11.030  11.649  0.00  0.00    +0.000 N 
ATOM      4  N   UNL     1       4.498 -11.109  13.408  0.00  0.00    +0.000 NA
ATOM      5  C   UNL     1       3.658 -11.710  12.614  0.00  0.00    +0.000 C 
ATOM      6  C   UNL     1       3.020  -9.658  11.405  0.00  0.00    +0.000 C 
ATOM      7  C   UNL     1       3.936  -8.946  12.352  0.00  0.00    +0.000 C 
ATOM      8  C   UNL     1       4.509  -9.797  13.137  0.00  0.00    +0.000 C 
ATOM      9  H   UNL     1       2.312 -11.550  11.034  0.00  0.00    +0.000 HD
ENDROOT
BRANCH   5  10
ATOM     10  O   UNL     1       3.401 -13.038  12.625  0.00  0.00    +0.000 OA
BRANCH  10  11
ATOM     11  C   UNL     1       4.309 -13.805  13.220  0.00  0.00    +0.000 C 
ATOM     12  C   UNL     1       5.334 -14.738  13.872  0.00  0.00    +0.000 C 
ENDBRANCH  10  11
ENDBRANCH   5  10
TORSDOF 2
ENDMDL
MODEL 8
REMARK VINA RESULT:      -3.3     16.319     17.458
REMARK  Name = 92041_2Ethoxy5fluorouracil.pdbqt.pdb
REMARK  2 active torsions:
REMARK  status: ('A' for Active; 'I' for Inactive)
REMARK    1  A    between atoms: C_5  and  O_10
REMARK    2  A    between atoms: O_10  and  C_11
REMARK                            x       y       z     vdW  Elec       q    Type
REMARK                         _______ _______ _______ _____ _____    ______ ____
ROOT
ATOM      1  F   UNL     1     -22.183   1.304   8.244  0.00  0.00    +0.000 F 
ATOM      2  O   UNL     1     -22.491   0.149   5.655  0.00  0.00    +0.000 OA
ATOM      3  N   UNL     1     -22.091  -1.910   6.595  0.00  0.00    +0.000 N 
ATOM      4  N   UNL     1     -21.832  -2.242   8.922  0.00  0.00    +0.000 NA
ATOM      5  C   UNL     1     -21.828  -2.708   7.705  0.00  0.00    +0.000 C 
ATOM      6  C   UNL     1     -22.352  -0.539   6.658  0.00  0.00    +0.000 C 
ATOM      7  C   UNL     1     -22.421  -0.004   8.054  0.00  0.00    +0.000 C 
ATOM      8  C   UNL     1     -22.125  -0.936   8.899  0.00  0.00    +0.000 C 
ATOM      9  H   UNL     1     -22.036  -2.313   5.672  0.00  0.00    +0.000 HD
ENDROOT
BRANCH   5  10
ATOM     10  O   UNL     1     -21.572  -3.994   7.371  0.00  0.00    +0.000 OA
BRANCH  10  11
ATOM     11  C   UNL     1     -20.333  -4.421   7.592  0.00  0.00    +0.000 C 
ATOM     12  C   UNL     1     -18.916  -4.911   7.908  0.00  0.00    +0.000 C 
ENDBRANCH  10  11
ENDBRANCH   5  10
TORSDOF 2
ENDMDL
MODEL 9
REMARK VINA RESULT:      -3.3     17.595     18.102
REMARK  Name = 92041_2Ethoxy5fluorouracil.pdbqt.pdb
REMARK  2 active torsions:
REMARK  status: ('A' for Active; 'I' for Inactive)
REMARK    1  A    between atoms: C_5  and  O_10
REMARK    2  A    between atoms: O_10  and  C_11
REMARK                            x       y       z     vdW  Elec       q    Type
REMARK                         _______ _______ _______ _____ _____    ______ ____
ROOT
ATOM      1  F   UNL     1       2.043 -10.898  10.639  0.00  0.00    +0.000 F 
ATOM      2  O   UNL     1       4.156 -12.267  11.977  0.00  0.00    +0.000 OA
ATOM      3  N   UNL     1       5.100 -10.224  12.444  0.00  0.00    +0.000 N 
ATOM      4  N   UNL     1       4.058  -8.167  11.920  0.00  0.00    +0.000 NA
ATOM      5  C   UNL     1       5.077  -8.834  12.384  0.00  0.00    +0.000 C 
ATOM      6  C   UNL     1       4.066 -11.047  11.991  0.00  0.00    +0.000 C 
ATOM      7  C   UNL     1       2.864 -10.292  11.513  0.00  0.00    +0.000 C 
ATOM      8  C   UNL     1       3.099  -9.022  11.543  0.00  0.00    +0.000 C 
ATOM      9  H   UNL     1       5.930 -10.692  12.776  0.00  0.00    +0.000 HD
ENDROOT
BRANCH   5  10
ATOM     10  O   UNL     1       6.216  -8.275  12.855  0.00  0.00    +0.000 OA
BRANCH  10  11
ATOM     11  C   UNL     1       6.130  -7.686  14.044  0.00  0.00    +0.000 C 
ATOM     12  C   UNL     1       5.970  -7.006  15.407  0.00  0.00    +0.000 C 
ENDBRANCH  10  11
ENDBRANCH   5  10
TORSDOF 2
ENDMDL
