MODEL 1
REMARK VINA RESULT:      -5.0      0.000      0.000
REMARK  Name = 95716_6Bromoisatin.pdbqt.pdb
REMARK  0 active torsions:
REMARK  status: ('A' for Active; 'I' for Inactive)
REMARK                            x       y       z     vdW  Elec       q    Type
REMARK                         _______ _______ _______ _____ _____    ______ ____
ROOT
ATOM      1 BR   UNL     1      -6.820   0.983  22.751  0.00  0.00    +0.000 Br
ATOM      2  O   UNL     1     -10.730  -3.328  18.896  0.00  0.00    +0.000 OA
ATOM      3  O   UNL     1      -9.215  -5.659  20.055  0.00  0.00    +0.000 OA
ATOM      4  N   UNL     1      -8.128  -3.924  21.171  0.00  0.00    +0.000 N 
ATOM      5  C   UNL     1      -8.243  -2.537  21.184  0.00  0.00    +0.000 A 
ATOM      6  C   UNL     1      -9.248  -2.100  20.323  0.00  0.00    +0.000 A 
ATOM      7  C   UNL     1      -9.832  -3.288  19.702  0.00  0.00    +0.000 C 
ATOM      8  C   UNL     1      -7.496  -1.648  21.927  0.00  0.00    +0.000 A 
ATOM      9  C   UNL     1      -9.561  -0.767  20.155  0.00  0.00    +0.000 A 
ATOM     10  C   UNL     1      -9.045  -4.488  20.304  0.00  0.00    +0.000 C 
ATOM     11  C   UNL     1      -7.799  -0.294  21.769  0.00  0.00    +0.000 A 
ATOM     12  C   UNL     1      -8.813   0.145  20.900  0.00  0.00    +0.000 A 
ATOM     13  H   UNL     1      -7.473  -4.473  21.710  0.00  0.00    +0.000 HD
ENDROOT
TORSDOF 0
ENDMDL
MODEL 2
REMARK VINA RESULT:      -4.8     17.952     18.977
REMARK  Name = 95716_6Bromoisatin.pdbqt.pdb
REMARK  0 active torsions:
REMARK  status: ('A' for Active; 'I' for Inactive)
REMARK                            x       y       z     vdW  Elec       q    Type
REMARK                         _______ _______ _______ _____ _____    ______ ____
ROOT
ATOM      1 BR   UNL     1      -9.880   4.771   1.619  0.00  0.00    +0.000 Br
ATOM      2  O   UNL     1     -14.288   8.350   5.683  0.00  0.00    +0.000 OA
ATOM      3  O   UNL     1     -14.158   6.120   7.703  0.00  0.00    +0.000 OA
ATOM      4  N   UNL     1     -12.721   5.238   6.091  0.00  0.00    +0.000 N 
ATOM      5  C   UNL     1     -12.254   5.663   4.851  0.00  0.00    +0.000 A 
ATOM      6  C   UNL     1     -12.777   6.907   4.507  0.00  0.00    +0.000 A 
ATOM      7  C   UNL     1     -13.650   7.327   5.603  0.00  0.00    +0.000 C 
ATOM      8  C   UNL     1     -11.386   4.992   4.016  0.00  0.00    +0.000 A 
ATOM      9  C   UNL     1     -12.468   7.548   3.325  0.00  0.00    +0.000 A 
ATOM     10  C   UNL     1     -13.579   6.172   6.643  0.00  0.00    +0.000 C 
ATOM     11  C   UNL     1     -11.062   5.626   2.815  0.00  0.00    +0.000 A 
ATOM     12  C   UNL     1     -11.590   6.881   2.469  0.00  0.00    +0.000 A 
ATOM     13  H   UNL     1     -12.485   4.371   6.553  0.00  0.00    +0.000 HD
ENDROOT
TORSDOF 0
ENDMDL
MODEL 3
REMARK VINA RESULT:      -4.0     18.803     19.871
REMARK  Name = 95716_6Bromoisatin.pdbqt.pdb
REMARK  0 active torsions:
REMARK  status: ('A' for Active; 'I' for Inactive)
REMARK                            x       y       z     vdW  Elec       q    Type
REMARK                         _______ _______ _______ _____ _____    ______ ____
ROOT
ATOM      1 BR   UNL     1     -10.167   6.873   0.150  0.00  0.00    +0.000 Br
ATOM      2  O   UNL     1     -13.062   5.353   6.318  0.00  0.00    +0.000 OA
ATOM      3  O   UNL     1     -14.462   8.020   6.262  0.00  0.00    +0.000 OA
ATOM      4  N   UNL     1     -13.319   8.163   4.234  0.00  0.00    +0.000 N 
ATOM      5  C   UNL     1     -12.450   7.332   3.533  0.00  0.00    +0.000 A 
ATOM      6  C   UNL     1     -12.220   6.140   4.216  0.00  0.00    +0.000 A 
ATOM      7  C   UNL     1     -12.996   6.196   5.455  0.00  0.00    +0.000 C 
ATOM      8  C   UNL     1     -11.856   7.590   2.316  0.00  0.00    +0.000 A 
ATOM      9  C   UNL     1     -11.395   5.148   3.731  0.00  0.00    +0.000 A 
ATOM     10  C   UNL     1     -13.716   7.575   5.420  0.00  0.00    +0.000 C 
ATOM     11  C   UNL     1     -11.016   6.595   1.810  0.00  0.00    +0.000 A 
ATOM     12  C   UNL     1     -10.786   5.393   2.500  0.00  0.00    +0.000 A 
ATOM     13  H   UNL     1     -13.635   9.078   3.943  0.00  0.00    +0.000 HD
ENDROOT
TORSDOF 0
ENDMDL
MODEL 4
REMARK VINA RESULT:      -3.9     17.681     19.074
REMARK  Name = 95716_6Bromoisatin.pdbqt.pdb
REMARK  0 active torsions:
REMARK  status: ('A' for Active; 'I' for Inactive)
REMARK                            x       y       z     vdW  Elec       q    Type
REMARK                         _______ _______ _______ _____ _____    ______ ____
ROOT
ATOM      1 BR   UNL     1     -24.508  -7.465   5.254  0.00  0.00    +0.000 Br
ATOM      2  O   UNL     1     -20.459  -4.796  10.277  0.00  0.00    +0.000 OA
ATOM      3  O   UNL     1     -18.199  -4.622   8.294  0.00  0.00    +0.000 OA
ATOM      4  N   UNL     1     -19.838  -5.525   6.903  0.00  0.00    +0.000 N 
ATOM      5  C   UNL     1     -21.168  -5.904   7.065  0.00  0.00    +0.000 A 
ATOM      6  C   UNL     1     -21.606  -5.685   8.369  0.00  0.00    +0.000 A 
ATOM      7  C   UNL     1     -20.480  -5.122   9.114  0.00  0.00    +0.000 C 
ATOM      8  C   UNL     1     -22.003  -6.434   6.105  0.00  0.00    +0.000 A 
ATOM      9  C   UNL     1     -22.887  -5.978   8.786  0.00  0.00    +0.000 A 
ATOM     10  C   UNL     1     -19.316  -5.035   8.085  0.00  0.00    +0.000 C 
ATOM     11  C   UNL     1     -23.305  -6.737   6.510  0.00  0.00    +0.000 A 
ATOM     12  C   UNL     1     -23.746  -6.515   7.826  0.00  0.00    +0.000 A 
ATOM     13  H   UNL     1     -19.299  -5.588   6.050  0.00  0.00    +0.000 HD
ENDROOT
TORSDOF 0
ENDMDL
MODEL 5
REMARK VINA RESULT:      -3.9     17.358     18.225
REMARK  Name = 95716_6Bromoisatin.pdbqt.pdb
REMARK  0 active torsions:
REMARK  status: ('A' for Active; 'I' for Inactive)
REMARK                            x       y       z     vdW  Elec       q    Type
REMARK                         _______ _______ _______ _____ _____    ______ ____
ROOT
ATOM      1 BR   UNL     1     -23.043  -1.146   6.944  0.00  0.00    +0.000 Br
ATOM      2  O   UNL     1     -21.375  -6.231  11.428  0.00  0.00    +0.000 OA
ATOM      3  O   UNL     1     -21.941  -8.253   9.268  0.00  0.00    +0.000 OA
ATOM      4  N   UNL     1     -22.415  -6.304   8.079  0.00  0.00    +0.000 N 
ATOM      5  C   UNL     1     -22.397  -4.943   8.371  0.00  0.00    +0.000 A 
ATOM      6  C   UNL     1     -22.000  -4.708   9.685  0.00  0.00    +0.000 A 
ATOM      7  C   UNL     1     -21.739  -6.011  10.297  0.00  0.00    +0.000 C 
ATOM      8  C   UNL     1     -22.717  -3.907   7.520  0.00  0.00    +0.000 A 
ATOM      9  C   UNL     1     -21.900  -3.442  10.221  0.00  0.00    +0.000 A 
ATOM     10  C   UNL     1     -22.033  -7.051   9.177  0.00  0.00    +0.000 C 
ATOM     11  C   UNL     1     -22.622  -2.617   8.046  0.00  0.00    +0.000 A 
ATOM     12  C   UNL     1     -22.221  -2.381   9.372  0.00  0.00    +0.000 A 
ATOM     13  H   UNL     1     -22.669  -6.721   7.194  0.00  0.00    +0.000 HD
ENDROOT
TORSDOF 0
ENDMDL
MODEL 6
REMARK VINA RESULT:      -3.8      2.082      2.195
REMARK  Name = 95716_6Bromoisatin.pdbqt.pdb
REMARK  0 active torsions:
REMARK  status: ('A' for Active; 'I' for Inactive)
REMARK                            x       y       z     vdW  Elec       q    Type
REMARK                         _______ _______ _______ _____ _____    ______ ____
ROOT
ATOM      1 BR   UNL     1      -9.438   1.787  23.718  0.00  0.00    +0.000 Br
ATOM      2  O   UNL     1      -9.315  -3.699  19.402  0.00  0.00    +0.000 OA
ATOM      3  O   UNL     1     -11.523  -4.957  21.019  0.00  0.00    +0.000 OA
ATOM      4  N   UNL     1     -11.268  -2.978  22.226  0.00  0.00    +0.000 N 
ATOM      5  C   UNL     1     -10.446  -1.859  22.120  0.00  0.00    +0.000 A 
ATOM      6  C   UNL     1      -9.581  -1.962  21.033  0.00  0.00    +0.000 A 
ATOM      7  C   UNL     1      -9.857  -3.242  20.381  0.00  0.00    +0.000 C 
ATOM      8  C   UNL     1     -10.435  -0.756  22.946  0.00  0.00    +0.000 A 
ATOM      9  C   UNL     1      -8.666  -0.983  20.711  0.00  0.00    +0.000 A 
ATOM     10  C   UNL     1     -10.998  -3.887  21.220  0.00  0.00    +0.000 C 
ATOM     11  C   UNL     1      -9.514   0.246  22.635  0.00  0.00    +0.000 A 
ATOM     12  C   UNL     1      -8.642   0.141  21.538  0.00  0.00    +0.000 A 
ATOM     13  H   UNL     1     -11.974  -3.135  22.930  0.00  0.00    +0.000 HD
ENDROOT
TORSDOF 0
ENDMDL
MODEL 7
REMARK VINA RESULT:      -3.7     13.628     15.013
REMARK  Name = 95716_6Bromoisatin.pdbqt.pdb
REMARK  0 active torsions:
REMARK  status: ('A' for Active; 'I' for Inactive)
REMARK                            x       y       z     vdW  Elec       q    Type
REMARK                         _______ _______ _______ _____ _____    ______ ____
ROOT
ATOM      1 BR   UNL     1       0.441 -17.144  23.987  0.00  0.00    +0.000 Br
ATOM      2  O   UNL     1      -2.587 -14.074  18.497  0.00  0.00    +0.000 OA
ATOM      3  O   UNL     1      -5.190 -14.045  20.012  0.00  0.00    +0.000 OA
ATOM      4  N   UNL     1      -3.842 -15.062  21.620  0.00  0.00    +0.000 N 
ATOM      5  C   UNL     1      -2.502 -15.432  21.690  0.00  0.00    +0.000 A 
ATOM      6  C   UNL     1      -1.822 -15.114  20.516  0.00  0.00    +0.000 A 
ATOM      7  C   UNL     1      -2.788 -14.490  19.613  0.00  0.00    +0.000 C 
ATOM      8  C   UNL     1      -1.863 -16.039  22.749  0.00  0.00    +0.000 A 
ATOM      9  C   UNL     1      -0.481 -15.379  20.334  0.00  0.00    +0.000 A 
ATOM     10  C   UNL     1      -4.130 -14.478  20.401  0.00  0.00    +0.000 C 
ATOM     11  C   UNL     1      -0.504 -16.315  22.582  0.00  0.00    +0.000 A 
ATOM     12  C   UNL     1       0.181 -15.994  21.398  0.00  0.00    +0.000 A 
ATOM     13  H   UNL     1      -4.535 -15.188  22.344  0.00  0.00    +0.000 HD
ENDROOT
TORSDOF 0
ENDMDL
MODEL 8
REMARK VINA RESULT:      -3.6     16.438     17.243
REMARK  Name = 95716_6Bromoisatin.pdbqt.pdb
REMARK  0 active torsions:
REMARK  status: ('A' for Active; 'I' for Inactive)
REMARK                            x       y       z     vdW  Elec       q    Type
REMARK                         _______ _______ _______ _____ _____    ______ ____
ROOT
ATOM      1 BR   UNL     1     -13.370 -20.450  17.395  0.00  0.00    +0.000 Br
ATOM      2  O   UNL     1     -13.837 -15.091  12.944  0.00  0.00    +0.000 OA
ATOM      3  O   UNL     1     -16.389 -14.249  14.303  0.00  0.00    +0.000 OA
ATOM      4  N   UNL     1     -15.893 -16.130  15.589  0.00  0.00    +0.000 N 
ATOM      5  C   UNL     1     -14.872 -17.077  15.596  0.00  0.00    +0.000 A 
ATOM      6  C   UNL     1     -13.937 -16.827  14.594  0.00  0.00    +0.000 A 
ATOM      7  C   UNL     1     -14.379 -15.629  13.880  0.00  0.00    +0.000 C 
ATOM      8  C   UNL     1     -14.739 -18.148  16.453  0.00  0.00    +0.000 A 
ATOM      9  C   UNL     1     -12.829 -17.621  14.391  0.00  0.00    +0.000 A 
ATOM     10  C   UNL     1     -15.697 -15.199  14.586  0.00  0.00    +0.000 C 
ATOM     11  C   UNL     1     -13.622 -18.964  16.262  0.00  0.00    +0.000 A 
ATOM     12  C   UNL     1     -12.679 -18.711  15.251  0.00  0.00    +0.000 A 
ATOM     13  H   UNL     1     -16.683 -16.100  16.218  0.00  0.00    +0.000 HD
ENDROOT
TORSDOF 0
ENDMDL
MODEL 9
REMARK VINA RESULT:      -3.6      3.713      4.484
REMARK  Name = 95716_6Bromoisatin.pdbqt.pdb
REMARK  0 active torsions:
REMARK  status: ('A' for Active; 'I' for Inactive)
REMARK                            x       y       z     vdW  Elec       q    Type
REMARK                         _______ _______ _______ _____ _____    ______ ____
ROOT
ATOM      1 BR   UNL     1     -11.189  -4.717  26.438  0.00  0.00    +0.000 Br
ATOM      2  O   UNL     1     -11.405  -3.790  19.522  0.00  0.00    +0.000 OA
ATOM      3  O   UNL     1      -9.562  -1.428  19.831  0.00  0.00    +0.000 OA
ATOM      4  N   UNL     1      -9.738  -2.051  22.072  0.00  0.00    +0.000 N 
ATOM      5  C   UNL     1     -10.410  -3.053  22.765  0.00  0.00    +0.000 A 
ATOM      6  C   UNL     1     -11.145  -3.865  21.904  0.00  0.00    +0.000 A 
ATOM      7  C   UNL     1     -10.937  -3.356  20.548  0.00  0.00    +0.000 C 
ATOM      8  C   UNL     1     -10.397  -3.274  24.125  0.00  0.00    +0.000 A 
ATOM      9  C   UNL     1     -11.900  -4.931  22.344  0.00  0.00    +0.000 A 
ATOM     10  C   UNL     1      -9.985  -2.137  20.714  0.00  0.00    +0.000 C 
ATOM     11  C   UNL     1     -11.156  -4.350  24.590  0.00  0.00    +0.000 A 
ATOM     12  C   UNL     1     -11.897  -5.169  23.720  0.00  0.00    +0.000 A 
ATOM     13  H   UNL     1      -9.142  -1.342  22.476  0.00  0.00    +0.000 HD
ENDROOT
TORSDOF 0
ENDMDL
