MODEL 1
REMARK VINA RESULT:      -5.9      0.000      0.000
REMARK  Name = 969516_Curcumin.pdbqt.pdb
REMARK  8 active torsions:
REMARK  status: ('A' for Active; 'I' for Inactive)
REMARK    1  A    between atoms: C_3  and  C_5
REMARK    2  A    between atoms: C_4  and  C_6
REMARK    3  A    between atoms: C_8  and  O_12
REMARK    4  A    between atoms: C_10  and  O_14
REMARK    5  A    between atoms: C_17  and  C_19
REMARK    6  A    between atoms: C_18  and  C_20
REMARK    7  A    between atoms: C_22  and  O_26
REMARK    8  A    between atoms: C_24  and  O_28
REMARK                            x       y       z     vdW  Elec       q    Type
REMARK                         _______ _______ _______ _____ _____    ______ ____
ROOT
ATOM      1  C   UNL     1       2.529 -13.913  17.390  0.00  0.00    +0.000 C 
ATOM      2  O   UNL     1       2.433 -15.752  16.026  0.00  0.00    +0.000 OA
ATOM      3  C   UNL     1       2.846 -14.615  16.190  0.00  0.00    +0.000 C 
ATOM      4  O   UNL     1       2.851 -12.220  18.901  0.00  0.00    +0.000 OA
ATOM      5  C   UNL     1       2.213 -13.216  18.592  0.00  0.00    +0.000 C 
ENDROOT
BRANCH   3   7
ATOM      6  C   UNL     1       4.321 -13.443  14.336  0.00  0.00    +0.000 C 
ATOM      7  C   UNL     1       3.650 -13.975  15.179  0.00  0.00    +0.000 C 
BRANCH   6   8
ATOM      8  C   UNL     1       5.118 -12.811  13.336  0.00  0.00    +0.000 A 
ATOM      9  C   UNL     1       4.746 -11.564  12.836  0.00  0.00    +0.000 A 
ATOM     10  C   UNL     1       5.516 -10.931  11.856  0.00  0.00    +0.000 A 
ATOM     11  C   UNL     1       6.265 -13.441  12.860  0.00  0.00    +0.000 A 
ATOM     12  C   UNL     1       6.666 -11.573  11.385  0.00  0.00    +0.000 A 
ATOM     13  C   UNL     1       7.039 -12.821  11.884  0.00  0.00    +0.000 A 
BRANCH  10  14
ATOM     14  O   UNL     1       5.215  -9.705  11.318  0.00  0.00    +0.000 OA
ATOM     15  C   UNL     1       5.017  -8.663  12.232  0.00  0.00    +0.000 C 
ENDBRANCH  10  14
BRANCH  12  16
ATOM     16  O   UNL     1       7.481 -11.033  10.429  0.00  0.00    +0.000 OA
ATOM     17  H   UNL     1       8.128 -10.430  10.831  0.00  0.00    +0.000 HD
ENDBRANCH  12  16
ENDBRANCH   6   8
ENDBRANCH   3   7
BRANCH   5  19
ATOM     18  C   UNL     1       0.252 -14.077  20.138  0.00  0.00    +0.000 C 
ATOM     19  C   UNL     1       1.143 -13.687  19.433  0.00  0.00    +0.000 C 
BRANCH  18  20
ATOM     20  C   UNL     1      -0.803 -14.541  20.978  0.00  0.00    +0.000 A 
ATOM     21  C   UNL     1      -2.130 -14.299  20.625  0.00  0.00    +0.000 A 
ATOM     22  C   UNL     1      -3.174 -14.748  21.438  0.00  0.00    +0.000 A 
ATOM     23  C   UNL     1      -0.506 -15.236  22.149  0.00  0.00    +0.000 A 
ATOM     24  C   UNL     1      -2.862 -15.443  22.608  0.00  0.00    +0.000 A 
ATOM     25  C   UNL     1      -1.538 -15.688  22.966  0.00  0.00    +0.000 A 
BRANCH  22  26
ATOM     26  O   UNL     1      -4.507 -14.552  21.164  0.00  0.00    +0.000 OA
ATOM     27  C   UNL     1      -5.099 -15.508  20.324  0.00  0.00    +0.000 C 
ENDBRANCH  22  26
BRANCH  24  28
ATOM     28  O   UNL     1      -3.871 -15.891  23.417  0.00  0.00    +0.000 OA
ATOM     29  H   UNL     1      -3.761 -16.851  23.552  0.00  0.00    +0.000 HD
ENDBRANCH  24  28
ENDBRANCH  18  20
ENDBRANCH   5  19
TORSDOF 8
ENDMDL
MODEL 2
REMARK VINA RESULT:      -5.7     17.781     20.653
REMARK  Name = 969516_Curcumin.pdbqt.pdb
REMARK  8 active torsions:
REMARK  status: ('A' for Active; 'I' for Inactive)
REMARK    1  A    between atoms: C_3  and  C_5
REMARK    2  A    between atoms: C_4  and  C_6
REMARK    3  A    between atoms: C_8  and  O_12
REMARK    4  A    between atoms: C_10  and  O_14
REMARK    5  A    between atoms: C_17  and  C_19
REMARK    6  A    between atoms: C_18  and  C_20
REMARK    7  A    between atoms: C_22  and  O_26
REMARK    8  A    between atoms: C_24  and  O_28
REMARK                            x       y       z     vdW  Elec       q    Type
REMARK                         _______ _______ _______ _____ _____    ______ ____
ROOT
ATOM      1  C   UNL     1      -3.999  -5.646   1.674  0.00  0.00    +0.000 C 
ATOM      2  O   UNL     1      -4.979  -6.959   3.277  0.00  0.00    +0.000 OA
ATOM      3  C   UNL     1      -4.905  -6.664   2.094  0.00  0.00    +0.000 C 
ATOM      4  O   UNL     1      -2.788  -4.535   0.077  0.00  0.00    +0.000 OA
ATOM      5  C   UNL     1      -3.091  -4.631   1.257  0.00  0.00    +0.000 C 
ENDROOT
BRANCH   3   7
ATOM      6  C   UNL     1      -6.412  -7.898   0.308  0.00  0.00    +0.000 C 
ATOM      7  C   UNL     1      -5.727  -7.336   1.119  0.00  0.00    +0.000 C 
BRANCH   6   8
ATOM      8  C   UNL     1      -7.228  -8.564  -0.654  0.00  0.00    +0.000 A 
ATOM      9  C   UNL     1      -8.617  -8.505  -0.549  0.00  0.00    +0.000 A 
ATOM     10  C   UNL     1      -9.431  -9.153  -1.483  0.00  0.00    +0.000 A 
ATOM     11  C   UNL     1      -6.636  -9.273  -1.696  0.00  0.00    +0.000 A 
ATOM     12  C   UNL     1      -8.825  -9.861  -2.525  0.00  0.00    +0.000 A 
ATOM     13  C   UNL     1      -7.436  -9.921  -2.633  0.00  0.00    +0.000 A 
BRANCH  10  14
ATOM     14  O   UNL     1     -10.803  -9.138  -1.444  0.00  0.00    +0.000 OA
ATOM     15  C   UNL     1     -11.397  -9.872  -0.411  0.00  0.00    +0.000 C 
ENDBRANCH  10  14
BRANCH  12  16
ATOM     16  O   UNL     1      -9.538 -10.525  -3.486  0.00  0.00    +0.000 OA
ATOM     17  H   UNL     1     -10.127  -9.914  -3.960  0.00  0.00    +0.000 HD
ENDBRANCH  12  16
ENDBRANCH   6   8
ENDBRANCH   3   7
BRANCH   5  19
ATOM     18  C   UNL     1      -2.080  -2.964   3.040  0.00  0.00    +0.000 C 
ATOM     19  C   UNL     1      -2.537  -3.722   2.229  0.00  0.00    +0.000 C 
BRANCH  18  20
ATOM     20  C   UNL     1      -1.540  -2.060   4.002  0.00  0.00    +0.000 A 
ATOM     21  C   UNL     1      -0.177  -1.765   3.989  0.00  0.00    +0.000 A 
ATOM     22  C   UNL     1       0.366  -0.880   4.925  0.00  0.00    +0.000 A 
ATOM     23  C   UNL     1      -2.374  -1.473   4.952  0.00  0.00    +0.000 A 
ATOM     24  C   UNL     1      -0.482  -0.299   5.871  0.00  0.00    +0.000 A 
ATOM     25  C   UNL     1      -1.844  -0.591   5.889  0.00  0.00    +0.000 A 
BRANCH  22  26
ATOM     26  O   UNL     1       1.695  -0.535   4.983  0.00  0.00    +0.000 OA
ATOM     27  C   UNL     1       2.566  -1.355   4.247  0.00  0.00    +0.000 C 
ENDBRANCH  22  26
BRANCH  24  28
ATOM     28  O   UNL     1       0.032   0.569   6.796  0.00  0.00    +0.000 OA
ATOM     29  H   UNL     1       0.834   0.983   6.424  0.00  0.00    +0.000 HD
ENDBRANCH  24  28
ENDBRANCH  18  20
ENDBRANCH   5  19
TORSDOF 8
ENDMDL
MODEL 3
REMARK VINA RESULT:      -5.6     17.941     20.012
REMARK  Name = 969516_Curcumin.pdbqt.pdb
REMARK  8 active torsions:
REMARK  status: ('A' for Active; 'I' for Inactive)
REMARK    1  A    between atoms: C_3  and  C_5
REMARK    2  A    between atoms: C_4  and  C_6
REMARK    3  A    between atoms: C_8  and  O_12
REMARK    4  A    between atoms: C_10  and  O_14
REMARK    5  A    between atoms: C_17  and  C_19
REMARK    6  A    between atoms: C_18  and  C_20
REMARK    7  A    between atoms: C_22  and  O_26
REMARK    8  A    between atoms: C_24  and  O_28
REMARK                            x       y       z     vdW  Elec       q    Type
REMARK                         _______ _______ _______ _____ _____    ______ ____
ROOT
ATOM      1  C   UNL     1      -3.993  -5.668   1.708  0.00  0.00    +0.000 C 
ATOM      2  O   UNL     1      -2.778  -4.558   0.113  0.00  0.00    +0.000 OA
ATOM      3  C   UNL     1      -3.090  -4.646   1.290  0.00  0.00    +0.000 C 
ATOM      4  O   UNL     1      -4.977  -6.982   3.307  0.00  0.00    +0.000 OA
ATOM      5  C   UNL     1      -4.891  -6.693   2.123  0.00  0.00    +0.000 C 
ENDROOT
BRANCH   3   7
ATOM      6  C   UNL     1      -2.110  -2.956   3.070  0.00  0.00    +0.000 C 
ATOM      7  C   UNL     1      -2.555  -3.724   2.260  0.00  0.00    +0.000 C 
BRANCH   6   8
ATOM      8  C   UNL     1      -1.582  -2.044   4.032  0.00  0.00    +0.000 A 
ATOM      9  C   UNL     1      -0.240  -1.672   3.973  0.00  0.00    +0.000 A 
ATOM     10  C   UNL     1       0.294  -0.780   4.907  0.00  0.00    +0.000 A 
ATOM     11  C   UNL     1      -2.407  -1.528   5.027  0.00  0.00    +0.000 A 
ATOM     12  C   UNL     1      -0.544  -0.268   5.903  0.00  0.00    +0.000 A 
ATOM     13  C   UNL     1      -1.887  -0.639   5.963  0.00  0.00    +0.000 A 
BRANCH  10  14
ATOM     14  O   UNL     1       1.603  -0.368   4.912  0.00  0.00    +0.000 OA
ATOM     15  C   UNL     1       2.054   0.263   3.746  0.00  0.00    +0.000 C 
ENDBRANCH  10  14
BRANCH  12  16
ATOM     16  O   UNL     1      -0.112   0.609   6.859  0.00  0.00    +0.000 OA
ATOM     17  H   UNL     1       0.808   0.874   6.692  0.00  0.00    +0.000 HD
ENDBRANCH  12  16
ENDBRANCH   6   8
ENDBRANCH   3   7
BRANCH   5  19
ATOM     18  C   UNL     1      -6.363  -7.955   0.328  0.00  0.00    +0.000 C 
ATOM     19  C   UNL     1      -5.696  -7.379   1.144  0.00  0.00    +0.000 C 
BRANCH  18  20
ATOM     20  C   UNL     1      -7.152  -8.639  -0.643  0.00  0.00    +0.000 A 
ATOM     21  C   UNL     1      -8.534  -8.725  -0.480  0.00  0.00    +0.000 A 
ATOM     22  C   UNL     1      -9.320  -9.391  -1.424  0.00  0.00    +0.000 A 
ATOM     23  C   UNL     1      -6.541  -9.219  -1.753  0.00  0.00    +0.000 A 
ATOM     24  C   UNL     1      -8.695  -9.968  -2.532  0.00  0.00    +0.000 A 
ATOM     25  C   UNL     1      -7.313  -9.886  -2.699  0.00  0.00    +0.000 A 
BRANCH  22  26
ATOM     26  O   UNL     1     -10.686  -9.523  -1.340  0.00  0.00    +0.000 OA
ATOM     27  C   UNL     1     -11.412  -8.322  -1.373  0.00  0.00    +0.000 C 
ENDBRANCH  22  26
BRANCH  24  28
ATOM     28  O   UNL     1      -9.447 -10.625  -3.467  0.00  0.00    +0.000 OA
ATOM     29  H   UNL     1      -9.657 -11.516  -3.129  0.00  0.00    +0.000 HD
ENDBRANCH  24  28
ENDBRANCH  18  20
ENDBRANCH   5  19
TORSDOF 8
ENDMDL
MODEL 4
REMARK VINA RESULT:      -5.6      0.678     11.737
REMARK  Name = 969516_Curcumin.pdbqt.pdb
REMARK  8 active torsions:
REMARK  status: ('A' for Active; 'I' for Inactive)
REMARK    1  A    between atoms: C_3  and  C_5
REMARK    2  A    between atoms: C_4  and  C_6
REMARK    3  A    between atoms: C_8  and  O_12
REMARK    4  A    between atoms: C_10  and  O_14
REMARK    5  A    between atoms: C_17  and  C_19
REMARK    6  A    between atoms: C_18  and  C_20
REMARK    7  A    between atoms: C_22  and  O_26
REMARK    8  A    between atoms: C_24  and  O_28
REMARK                            x       y       z     vdW  Elec       q    Type
REMARK                         _______ _______ _______ _____ _____    ______ ____
ROOT
ATOM      1  C   UNL     1       2.520 -13.901  17.372  0.00  0.00    +0.000 C 
ATOM      2  O   UNL     1       2.834 -12.233  18.912  0.00  0.00    +0.000 OA
ATOM      3  C   UNL     1       2.185 -13.211  18.574  0.00  0.00    +0.000 C 
ATOM      4  O   UNL     1       2.431 -15.719  15.980  0.00  0.00    +0.000 OA
ATOM      5  C   UNL     1       2.860 -14.591  16.173  0.00  0.00    +0.000 C 
ENDROOT
BRANCH   3   7
ATOM      6  C   UNL     1       0.161 -14.054  20.050  0.00  0.00    +0.000 C 
ATOM      7  C   UNL     1       1.081 -13.670  19.379  0.00  0.00    +0.000 C 
BRANCH   6   8
ATOM      8  C   UNL     1      -0.930 -14.510  20.848  0.00  0.00    +0.000 A 
ATOM      9  C   UNL     1      -0.684 -15.263  21.995  0.00  0.00    +0.000 A 
ATOM     10  C   UNL     1      -1.741 -15.718  22.789  0.00  0.00    +0.000 A 
ATOM     11  C   UNL     1      -2.237 -14.203  20.481  0.00  0.00    +0.000 A 
ATOM     12  C   UNL     1      -3.050 -15.403  22.410  0.00  0.00    +0.000 A 
ATOM     13  C   UNL     1      -3.298 -14.649  21.264  0.00  0.00    +0.000 A 
BRANCH  10  14
ATOM     14  O   UNL     1      -1.577 -16.462  23.931  0.00  0.00    +0.000 OA
ATOM     15  C   UNL     1      -1.149 -15.762  25.065  0.00  0.00    +0.000 C 
ENDBRANCH  10  14
BRANCH  12  16
ATOM     16  O   UNL     1      -4.147 -15.803  23.123  0.00  0.00    +0.000 OA
ATOM     17  H   UNL     1      -4.906 -15.224  22.937  0.00  0.00    +0.000 HD
ENDBRANCH  12  16
ENDBRANCH   6   8
ENDBRANCH   3   7
BRANCH   5  19
ATOM     18  C   UNL     1       4.408 -13.423  14.378  0.00  0.00    +0.000 C 
ATOM     19  C   UNL     1       3.706 -13.955  15.196  0.00  0.00    +0.000 C 
BRANCH  18  20
ATOM     20  C   UNL     1       5.239 -12.795  13.404  0.00  0.00    +0.000 A 
ATOM     21  C   UNL     1       4.818 -11.617  12.788  0.00  0.00    +0.000 A 
ATOM     22  C   UNL     1       5.622 -10.990  11.833  0.00  0.00    +0.000 A 
ATOM     23  C   UNL     1       6.469 -13.359  13.071  0.00  0.00    +0.000 A 
ATOM     24  C   UNL     1       6.853 -11.566  11.508  0.00  0.00    +0.000 A 
ATOM     25  C   UNL     1       7.278 -12.743  12.121  0.00  0.00    +0.000 A 
BRANCH  22  26
ATOM     26  O   UNL     1       5.285  -9.830  11.178  0.00  0.00    +0.000 OA
ATOM     27  C   UNL     1       4.226  -9.102  11.745  0.00  0.00    +0.000 C 
ENDBRANCH  22  26
BRANCH  24  28
ATOM     28  O   UNL     1       7.654 -10.966  10.575  0.00  0.00    +0.000 OA
ATOM     29  H   UNL     1       7.972 -10.117  10.935  0.00  0.00    +0.000 HD
ENDBRANCH  24  28
ENDBRANCH  18  20
ENDBRANCH   5  19
TORSDOF 8
ENDMDL
MODEL 5
REMARK VINA RESULT:      -5.5     25.571     29.231
REMARK  Name = 969516_Curcumin.pdbqt.pdb
REMARK  8 active torsions:
REMARK  status: ('A' for Active; 'I' for Inactive)
REMARK    1  A    between atoms: C_3  and  C_5
REMARK    2  A    between atoms: C_4  and  C_6
REMARK    3  A    between atoms: C_8  and  O_12
REMARK    4  A    between atoms: C_10  and  O_14
REMARK    5  A    between atoms: C_17  and  C_19
REMARK    6  A    between atoms: C_18  and  C_20
REMARK    7  A    between atoms: C_22  and  O_26
REMARK    8  A    between atoms: C_24  and  O_28
REMARK                            x       y       z     vdW  Elec       q    Type
REMARK                         _______ _______ _______ _____ _____    ______ ____
ROOT
ATOM      1  C   UNL     1     -13.279   6.493   6.129  0.00  0.00    +0.000 C 
ATOM      2  O   UNL     1     -14.317   6.777   8.152  0.00  0.00    +0.000 OA
ATOM      3  C   UNL     1     -14.388   6.881   6.937  0.00  0.00    +0.000 C 
ATOM      4  O   UNL     1     -12.329   5.915   4.125  0.00  0.00    +0.000 OA
ATOM      5  C   UNL     1     -12.172   6.100   5.323  0.00  0.00    +0.000 C 
ENDROOT
BRANCH   3   7
ATOM      6  C   UNL     1     -16.575   7.829   5.798  0.00  0.00    +0.000 C 
ATOM      7  C   UNL     1     -15.581   7.398   6.315  0.00  0.00    +0.000 C 
BRANCH   6   8
ATOM      8  C   UNL     1     -17.756   8.343   5.183  0.00  0.00    +0.000 A 
ATOM      9  C   UNL     1     -17.983   8.124   3.825  0.00  0.00    +0.000 A 
ATOM     10  C   UNL     1     -19.134   8.620   3.206  0.00  0.00    +0.000 A 
ATOM     11  C   UNL     1     -18.677   9.063   5.938  0.00  0.00    +0.000 A 
ATOM     12  C   UNL     1     -20.053   9.341   3.974  0.00  0.00    +0.000 A 
ATOM     13  C   UNL     1     -19.827   9.561   5.333  0.00  0.00    +0.000 A 
BRANCH  10  14
ATOM     14  O   UNL     1     -19.426   8.444   1.876  0.00  0.00    +0.000 OA
ATOM     15  C   UNL     1     -18.723   7.424   1.222  0.00  0.00    +0.000 C 
ENDBRANCH  10  14
BRANCH  12  16
ATOM     16  O   UNL     1     -21.206   9.865   3.458  0.00  0.00    +0.000 OA
ATOM     17  H   UNL     1     -21.945   9.242   3.567  0.00  0.00    +0.000 HD
ENDBRANCH  12  16
ENDBRANCH   6   8
ENDBRANCH   3   7
BRANCH   5  19
ATOM     18  C   UNL     1      -9.791   5.780   6.423  0.00  0.00    +0.000 C 
ATOM     19  C   UNL     1     -10.875   5.925   5.925  0.00  0.00    +0.000 C 
BRANCH  18  20
ATOM     20  C   UNL     1      -8.504   5.603   7.011  0.00  0.00    +0.000 A 
ATOM     21  C   UNL     1      -8.269   6.045   8.312  0.00  0.00    +0.000 A 
ATOM     22  C   UNL     1      -7.013   5.878   8.903  0.00  0.00    +0.000 A 
ATOM     23  C   UNL     1      -7.486   4.988   6.286  0.00  0.00    +0.000 A 
ATOM     24  C   UNL     1      -6.001   5.259   8.164  0.00  0.00    +0.000 A 
ATOM     25  C   UNL     1      -6.231   4.816   6.863  0.00  0.00    +0.000 A 
BRANCH  22  26
ATOM     26  O   UNL     1      -6.697   6.284  10.177  0.00  0.00    +0.000 OA
ATOM     27  C   UNL     1      -6.711   7.671  10.391  0.00  0.00    +0.000 C 
ENDBRANCH  22  26
BRANCH  24  28
ATOM     28  O   UNL     1      -4.765   5.087   8.725  0.00  0.00    +0.000 OA
ATOM     29  H   UNL     1      -4.441   5.952   9.040  0.00  0.00    +0.000 HD
ENDBRANCH  24  28
ENDBRANCH  18  20
ENDBRANCH   5  19
TORSDOF 8
ENDMDL
MODEL 6
REMARK VINA RESULT:      -5.4     17.652     19.562
REMARK  Name = 969516_Curcumin.pdbqt.pdb
REMARK  8 active torsions:
REMARK  status: ('A' for Active; 'I' for Inactive)
REMARK    1  A    between atoms: C_3  and  C_5
REMARK    2  A    between atoms: C_4  and  C_6
REMARK    3  A    between atoms: C_8  and  O_12
REMARK    4  A    between atoms: C_10  and  O_14
REMARK    5  A    between atoms: C_17  and  C_19
REMARK    6  A    between atoms: C_18  and  C_20
REMARK    7  A    between atoms: C_22  and  O_26
REMARK    8  A    between atoms: C_24  and  O_28
REMARK                            x       y       z     vdW  Elec       q    Type
REMARK                         _______ _______ _______ _____ _____    ______ ____
ROOT
ATOM      1  C   UNL     1       0.126  -5.544   0.646  0.00  0.00    +0.000 C 
ATOM      2  O   UNL     1       0.125  -7.531   1.789  0.00  0.00    +0.000 OA
ATOM      3  C   UNL     1       0.124  -6.969   0.704  0.00  0.00    +0.000 C 
ATOM      4  O   UNL     1       0.432  -3.555  -0.451  0.00  0.00    +0.000 OA
ATOM      5  C   UNL     1       0.132  -4.121   0.591  0.00  0.00    +0.000 C 
ENDROOT
BRANCH   3   7
ATOM      6  C   UNL     1       0.114  -8.373  -1.535  0.00  0.00    +0.000 C 
ATOM      7  C   UNL     1       0.118  -7.735  -0.517  0.00  0.00    +0.000 C 
BRANCH   6   8
ATOM      8  C   UNL     1       0.111  -9.131  -2.743  0.00  0.00    +0.000 A 
ATOM      9  C   UNL     1       1.297  -9.695  -3.213  0.00  0.00    +0.000 A 
ATOM     10  C   UNL     1       1.312 -10.441  -4.395  0.00  0.00    +0.000 A 
ATOM     11  C   UNL     1      -1.074  -9.307  -3.451  0.00  0.00    +0.000 A 
ATOM     12  C   UNL     1       0.115 -10.611  -5.098  0.00  0.00    +0.000 A 
ATOM     13  C   UNL     1      -1.072 -10.049  -4.629  0.00  0.00    +0.000 A 
BRANCH  10  14
ATOM     14  O   UNL     1       2.438 -11.025  -4.918  0.00  0.00    +0.000 OA
ATOM     15  C   UNL     1       3.616 -10.272  -4.839  0.00  0.00    +0.000 C 
ENDBRANCH  10  14
BRANCH  12  16
ATOM     16  O   UNL     1       0.031 -11.324  -6.262  0.00  0.00    +0.000 OA
ATOM     17  H   UNL     1       0.853 -11.819  -6.421  0.00  0.00    +0.000 HD
ENDBRANCH  12  16
ENDBRANCH   6   8
ENDBRANCH   3   7
BRANCH   5  19
ATOM     18  C   UNL     1      -0.508  -2.724   2.740  0.00  0.00    +0.000 C 
ATOM     19  C   UNL     1      -0.216  -3.357   1.762  0.00  0.00    +0.000 C 
BRANCH  18  20
ATOM     20  C   UNL     1      -0.858  -1.975   3.902  0.00  0.00    +0.000 A 
ATOM     21  C   UNL     1       0.073  -1.112   4.479  0.00  0.00    +0.000 A 
ATOM     22  C   UNL     1      -0.256  -0.371   5.617  0.00  0.00    +0.000 A 
ATOM     23  C   UNL     1      -2.129  -2.107   4.458  0.00  0.00    +0.000 A 
ATOM     24  C   UNL     1      -1.534  -0.512   6.164  0.00  0.00    +0.000 A 
ATOM     25  C   UNL     1      -2.468  -1.374   5.592  0.00  0.00    +0.000 A 
BRANCH  22  26
ATOM     26  O   UNL     1       0.599   0.500   6.248  0.00  0.00    +0.000 OA
ATOM     27  C   UNL     1       1.916   0.042   6.412  0.00  0.00    +0.000 C 
ENDBRANCH  22  26
BRANCH  24  28
ATOM     28  O   UNL     1      -1.875   0.205   7.278  0.00  0.00    +0.000 OA
ATOM     29  H   UNL     1      -1.058   0.487   7.731  0.00  0.00    +0.000 HD
ENDBRANCH  24  28
ENDBRANCH  18  20
ENDBRANCH   5  19
TORSDOF 8
ENDMDL
MODEL 7
REMARK VINA RESULT:      -5.4      2.302      3.970
REMARK  Name = 969516_Curcumin.pdbqt.pdb
REMARK  8 active torsions:
REMARK  status: ('A' for Active; 'I' for Inactive)
REMARK    1  A    between atoms: C_3  and  C_5
REMARK    2  A    between atoms: C_4  and  C_6
REMARK    3  A    between atoms: C_8  and  O_12
REMARK    4  A    between atoms: C_10  and  O_14
REMARK    5  A    between atoms: C_17  and  C_19
REMARK    6  A    between atoms: C_18  and  C_20
REMARK    7  A    between atoms: C_22  and  O_26
REMARK    8  A    between atoms: C_24  and  O_28
REMARK                            x       y       z     vdW  Elec       q    Type
REMARK                         _______ _______ _______ _____ _____    ______ ____
ROOT
ATOM      1  C   UNL     1      -0.364 -14.032  19.178  0.00  0.00    +0.000 C 
ATOM      2  O   UNL     1       1.624 -13.957  20.316  0.00  0.00    +0.000 OA
ATOM      3  C   UNL     1       1.052 -13.880  19.239  0.00  0.00    +0.000 C 
ATOM      4  O   UNL     1      -2.388 -13.815  18.126  0.00  0.00    +0.000 OA
ATOM      5  C   UNL     1      -1.780 -14.181  19.120  0.00  0.00    +0.000 C 
ENDROOT
BRANCH   3   7
ATOM      6  C   UNL     1       2.422 -13.440  17.022  0.00  0.00    +0.000 C 
ATOM      7  C   UNL     1       1.799 -13.639  18.030  0.00  0.00    +0.000 C 
BRANCH   6   8
ATOM      8  C   UNL     1       3.161 -13.204  15.825  0.00  0.00    +0.000 A 
ATOM      9  C   UNL     1       2.882 -13.947  14.679  0.00  0.00    +0.000 A 
ATOM     10  C   UNL     1       3.597 -13.730  13.497  0.00  0.00    +0.000 A 
ATOM     11  C   UNL     1       4.160 -12.235  15.803  0.00  0.00    +0.000 A 
ATOM     12  C   UNL     1       4.597 -12.753  13.487  0.00  0.00    +0.000 A 
ATOM     13  C   UNL     1       4.877 -12.009  14.632  0.00  0.00    +0.000 A 
BRANCH  10  14
ATOM     14  O   UNL     1       3.378 -14.420  12.331  0.00  0.00    +0.000 OA
ATOM     15  C   UNL     1       2.792 -15.685  12.466  0.00  0.00    +0.000 C 
ENDBRANCH  10  14
BRANCH  12  16
ATOM     16  O   UNL     1       5.348 -12.469  12.379  0.00  0.00    +0.000 OA
ATOM     17  H   UNL     1       5.220 -11.545  12.106  0.00  0.00    +0.000 HD
ENDBRANCH  12  16
ENDBRANCH   6   8
ENDBRANCH   3   7
BRANCH   5  19
ATOM     18  C   UNL     1      -3.068 -15.252  21.163  0.00  0.00    +0.000 C 
ATOM     19  C   UNL     1      -2.484 -14.764  20.234  0.00  0.00    +0.000 C 
BRANCH  18  20
ATOM     20  C   UNL     1      -3.760 -15.836  22.266  0.00  0.00    +0.000 A 
ATOM     21  C   UNL     1      -5.004 -16.433  22.067  0.00  0.00    +0.000 A 
ATOM     22  C   UNL     1      -5.693 -17.010  23.138  0.00  0.00    +0.000 A 
ATOM     23  C   UNL     1      -3.191 -15.809  23.537  0.00  0.00    +0.000 A 
ATOM     24  C   UNL     1      -5.111 -16.976  24.407  0.00  0.00    +0.000 A 
ATOM     25  C   UNL     1      -3.867 -16.380  24.611  0.00  0.00    +0.000 A 
BRANCH  22  26
ATOM     26  O   UNL     1      -6.921 -17.617  23.030  0.00  0.00    +0.000 OA
ATOM     27  C   UNL     1      -7.959 -16.801  22.553  0.00  0.00    +0.000 C 
ENDBRANCH  22  26
BRANCH  24  28
ATOM     28  O   UNL     1      -5.770 -17.536  25.467  0.00  0.00    +0.000 OA
ATOM     29  H   UNL     1      -6.043 -16.824  26.077  0.00  0.00    +0.000 HD
ENDBRANCH  24  28
ENDBRANCH  18  20
ENDBRANCH   5  19
TORSDOF 8
ENDMDL
MODEL 8
REMARK VINA RESULT:      -5.2     26.047     29.303
REMARK  Name = 969516_Curcumin.pdbqt.pdb
REMARK  8 active torsions:
REMARK  status: ('A' for Active; 'I' for Inactive)
REMARK    1  A    between atoms: C_3  and  C_5
REMARK    2  A    between atoms: C_4  and  C_6
REMARK    3  A    between atoms: C_8  and  O_12
REMARK    4  A    between atoms: C_10  and  O_14
REMARK    5  A    between atoms: C_17  and  C_19
REMARK    6  A    between atoms: C_18  and  C_20
REMARK    7  A    between atoms: C_22  and  O_26
REMARK    8  A    between atoms: C_24  and  O_28
REMARK                            x       y       z     vdW  Elec       q    Type
REMARK                         _______ _______ _______ _____ _____    ______ ____
ROOT
ATOM      1  C   UNL     1     -23.543  -5.150  13.842  0.00  0.00    +0.000 C 
ATOM      2  O   UNL     1     -21.662  -6.455  13.953  0.00  0.00    +0.000 OA
ATOM      3  C   UNL     1     -22.794  -6.246  14.362  0.00  0.00    +0.000 C 
ATOM      4  O   UNL     1     -25.501  -4.013  13.484  0.00  0.00    +0.000 OA
ATOM      5  C   UNL     1     -24.291  -4.056  13.317  0.00  0.00    +0.000 C 
ENDROOT
BRANCH   3   7
ATOM      6  C   UNL     1     -23.864  -7.807  16.206  0.00  0.00    +0.000 C 
ATOM      7  C   UNL     1     -23.377  -7.097  15.368  0.00  0.00    +0.000 C 
BRANCH   6   8
ATOM      8  C   UNL     1     -24.442  -8.651  17.201  0.00  0.00    +0.000 A 
ATOM      9  C   UNL     1     -25.595  -8.246  17.872  0.00  0.00    +0.000 A 
ATOM     10  C   UNL     1     -26.174  -9.060  18.849  0.00  0.00    +0.000 A 
ATOM     11  C   UNL     1     -23.855  -9.877  17.500  0.00  0.00    +0.000 A 
ATOM     12  C   UNL     1     -25.576 -10.290  19.141  0.00  0.00    +0.000 A 
ATOM     13  C   UNL     1     -24.423 -10.697  18.470  0.00  0.00    +0.000 A 
BRANCH  10  14
ATOM     14  O   UNL     1     -27.308  -8.729  19.550  0.00  0.00    +0.000 OA
ATOM     15  C   UNL     1     -28.106  -7.725  18.988  0.00  0.00    +0.000 C 
ENDBRANCH  10  14
BRANCH  12  16
ATOM     16  O   UNL     1     -26.070 -11.154  20.079  0.00  0.00    +0.000 OA
ATOM     17  H   UNL     1     -26.960 -10.881  20.361  0.00  0.00    +0.000 HD
ENDBRANCH  12  16
ENDBRANCH   6   8
ENDBRANCH   3   7
BRANCH   5  19
ATOM     18  C   UNL     1     -23.056  -2.133  11.992  0.00  0.00    +0.000 C 
ATOM     19  C   UNL     1     -23.615  -3.008  12.595  0.00  0.00    +0.000 C 
BRANCH  18  20
ATOM     20  C   UNL     1     -22.394  -1.095  11.271  0.00  0.00    +0.000 A 
ATOM     21  C   UNL     1     -22.547  -1.003   9.889  0.00  0.00    +0.000 A 
ATOM     22  C   UNL     1     -21.906   0.009   9.169  0.00  0.00    +0.000 A 
ATOM     23  C   UNL     1     -21.598  -0.174  11.950  0.00  0.00    +0.000 A 
ATOM     24  C   UNL     1     -21.111   0.925   9.862  0.00  0.00    +0.000 A 
ATOM     25  C   UNL     1     -20.955   0.838  11.245  0.00  0.00    +0.000 A 
BRANCH  22  26
ATOM     26  O   UNL     1     -22.001   0.171   7.808  0.00  0.00    +0.000 OA
ATOM     27  C   UNL     1     -22.317  -0.989   7.082  0.00  0.00    +0.000 C 
ENDBRANCH  22  26
BRANCH  24  28
ATOM     28  O   UNL     1     -20.475   1.923   9.175  0.00  0.00    +0.000 OA
ATOM     29  H   UNL     1     -20.089   2.548   9.818  0.00  0.00    +0.000 HD
ENDBRANCH  24  28
ENDBRANCH  18  20
ENDBRANCH   5  19
TORSDOF 8
ENDMDL
MODEL 9
REMARK VINA RESULT:      -5.2      1.929     11.829
REMARK  Name = 969516_Curcumin.pdbqt.pdb
REMARK  8 active torsions:
REMARK  status: ('A' for Active; 'I' for Inactive)
REMARK    1  A    between atoms: C_3  and  C_5
REMARK    2  A    between atoms: C_4  and  C_6
REMARK    3  A    between atoms: C_8  and  O_12
REMARK    4  A    between atoms: C_10  and  O_14
REMARK    5  A    between atoms: C_17  and  C_19
REMARK    6  A    between atoms: C_18  and  C_20
REMARK    7  A    between atoms: C_22  and  O_26
REMARK    8  A    between atoms: C_24  and  O_28
REMARK                            x       y       z     vdW  Elec       q    Type
REMARK                         _______ _______ _______ _____ _____    ______ ____
ROOT
ATOM      1  C   UNL     1       0.736 -13.866  19.155  0.00  0.00    +0.000 C 
ATOM      2  O   UNL     1      -0.069 -12.033  20.271  0.00  0.00    +0.000 OA
ATOM      3  C   UNL     1      -0.187 -13.225  20.033  0.00  0.00    +0.000 C 
ATOM      4  O   UNL     1       1.743 -15.724  18.269  0.00  0.00    +0.000 OA
ATOM      5  C   UNL     1       1.661 -14.505  18.281  0.00  0.00    +0.000 C 
ENDROOT
BRANCH   3   7
ATOM      6  C   UNL     1      -2.143 -14.624  21.129  0.00  0.00    +0.000 C 
ATOM      7  C   UNL     1      -1.254 -13.988  20.630  0.00  0.00    +0.000 C 
BRANCH   6   8
ATOM      8  C   UNL     1      -3.199 -15.378  21.723  0.00  0.00    +0.000 A 
ATOM      9  C   UNL     1      -4.267 -15.813  20.940  0.00  0.00    +0.000 A 
ATOM     10  C   UNL     1      -5.310 -16.553  21.505  0.00  0.00    +0.000 A 
ATOM     11  C   UNL     1      -3.161 -15.678  23.082  0.00  0.00    +0.000 A 
ATOM     12  C   UNL     1      -5.261 -16.849  22.871  0.00  0.00    +0.000 A 
ATOM     13  C   UNL     1      -4.193 -16.415  23.655  0.00  0.00    +0.000 A 
BRANCH  10  14
ATOM     14  O   UNL     1      -6.392 -17.016  20.799  0.00  0.00    +0.000 OA
ATOM     15  C   UNL     1      -7.116 -16.054  20.083  0.00  0.00    +0.000 C 
ENDBRANCH  10  14
BRANCH  12  16
ATOM     16  O   UNL     1      -6.234 -17.566  23.512  0.00  0.00    +0.000 OA
ATOM     17  H   UNL     1      -7.065 -17.542  23.010  0.00  0.00    +0.000 HD
ENDBRANCH  12  16
ENDBRANCH   6   8
ENDBRANCH   3   7
BRANCH   5  19
ATOM     18  C   UNL     1       3.186 -13.043  16.693  0.00  0.00    +0.000 C 
ATOM     19  C   UNL     1       2.494 -13.709  17.415  0.00  0.00    +0.000 C 
BRANCH  18  20
ATOM     20  C   UNL     1       4.003 -12.251  15.834  0.00  0.00    +0.000 A 
ATOM     21  C   UNL     1       3.975 -12.467  14.457  0.00  0.00    +0.000 A 
ATOM     22  C   UNL     1       4.770 -11.698  13.601  0.00  0.00    +0.000 A 
ATOM     23  C   UNL     1       4.826 -11.263  16.371  0.00  0.00    +0.000 A 
ATOM     24  C   UNL     1       5.590 -10.711  14.153  0.00  0.00    +0.000 A 
ATOM     25  C   UNL     1       5.621 -10.491  15.529  0.00  0.00    +0.000 A 
BRANCH  22  26
ATOM     26  O   UNL     1       4.803 -11.845  12.236  0.00  0.00    +0.000 OA
ATOM     27  C   UNL     1       5.298 -13.075  11.772  0.00  0.00    +0.000 C 
ENDBRANCH  22  26
BRANCH  24  28
ATOM     28  O   UNL     1       6.375  -9.948  13.332  0.00  0.00    +0.000 OA
ATOM     29  H   UNL     1       7.056  -9.507  13.873  0.00  0.00    +0.000 HD
ENDBRANCH  24  28
ENDBRANCH  18  20
ENDBRANCH   5  19
TORSDOF 8
ENDMDL
