MODEL 1
REMARK VINA RESULT:      -3.0      0.000      0.000
REMARK  Name = 971_OxalicAcid.pdbqt.pdb
REMARK  3 active torsions:
REMARK  status: ('A' for Active; 'I' for Inactive)
REMARK    1  A    between atoms: C_2  and  O_3
REMARK    2  A    between atoms: C_2  and  C_6
REMARK    3  A    between atoms: C_6  and  O_7
REMARK                            x       y       z     vdW  Elec       q    Type
REMARK                         _______ _______ _______ _____ _____    ______ ____
ROOT
ATOM      1  O   UNL     1     -14.931 -12.833   6.050  0.00  0.00    +0.000 OA
ATOM      2  C   UNL     1     -15.785 -12.254   6.693  0.00  0.00    +0.000 C 
ENDROOT
BRANCH   2   3
ATOM      3  O   UNL     1     -15.500 -11.184   7.448  0.00  0.00    +0.000 OA
ATOM      4  H   UNL     1     -16.144 -10.505   7.163  0.00  0.00    +0.000 HD
ENDBRANCH   2   3
BRANCH   2   6
ATOM      5  O   UNL     1     -18.040 -12.703   5.787  0.00  0.00    +0.000 OA
ATOM      6  C   UNL     1     -17.295 -12.642   6.745  0.00  0.00    +0.000 C 
BRANCH   6   7
ATOM      7  O   UNL     1     -17.716 -12.914   7.988  0.00  0.00    +0.000 OA
ATOM      8  H   UNL     1     -17.697 -13.891   8.045  0.00  0.00    +0.000 HD
ENDBRANCH   6   7
ENDBRANCH   2   6
TORSDOF 3
ENDMDL
MODEL 2
REMARK VINA RESULT:      -3.0     10.860     11.685
REMARK  Name = 971_OxalicAcid.pdbqt.pdb
REMARK  3 active torsions:
REMARK  status: ('A' for Active; 'I' for Inactive)
REMARK    1  A    between atoms: C_2  and  O_3
REMARK    2  A    between atoms: C_2  and  C_6
REMARK    3  A    between atoms: C_6  and  O_7
REMARK                            x       y       z     vdW  Elec       q    Type
REMARK                         _______ _______ _______ _____ _____    ______ ____
ROOT
ATOM      1  O   UNL     1     -23.851  -4.864  13.925  0.00  0.00    +0.000 OA
ATOM      2  C   UNL     1     -22.660  -4.920  14.158  0.00  0.00    +0.000 C 
ENDROOT
BRANCH   2   3
ATOM      3  O   UNL     1     -22.061  -4.066  14.999  0.00  0.00    +0.000 OA
ATOM      4  H   UNL     1     -21.104  -4.190  14.835  0.00  0.00    +0.000 HD
ENDBRANCH   2   3
BRANCH   2   6
ATOM      5  O   UNL     1     -21.465  -7.075  13.967  0.00  0.00    +0.000 OA
ATOM      6  C   UNL     1     -21.667  -5.954  13.542  0.00  0.00    +0.000 C 
BRANCH   6   7
ATOM      7  O   UNL     1     -21.031  -5.480  12.462  0.00  0.00    +0.000 OA
ATOM      8  H   UNL     1     -21.711  -4.965  11.983  0.00  0.00    +0.000 HD
ENDBRANCH   6   7
ENDBRANCH   2   6
TORSDOF 3
ENDMDL
MODEL 3
REMARK VINA RESULT:      -2.9      9.715     10.901
REMARK  Name = 971_OxalicAcid.pdbqt.pdb
REMARK  3 active torsions:
REMARK  status: ('A' for Active; 'I' for Inactive)
REMARK    1  A    between atoms: C_2  and  O_3
REMARK    2  A    between atoms: C_2  and  C_6
REMARK    3  A    between atoms: C_6  and  O_7
REMARK                            x       y       z     vdW  Elec       q    Type
REMARK                         _______ _______ _______ _____ _____    ______ ____
ROOT
ATOM      1  O   UNL     1      -9.219 -10.326  -0.818  0.00  0.00    +0.000 OA
ATOM      2  C   UNL     1      -9.863  -9.375  -0.423  0.00  0.00    +0.000 C 
ENDROOT
BRANCH   2   3
ATOM      3  O   UNL     1     -11.033  -9.526   0.213  0.00  0.00    +0.000 OA
ATOM      4  H   UNL     1     -11.336 -10.420  -0.041  0.00  0.00    +0.000 HD
ENDBRANCH   2   3
BRANCH   2   6
ATOM      5  O   UNL     1      -8.497  -7.473  -1.212  0.00  0.00    +0.000 OA
ATOM      6  C   UNL     1      -9.454  -7.878  -0.583  0.00  0.00    +0.000 C 
BRANCH   6   7
ATOM      7  O   UNL     1     -10.284  -7.044   0.060  0.00  0.00    +0.000 OA
ATOM      8  H   UNL     1     -10.553  -6.394  -0.620  0.00  0.00    +0.000 HD
ENDBRANCH   6   7
ENDBRANCH   2   6
TORSDOF 3
ENDMDL
MODEL 4
REMARK VINA RESULT:      -2.8      0.669      2.543
REMARK  Name = 971_OxalicAcid.pdbqt.pdb
REMARK  3 active torsions:
REMARK  status: ('A' for Active; 'I' for Inactive)
REMARK    1  A    between atoms: C_2  and  O_3
REMARK    2  A    between atoms: C_2  and  C_6
REMARK    3  A    between atoms: C_6  and  O_7
REMARK                            x       y       z     vdW  Elec       q    Type
REMARK                         _______ _______ _______ _____ _____    ______ ____
ROOT
ATOM      1  O   UNL     1     -17.573 -14.042   6.235  0.00  0.00    +0.000 OA
ATOM      2  C   UNL     1     -17.110 -13.166   6.938  0.00  0.00    +0.000 C 
ENDROOT
BRANCH   2   3
ATOM      3  O   UNL     1     -17.753 -12.715   8.025  0.00  0.00    +0.000 OA
ATOM      4  H   UNL     1     -18.132 -13.518   8.435  0.00  0.00    +0.000 HD
ENDBRANCH   2   3
BRANCH   2   6
ATOM      5  O   UNL     1     -14.853 -12.847   5.984  0.00  0.00    +0.000 OA
ATOM      6  C   UNL     1     -15.746 -12.447   6.705  0.00  0.00    +0.000 C 
BRANCH   6   7
ATOM      7  O   UNL     1     -15.638 -11.304   7.398  0.00  0.00    +0.000 OA
ATOM      8  H   UNL     1     -16.001 -10.620   6.800  0.00  0.00    +0.000 HD
ENDBRANCH   6   7
ENDBRANCH   2   6
TORSDOF 3
ENDMDL
MODEL 5
REMARK VINA RESULT:      -2.7     16.725     17.392
REMARK  Name = 971_OxalicAcid.pdbqt.pdb
REMARK  3 active torsions:
REMARK  status: ('A' for Active; 'I' for Inactive)
REMARK    1  A    between atoms: C_2  and  O_3
REMARK    2  A    between atoms: C_2  and  C_6
REMARK    3  A    between atoms: C_6  and  O_7
REMARK                            x       y       z     vdW  Elec       q    Type
REMARK                         _______ _______ _______ _____ _____    ______ ____
ROOT
ATOM      1  O   UNL     1     -11.882  -3.459  21.790  0.00  0.00    +0.000 OA
ATOM      2  C   UNL     1     -11.263  -4.028  20.912  0.00  0.00    +0.000 C 
ENDROOT
BRANCH   2   3
ATOM      3  O   UNL     1     -11.398  -3.697  19.620  0.00  0.00    +0.000 OA
ATOM      4  H   UNL     1     -10.731  -2.996  19.476  0.00  0.00    +0.000 HD
ENDBRANCH   2   3
BRANCH   2   6
ATOM      5  O   UNL     1      -9.300  -5.443  20.413  0.00  0.00    +0.000 OA
ATOM      6  C   UNL     1     -10.247  -5.191  21.132  0.00  0.00    +0.000 C 
BRANCH   6   7
ATOM      7  O   UNL     1     -10.520  -5.916  22.225  0.00  0.00    +0.000 OA
ATOM      8  H   UNL     1     -11.005  -5.302  22.812  0.00  0.00    +0.000 HD
ENDBRANCH   6   7
ENDBRANCH   2   6
TORSDOF 3
ENDMDL
MODEL 6
REMARK VINA RESULT:      -2.7     19.876     20.968
REMARK  Name = 971_OxalicAcid.pdbqt.pdb
REMARK  3 active torsions:
REMARK  status: ('A' for Active; 'I' for Inactive)
REMARK    1  A    between atoms: C_2  and  O_3
REMARK    2  A    between atoms: C_2  and  C_6
REMARK    3  A    between atoms: C_6  and  O_7
REMARK                            x       y       z     vdW  Elec       q    Type
REMARK                         _______ _______ _______ _____ _____    ______ ____
ROOT
ATOM      1  O   UNL     1     -14.126   8.392  14.895  0.00  0.00    +0.000 OA
ATOM      2  C   UNL     1     -13.566   7.693  14.074  0.00  0.00    +0.000 C 
ENDROOT
BRANCH   2   3
ATOM      3  O   UNL     1     -12.294   7.906  13.712  0.00  0.00    +0.000 OA
ATOM      4  H   UNL     1     -12.301   8.795  13.303  0.00  0.00    +0.000 HD
ENDBRANCH   2   3
BRANCH   2   6
ATOM      5  O   UNL     1     -14.203   5.329  13.732  0.00  0.00    +0.000 OA
ATOM      6  C   UNL     1     -14.207   6.478  13.335  0.00  0.00    +0.000 C 
BRANCH   6   7
ATOM      7  O   UNL     1     -14.786   6.825  12.176  0.00  0.00    +0.000 OA
ATOM      8  H   UNL     1     -14.610   7.783  12.092  0.00  0.00    +0.000 HD
ENDBRANCH   6   7
ENDBRANCH   2   6
TORSDOF 3
ENDMDL
MODEL 7
REMARK VINA RESULT:      -2.7     15.217     16.064
REMARK  Name = 971_OxalicAcid.pdbqt.pdb
REMARK  3 active torsions:
REMARK  status: ('A' for Active; 'I' for Inactive)
REMARK    1  A    between atoms: C_2  and  O_3
REMARK    2  A    between atoms: C_2  and  C_6
REMARK    3  A    between atoms: C_6  and  O_7
REMARK                            x       y       z     vdW  Elec       q    Type
REMARK                         _______ _______ _______ _____ _____    ______ ____
ROOT
ATOM      1  O   UNL     1     -11.453  -3.515  19.429  0.00  0.00    +0.000 OA
ATOM      2  C   UNL     1     -10.574  -3.475  18.591  0.00  0.00    +0.000 C 
ENDROOT
BRANCH   2   3
ATOM      3  O   UNL     1     -10.528  -2.515  17.657  0.00  0.00    +0.000 OA
ATOM      4  H   UNL     1     -11.377  -2.600  17.177  0.00  0.00    +0.000 HD
ENDBRANCH   2   3
BRANCH   2   6
ATOM      5  O   UNL     1      -8.701  -4.879  19.383  0.00  0.00    +0.000 OA
ATOM      6  C   UNL     1      -9.399  -4.494  18.466  0.00  0.00    +0.000 C 
BRANCH   6   7
ATOM      7  O   UNL     1      -9.219  -4.923  17.209  0.00  0.00    +0.000 OA
ATOM      8  H   UNL     1      -8.252  -4.871  17.069  0.00  0.00    +0.000 HD
ENDBRANCH   6   7
ENDBRANCH   2   6
TORSDOF 3
ENDMDL
MODEL 8
REMARK VINA RESULT:      -2.7      7.309      7.716
REMARK  Name = 971_OxalicAcid.pdbqt.pdb
REMARK  3 active torsions:
REMARK  status: ('A' for Active; 'I' for Inactive)
REMARK    1  A    between atoms: C_2  and  O_3
REMARK    2  A    between atoms: C_2  and  C_6
REMARK    3  A    between atoms: C_6  and  O_7
REMARK                            x       y       z     vdW  Elec       q    Type
REMARK                         _______ _______ _______ _____ _____    ______ ____
ROOT
ATOM      1  O   UNL     1     -12.601 -16.979  13.830  0.00  0.00    +0.000 OA
ATOM      2  C   UNL     1     -12.518 -16.196  12.904  0.00  0.00    +0.000 C 
ENDROOT
BRANCH   2   3
ATOM      3  O   UNL     1     -11.366 -15.991  12.250  0.00  0.00    +0.000 OA
ATOM      4  H   UNL     1     -11.048 -15.126  12.578  0.00  0.00    +0.000 HD
ENDBRANCH   2   3
BRANCH   2   6
ATOM      5  O   UNL     1     -14.042 -15.295  11.180  0.00  0.00    +0.000 OA
ATOM      6  C   UNL     1     -13.690 -15.333  12.342  0.00  0.00    +0.000 C 
BRANCH   6   7
ATOM      7  O   UNL     1     -14.299 -14.609  13.291  0.00  0.00    +0.000 OA
ATOM      8  H   UNL     1     -14.934 -14.048  12.802  0.00  0.00    +0.000 HD
ENDBRANCH   6   7
ENDBRANCH   2   6
TORSDOF 3
ENDMDL
MODEL 9
REMARK VINA RESULT:      -2.7     16.316     17.041
REMARK  Name = 971_OxalicAcid.pdbqt.pdb
REMARK  3 active torsions:
REMARK  status: ('A' for Active; 'I' for Inactive)
REMARK    1  A    between atoms: C_2  and  O_3
REMARK    2  A    between atoms: C_2  and  C_6
REMARK    3  A    between atoms: C_6  and  O_7
REMARK                            x       y       z     vdW  Elec       q    Type
REMARK                         _______ _______ _______ _____ _____    ______ ____
ROOT
ATOM      1  O   UNL     1      -8.846  -4.956  20.023  0.00  0.00    +0.000 OA
ATOM      2  C   UNL     1      -9.908  -4.873  20.608  0.00  0.00    +0.000 C 
ENDROOT
BRANCH   2   3
ATOM      3  O   UNL     1     -10.187  -5.627  21.680  0.00  0.00    +0.000 OA
ATOM      4  H   UNL     1      -9.361  -5.622  22.205  0.00  0.00    +0.000 HD
ENDBRANCH   2   3
BRANCH   2   6
ATOM      5  O   UNL     1     -11.440  -3.663  19.094  0.00  0.00    +0.000 OA
ATOM      6  C   UNL     1     -11.077  -3.914  20.226  0.00  0.00    +0.000 C 
BRANCH   6   7
ATOM      7  O   UNL     1     -11.671  -3.370  21.298  0.00  0.00    +0.000 OA
ATOM      8  H   UNL     1     -10.960  -2.866  21.742  0.00  0.00    +0.000 HD
ENDBRANCH   6   7
ENDBRANCH   2   6
TORSDOF 3
ENDMDL
