MODEL 1
REMARK VINA RESULT:      -6.5      0.000      0.000
REMARK  Name = 9852185_GambogicAcid.pdbqt.pdb
REMARK  10 active torsions:
REMARK  status: ('A' for Active; 'I' for Inactive)
REMARK    1  A    between atoms: C_8  and  C_30
REMARK    2  A    between atoms: C_20  and  C_38
REMARK    3  A    between atoms: C_21  and  O_28
REMARK    4  A    between atoms: C_25  and  C_43
REMARK    5  A    between atoms: C_31  and  C_32
REMARK    6  A    between atoms: C_32  and  C_35
REMARK    7  A    between atoms: C_35  and  O_36
REMARK    8  A    between atoms: C_39  and  C_40
REMARK    9  A    between atoms: C_43  and  C_44
REMARK   10  A    between atoms: C_45  and  C_46
REMARK                            x       y       z     vdW  Elec       q    Type
REMARK                         _______ _______ _______ _____ _____    ______ ____
ROOT
ATOM      1  O   UNL     1     -11.485  -2.708  21.036  0.00  0.00    +0.000 OA
ATOM      2  O   UNL     1      -9.421  -1.478  22.625  0.00  0.00    +0.000 OA
ATOM      3  O   UNL     1     -12.882  -5.017  22.708  0.00  0.00    +0.000 OA
ATOM      4  O   UNL     1      -7.773  -3.597  25.746  0.00  0.00    +0.000 OA
ATOM      5  O   UNL     1      -6.180   1.975  23.015  0.00  0.00    +0.000 OA
ATOM      6  C   UNL     1      -9.817  -2.837  22.747  0.00  0.00    +0.000 C 
ATOM      7  C   UNL     1      -9.390  -3.707  21.511  0.00  0.00    +0.000 C 
ATOM      8  C   UNL     1     -11.356  -3.022  22.432  0.00  0.00    +0.000 C 
ATOM      9  C   UNL     1     -10.273  -3.139  20.394  0.00  0.00    +0.000 C 
ATOM     10  C   UNL     1      -9.589  -5.107  21.887  0.00  0.00    +0.000 C 
ATOM     11  C   UNL     1     -10.488  -5.416  22.986  0.00  0.00    +0.000 C 
ATOM     12  C   UNL     1      -9.447  -3.481  24.094  0.00  0.00    +0.000 C 
ATOM     13  C   UNL     1     -11.753  -4.551  22.721  0.00  0.00    +0.000 C 
ATOM     14  C   UNL     1      -9.888  -4.838  24.160  0.00  0.00    +0.000 C 
ATOM     15  C   UNL     1     -10.638  -4.203  19.349  0.00  0.00    +0.000 C 
ATOM     16  C   UNL     1      -9.578  -1.942  19.727  0.00  0.00    +0.000 C 
ATOM     17  C   UNL     1      -8.276  -2.984  24.815  0.00  0.00    +0.000 C 
ATOM     18  C   UNL     1      -8.305  -1.034  23.281  0.00  0.00    +0.000 A 
ATOM     19  C   UNL     1      -7.703  -1.715  24.348  0.00  0.00    +0.000 A 
ATOM     20  C   UNL     1      -7.787   0.208  22.854  0.00  0.00    +0.000 A 
ATOM     21  C   UNL     1      -6.566  -1.184  24.981  0.00  0.00    +0.000 A 
ATOM     22  C   UNL     1      -6.659   0.748  23.481  0.00  0.00    +0.000 A 
ATOM     23  C   UNL     1      -6.053   0.035  24.546  0.00  0.00    +0.000 A 
ATOM     24  C   UNL     1      -4.925   0.687  25.101  0.00  0.00    +0.000 C 
ATOM     25  C   UNL     1      -5.034   2.637  23.684  0.00  0.00    +0.000 C 
ATOM     26  C   UNL     1      -4.531   1.751  24.735  0.00  0.00    +0.000 C 
ATOM     27  C   UNL     1      -5.565   3.976  24.256  0.00  0.00    +0.000 C 
ENDROOT
BRANCH  21  28
ATOM     28  O   UNL     1      -5.933  -1.815  26.019  0.00  0.00    +0.000 OA
ATOM     29  H   UNL     1      -5.677  -1.157  26.703  0.00  0.00    +0.000 HD
ENDBRANCH  21  28
BRANCH   8  30
ATOM     30  C   UNL     1     -12.202  -2.112  23.217  0.00  0.00    +0.000 C 
ATOM     31  C   UNL     1     -13.130  -1.190  24.023  0.00  0.00    +0.000 C 
BRANCH  31  32
ATOM     32  C   UNL     1     -13.960  -0.424  24.672  0.00  0.00    +0.000 C 
ATOM     33  C   UNL     1     -13.416   0.152  25.966  0.00  0.00    +0.000 C 
BRANCH  32  35
ATOM     34  O   UNL     1     -15.566   0.406  23.071  0.00  0.00    +0.000 OA
ATOM     35  C   UNL     1     -15.318  -0.157  24.128  0.00  0.00    +0.000 C 
BRANCH  35  36
ATOM     36  O   UNL     1     -16.327  -0.597  24.911  0.00  0.00    +0.000 OA
ATOM     37  H   UNL     1     -15.981  -0.547  25.826  0.00  0.00    +0.000 HD
ENDBRANCH  35  36
ENDBRANCH  32  35
ENDBRANCH  31  32
ENDBRANCH   8  30
BRANCH  20  38
ATOM     38  C   UNL     1      -8.416   0.914  21.776  0.00  0.00    +0.000 C 
ATOM     39  C   UNL     1      -9.060   1.679  20.610  0.00  0.00    +0.000 C 
BRANCH  39  40
ATOM     40  C   UNL     1      -9.586   2.326  19.617  0.00  0.00    +0.000 C 
ATOM     41  C   UNL     1      -9.718   3.817  19.699  0.00  0.00    +0.000 C 
ATOM     42  C   UNL     1      -9.825   1.624  18.316  0.00  0.00    +0.000 C 
ENDBRANCH  39  40
ENDBRANCH  20  38
BRANCH  25  43
ATOM     43  C   UNL     1      -4.015   2.884  22.647  0.00  0.00    +0.000 C 
BRANCH  43  44
ATOM     44  C   UNL     1      -2.955   3.149  21.570  0.00  0.00    +0.000 C 
ATOM     45  C   UNL     1      -1.893   3.415  20.493  0.00  0.00    +0.000 C 
BRANCH  45  46
ATOM     46  C   UNL     1      -0.997   3.647  19.586  0.00  0.00    +0.000 C 
ATOM     47  C   UNL     1       0.357   3.019  19.706  0.00  0.00    +0.000 C 
ATOM     48  C   UNL     1      -1.252   4.673  18.526  0.00  0.00    +0.000 C 
ENDBRANCH  45  46
ENDBRANCH  43  44
ENDBRANCH  25  43
TORSDOF 10
ENDMDL
MODEL 2
REMARK VINA RESULT:      -6.4     16.185     19.194
REMARK  Name = 9852185_GambogicAcid.pdbqt.pdb
REMARK  10 active torsions:
REMARK  status: ('A' for Active; 'I' for Inactive)
REMARK    1  A    between atoms: C_8  and  C_30
REMARK    2  A    between atoms: C_20  and  C_38
REMARK    3  A    between atoms: C_21  and  O_28
REMARK    4  A    between atoms: C_25  and  C_43
REMARK    5  A    between atoms: C_31  and  C_32
REMARK    6  A    between atoms: C_32  and  C_35
REMARK    7  A    between atoms: C_35  and  O_36
REMARK    8  A    between atoms: C_39  and  C_40
REMARK    9  A    between atoms: C_43  and  C_44
REMARK   10  A    between atoms: C_45  and  C_46
REMARK                            x       y       z     vdW  Elec       q    Type
REMARK                         _______ _______ _______ _____ _____    ______ ____
ROOT
ATOM      1  O   UNL     1      -0.860 -15.195  21.519  0.00  0.00    +0.000 OA
ATOM      2  O   UNL     1       0.834 -15.654  19.235  0.00  0.00    +0.000 OA
ATOM      3  O   UNL     1      -2.137 -17.941  22.467  0.00  0.00    +0.000 OA
ATOM      4  O   UNL     1       0.208 -19.005  16.925  0.00  0.00    +0.000 OA
ATOM      5  O   UNL     1       3.946 -13.863  16.122  0.00  0.00    +0.000 OA
ATOM      6  C   UNL     1      -0.314 -16.432  19.545  0.00  0.00    +0.000 C 
ATOM      7  C   UNL     1      -1.656 -15.644  19.332  0.00  0.00    +0.000 C 
ATOM      8  C   UNL     1      -0.541 -16.533  21.106  0.00  0.00    +0.000 C 
ATOM      9  C   UNL     1      -1.588 -14.585  20.439  0.00  0.00    +0.000 C 
ATOM     10  C   UNL     1      -2.741 -16.624  19.398  0.00  0.00    +0.000 C 
ATOM     11  C   UNL     1      -2.494 -17.898  20.052  0.00  0.00    +0.000 C 
ATOM     12  C   UNL     1      -0.324 -17.825  18.892  0.00  0.00    +0.000 C 
ATOM     13  C   UNL     1      -1.769 -17.532  21.378  0.00  0.00    +0.000 C 
ATOM     14  C   UNL     1      -1.493 -18.562  19.257  0.00  0.00    +0.000 C 
ATOM     15  C   UNL     1      -2.982 -14.202  20.957  0.00  0.00    +0.000 C 
ATOM     16  C   UNL     1      -0.838 -13.341  19.936  0.00  0.00    +0.000 C 
ATOM     17  C   UNL     1       0.378 -18.015  17.625  0.00  0.00    +0.000 C 
ATOM     18  C   UNL     1       1.463 -15.821  18.031  0.00  0.00    +0.000 A 
ATOM     19  C   UNL     1       1.287 -16.940  17.205  0.00  0.00    +0.000 A 
ATOM     20  C   UNL     1       2.368 -14.804  17.657  0.00  0.00    +0.000 A 
ATOM     21  C   UNL     1       1.983 -17.045  15.989  0.00  0.00    +0.000 A 
ATOM     22  C   UNL     1       3.070 -14.901  16.451  0.00  0.00    +0.000 A 
ATOM     23  C   UNL     1       2.863 -16.032  15.621  0.00  0.00    +0.000 A 
ATOM     24  C   UNL     1       3.635 -16.016  14.432  0.00  0.00    +0.000 C 
ATOM     25  C   UNL     1       4.775 -13.941  14.895  0.00  0.00    +0.000 C 
ATOM     26  C   UNL     1       4.412 -15.154  14.162  0.00  0.00    +0.000 C 
ATOM     27  C   UNL     1       6.254 -13.961  15.358  0.00  0.00    +0.000 C 
ENDROOT
BRANCH  21  28
ATOM     28  O   UNL     1       1.837 -18.110  15.141  0.00  0.00    +0.000 OA
ATOM     29  H   UNL     1       1.552 -18.904  15.647  0.00  0.00    +0.000 HD
ENDBRANCH  21  28
BRANCH   8  30
ATOM     30  C   UNL     1       0.661 -16.989  21.819  0.00  0.00    +0.000 C 
ATOM     31  C   UNL     1       1.947 -17.454  22.519  0.00  0.00    +0.000 C 
BRANCH  31  32
ATOM     32  C   UNL     1       3.060 -17.861  23.062  0.00  0.00    +0.000 C 
ATOM     33  C   UNL     1       2.955 -19.166  23.828  0.00  0.00    +0.000 C 
BRANCH  32  35
ATOM     34  O   UNL     1       5.381 -17.308  23.432  0.00  0.00    +0.000 OA
ATOM     35  C   UNL     1       4.310 -17.072  22.893  0.00  0.00    +0.000 C 
BRANCH  35  36
ATOM     36  O   UNL     1       4.192 -16.015  22.062  0.00  0.00    +0.000 OA
ATOM     37  H   UNL     1       3.708 -15.336  22.577  0.00  0.00    +0.000 HD
ENDBRANCH  35  36
ENDBRANCH  32  35
ENDBRANCH  31  32
ENDBRANCH   8  30
BRANCH  20  38
ATOM     38  C   UNL     1       2.564 -13.669  18.512  0.00  0.00    +0.000 C 
ATOM     39  C   UNL     1       2.752 -12.438  19.411  0.00  0.00    +0.000 C 
BRANCH  39  40
ATOM     40  C   UNL     1       2.894 -11.391  20.161  0.00  0.00    +0.000 C 
ATOM     41  C   UNL     1       4.145 -10.573  20.053  0.00  0.00    +0.000 C 
ATOM     42  C   UNL     1       1.724 -10.870  20.940  0.00  0.00    +0.000 C 
ENDBRANCH  39  40
ENDBRANCH  20  38
BRANCH  25  43
ATOM     43  C   UNL     1       4.494 -12.724  14.109  0.00  0.00    +0.000 C 
BRANCH  43  44
ATOM     44  C   UNL     1       4.200 -11.456  13.299  0.00  0.00    +0.000 C 
ATOM     45  C   UNL     1       3.906 -10.185  12.489  0.00  0.00    +0.000 C 
BRANCH  45  46
ATOM     46  C   UNL     1       3.652  -9.111  11.809  0.00  0.00    +0.000 C 
ATOM     47  C   UNL     1       4.360  -7.835  12.149  0.00  0.00    +0.000 C 
ATOM     48  C   UNL     1       2.532  -9.101  10.815  0.00  0.00    +0.000 C 
ENDBRANCH  45  46
ENDBRANCH  43  44
ENDBRANCH  25  43
TORSDOF 10
ENDMDL
MODEL 3
REMARK VINA RESULT:      -6.1     13.298     18.259
REMARK  Name = 9852185_GambogicAcid.pdbqt.pdb
REMARK  10 active torsions:
REMARK  status: ('A' for Active; 'I' for Inactive)
REMARK    1  A    between atoms: C_8  and  C_30
REMARK    2  A    between atoms: C_20  and  C_38
REMARK    3  A    between atoms: C_21  and  O_28
REMARK    4  A    between atoms: C_25  and  C_43
REMARK    5  A    between atoms: C_31  and  C_32
REMARK    6  A    between atoms: C_32  and  C_35
REMARK    7  A    between atoms: C_35  and  O_36
REMARK    8  A    between atoms: C_39  and  C_40
REMARK    9  A    between atoms: C_43  and  C_44
REMARK   10  A    between atoms: C_45  and  C_46
REMARK                            x       y       z     vdW  Elec       q    Type
REMARK                         _______ _______ _______ _____ _____    ______ ____
ROOT
ATOM      1  O   UNL     1     -25.122   0.747  17.873  0.00  0.00    +0.000 OA
ATOM      2  O   UNL     1     -23.835   0.014  15.403  0.00  0.00    +0.000 OA
ATOM      3  O   UNL     1     -25.175  -1.753  19.828  0.00  0.00    +0.000 OA
ATOM      4  O   UNL     1     -23.695  -3.957  14.324  0.00  0.00    +0.000 OA
ATOM      5  O   UNL     1     -22.173   1.413  11.175  0.00  0.00    +0.000 OA
ATOM      6  C   UNL     1     -24.566  -0.890  16.219  0.00  0.00    +0.000 C 
ATOM      7  C   UNL     1     -26.112  -0.610  16.201  0.00  0.00    +0.000 C 
ATOM      8  C   UNL     1     -24.446  -0.514  17.750  0.00  0.00    +0.000 C 
ATOM      9  C   UNL     1     -26.205   0.737  16.926  0.00  0.00    +0.000 C 
ATOM     10  C   UNL     1     -26.760  -1.763  16.827  0.00  0.00    +0.000 C 
ATOM     11  C   UNL     1     -25.972  -2.626  17.691  0.00  0.00    +0.000 C 
ATOM     12  C   UNL     1     -24.219  -2.370  15.983  0.00  0.00    +0.000 C 
ATOM     13  C   UNL     1     -25.182  -1.653  18.611  0.00  0.00    +0.000 C 
ATOM     14  C   UNL     1     -24.973  -3.225  16.845  0.00  0.00    +0.000 C 
ATOM     15  C   UNL     1     -27.521   0.884  17.703  0.00  0.00    +0.000 C 
ATOM     16  C   UNL     1     -26.037   1.890  15.925  0.00  0.00    +0.000 C 
ATOM     17  C   UNL     1     -23.746  -2.782  14.662  0.00  0.00    +0.000 C 
ATOM     18  C   UNL     1     -23.425  -0.374  14.156  0.00  0.00    +0.000 A 
ATOM     19  C   UNL     1     -23.359  -1.710  13.736  0.00  0.00    +0.000 A 
ATOM     20  C   UNL     1     -23.013   0.659  13.287  0.00  0.00    +0.000 A 
ATOM     21  C   UNL     1     -22.911  -2.029  12.443  0.00  0.00    +0.000 A 
ATOM     22  C   UNL     1     -22.560   0.352  12.000  0.00  0.00    +0.000 A 
ATOM     23  C   UNL     1     -22.519  -1.003  11.588  0.00  0.00    +0.000 A 
ATOM     24  C   UNL     1     -22.038  -1.184  10.267  0.00  0.00    +0.000 C 
ATOM     25  C   UNL     1     -21.614   1.151   9.828  0.00  0.00    +0.000 C 
ATOM     26  C   UNL     1     -21.670  -0.289   9.571  0.00  0.00    +0.000 C 
ATOM     27  C   UNL     1     -20.160   1.685   9.837  0.00  0.00    +0.000 C 
ENDROOT
BRANCH  21  28
ATOM     28  O   UNL     1     -22.839  -3.316  11.980  0.00  0.00    +0.000 OA
ATOM     29  H   UNL     1     -21.910  -3.534  11.741  0.00  0.00    +0.000 HD
ENDBRANCH  21  28
BRANCH   8  30
ATOM     30  C   UNL     1     -23.050  -0.363  18.182  0.00  0.00    +0.000 C 
ATOM     31  C   UNL     1     -21.589  -0.258  18.647  0.00  0.00    +0.000 C 
BRANCH  31  32
ATOM     32  C   UNL     1     -20.359  -0.213  19.075  0.00  0.00    +0.000 C 
ATOM     33  C   UNL     1     -19.879   1.165  19.491  0.00  0.00    +0.000 C 
BRANCH  32  35
ATOM     34  O   UNL     1     -19.699  -2.452  18.455  0.00  0.00    +0.000 OA
ATOM     35  C   UNL     1     -19.543  -1.455  19.145  0.00  0.00    +0.000 C 
BRANCH  35  36
ATOM     36  O   UNL     1     -18.558  -1.421  20.068  0.00  0.00    +0.000 OA
ATOM     37  H   UNL     1     -18.814  -2.087  20.741  0.00  0.00    +0.000 HD
ENDBRANCH  35  36
ENDBRANCH  32  35
ENDBRANCH  31  32
ENDBRANCH   8  30
BRANCH  20  38
ATOM     38  C   UNL     1     -23.062   2.025  13.724  0.00  0.00    +0.000 C 
ATOM     39  C   UNL     1     -23.124   3.476  14.221  0.00  0.00    +0.000 C 
BRANCH  39  40
ATOM     40  C   UNL     1     -23.179   4.695  14.660  0.00  0.00    +0.000 C 
ATOM     41  C   UNL     1     -23.546   4.946  16.091  0.00  0.00    +0.000 C 
ATOM     42  C   UNL     1     -22.644   5.813  13.818  0.00  0.00    +0.000 C 
ENDBRANCH  39  40
ENDBRANCH  20  38
BRANCH  25  43
ATOM     43  C   UNL     1     -22.439   1.907   8.866  0.00  0.00    +0.000 C 
BRANCH  43  44
ATOM     44  C   UNL     1     -23.289   2.695   7.862  0.00  0.00    +0.000 C 
ATOM     45  C   UNL     1     -24.141   3.483   6.856  0.00  0.00    +0.000 C 
BRANCH  45  46
ATOM     46  C   UNL     1     -24.854   4.147   6.001  0.00  0.00    +0.000 C 
ATOM     47  C   UNL     1     -26.316   3.849   5.867  0.00  0.00    +0.000 C 
ATOM     48  C   UNL     1     -24.190   5.076   5.033  0.00  0.00    +0.000 C 
ENDBRANCH  45  46
ENDBRANCH  43  44
ENDBRANCH  25  43
TORSDOF 10
ENDMDL
MODEL 4
REMARK VINA RESULT:      -6.0      3.879      8.991
REMARK  Name = 9852185_GambogicAcid.pdbqt.pdb
REMARK  10 active torsions:
REMARK  status: ('A' for Active; 'I' for Inactive)
REMARK    1  A    between atoms: C_8  and  C_30
REMARK    2  A    between atoms: C_20  and  C_38
REMARK    3  A    between atoms: C_21  and  O_28
REMARK    4  A    between atoms: C_25  and  C_43
REMARK    5  A    between atoms: C_31  and  C_32
REMARK    6  A    between atoms: C_32  and  C_35
REMARK    7  A    between atoms: C_35  and  O_36
REMARK    8  A    between atoms: C_39  and  C_40
REMARK    9  A    between atoms: C_43  and  C_44
REMARK   10  A    between atoms: C_45  and  C_46
REMARK                            x       y       z     vdW  Elec       q    Type
REMARK                         _______ _______ _______ _____ _____    ______ ____
ROOT
ATOM      1  O   UNL     1      -8.507  -0.409  23.429  0.00  0.00    +0.000 OA
ATOM      2  O   UNL     1      -9.940  -2.734  24.344  0.00  0.00    +0.000 OA
ATOM      3  O   UNL     1      -9.662   0.516  20.621  0.00  0.00    +0.000 OA
ATOM      4  O   UNL     1     -11.891  -5.090  21.588  0.00  0.00    +0.000 OA
ATOM      5  O   UNL     1     -10.679  -5.878  27.830  0.00  0.00    +0.000 OA
ATOM      6  C   UNL     1      -9.730  -2.415  22.975  0.00  0.00    +0.000 C 
ATOM      7  C   UNL     1      -8.231  -2.586  22.536  0.00  0.00    +0.000 C 
ATOM      8  C   UNL     1      -9.690  -0.851  22.745  0.00  0.00    +0.000 C 
ATOM      9  C   UNL     1      -7.536  -1.463  23.313  0.00  0.00    +0.000 C 
ATOM     10  C   UNL     1      -8.206  -2.516  21.074  0.00  0.00    +0.000 C 
ATOM     11  C   UNL     1      -9.321  -1.890  20.384  0.00  0.00    +0.000 C 
ATOM     12  C   UNL     1     -10.721  -3.092  22.012  0.00  0.00    +0.000 C 
ATOM     13  C   UNL     1      -9.586  -0.573  21.167  0.00  0.00    +0.000 C 
ATOM     14  C   UNL     1     -10.468  -2.716  20.658  0.00  0.00    +0.000 C 
ATOM     15  C   UNL     1      -6.317  -0.909  22.560  0.00  0.00    +0.000 C 
ATOM     16  C   UNL     1      -7.129  -1.958  24.709  0.00  0.00    +0.000 C 
ATOM     17  C   UNL     1     -11.306  -4.377  22.391  0.00  0.00    +0.000 C 
ATOM     18  C   UNL     1     -10.460  -3.954  24.685  0.00  0.00    +0.000 A 
ATOM     19  C   UNL     1     -11.132  -4.796  23.788  0.00  0.00    +0.000 A 
ATOM     20  C   UNL     1     -10.327  -4.328  26.040  0.00  0.00    +0.000 A 
ATOM     21  C   UNL     1     -11.652  -6.027  24.221  0.00  0.00    +0.000 A 
ATOM     22  C   UNL     1     -10.846  -5.550  26.482  0.00  0.00    +0.000 A 
ATOM     23  C   UNL     1     -11.505  -6.396  25.555  0.00  0.00    +0.000 A 
ATOM     24  C   UNL     1     -11.990  -7.599  26.125  0.00  0.00    +0.000 C 
ATOM     25  C   UNL     1     -11.270  -7.123  28.378  0.00  0.00    +0.000 C 
ATOM     26  C   UNL     1     -11.886  -7.870  27.281  0.00  0.00    +0.000 C 
ATOM     27  C   UNL     1     -12.308  -6.691  29.443  0.00  0.00    +0.000 C 
ENDROOT
BRANCH  21  28
ATOM     28  O   UNL     1     -12.305  -6.891  23.383  0.00  0.00    +0.000 OA
ATOM     29  H   UNL     1     -12.104  -6.666  22.447  0.00  0.00    +0.000 HD
ENDBRANCH  21  28
BRANCH   8  30
ATOM     30  C   UNL     1     -10.864  -0.172  23.311  0.00  0.00    +0.000 C 
ATOM     31  C   UNL     1     -12.115   0.490  23.910  0.00  0.00    +0.000 C 
BRANCH  31  32
ATOM     32  C   UNL     1     -13.207   1.006  24.400  0.00  0.00    +0.000 C 
ATOM     33  C   UNL     1     -13.065   2.428  24.910  0.00  0.00    +0.000 C 
BRANCH  32  35
ATOM     34  O   UNL     1     -15.112  -0.078  25.411  0.00  0.00    +0.000 OA
ATOM     35  C   UNL     1     -14.469   0.219  24.415  0.00  0.00    +0.000 C 
BRANCH  35  36
ATOM     36  O   UNL     1     -14.893  -0.174  23.195  0.00  0.00    +0.000 OA
ATOM     37  H   UNL     1     -15.651   0.411  22.987  0.00  0.00    +0.000 HD
ENDBRANCH  35  36
ENDBRANCH  32  35
ENDBRANCH  31  32
ENDBRANCH   8  30
BRANCH  20  38
ATOM     38  C   UNL     1      -9.657  -3.457  26.961  0.00  0.00    +0.000 C 
ATOM     39  C   UNL     1      -8.936  -2.503  27.925  0.00  0.00    +0.000 C 
BRANCH  39  40
ATOM     40  C   UNL     1      -8.329  -1.683  28.725  0.00  0.00    +0.000 C 
ATOM     41  C   UNL     1      -8.275  -1.990  30.191  0.00  0.00    +0.000 C 
ATOM     42  C   UNL     1      -7.488  -0.580  28.160  0.00  0.00    +0.000 C 
ENDBRANCH  39  40
ENDBRANCH  20  38
BRANCH  25  43
ATOM     43  C   UNL     1     -10.170  -7.881  29.003  0.00  0.00    +0.000 C 
BRANCH  43  44
ATOM     44  C   UNL     1      -9.021  -8.667  29.648  0.00  0.00    +0.000 C 
ATOM     45  C   UNL     1      -7.870  -9.454  30.292  0.00  0.00    +0.000 C 
BRANCH  45  46
ATOM     46  C   UNL     1      -6.901 -10.124  30.832  0.00  0.00    +0.000 C 
ATOM     47  C   UNL     1      -5.578  -9.460  31.057  0.00  0.00    +0.000 C 
ATOM     48  C   UNL     1      -7.047 -11.596  31.063  0.00  0.00    +0.000 C 
ENDBRANCH  45  46
ENDBRANCH  43  44
ENDBRANCH  25  43
TORSDOF 10
ENDMDL
MODEL 5
REMARK VINA RESULT:      -5.8     17.005     20.681
REMARK  Name = 9852185_GambogicAcid.pdbqt.pdb
REMARK  10 active torsions:
REMARK  status: ('A' for Active; 'I' for Inactive)
REMARK    1  A    between atoms: C_8  and  C_30
REMARK    2  A    between atoms: C_20  and  C_38
REMARK    3  A    between atoms: C_21  and  O_28
REMARK    4  A    between atoms: C_25  and  C_43
REMARK    5  A    between atoms: C_31  and  C_32
REMARK    6  A    between atoms: C_32  and  C_35
REMARK    7  A    between atoms: C_35  and  O_36
REMARK    8  A    between atoms: C_39  and  C_40
REMARK    9  A    between atoms: C_43  and  C_44
REMARK   10  A    between atoms: C_45  and  C_46
REMARK                            x       y       z     vdW  Elec       q    Type
REMARK                         _______ _______ _______ _____ _____    ______ ____
ROOT
ATOM      1  O   UNL     1       5.549 -14.920  16.470  0.00  0.00    +0.000 OA
ATOM      2  O   UNL     1       5.428 -12.546  14.844  0.00  0.00    +0.000 OA
ATOM      3  O   UNL     1       4.701 -17.441  14.738  0.00  0.00    +0.000 OA
ATOM      4  O   UNL     1       3.032 -12.538  11.496  0.00  0.00    +0.000 OA
ATOM      5  O   UNL     1       6.261  -7.881  14.486  0.00  0.00    +0.000 OA
ATOM      6  C   UNL     1       4.597 -13.683  14.657  0.00  0.00    +0.000 C 
ATOM      7  C   UNL     1       3.539 -13.857  15.805  0.00  0.00    +0.000 C 
ATOM      8  C   UNL     1       5.346 -15.018  15.052  0.00  0.00    +0.000 C 
ATOM      9  C   UNL     1       4.421 -14.209  17.008  0.00  0.00    +0.000 C 
ATOM     10  C   UNL     1       2.579 -14.864  15.350  0.00  0.00    +0.000 C 
ATOM     11  C   UNL     1       2.972 -15.776  14.290  0.00  0.00    +0.000 C 
ATOM     12  C   UNL     1       3.983 -13.788  13.250  0.00  0.00    +0.000 C 
ATOM     13  C   UNL     1       4.395 -16.261  14.687  0.00  0.00    +0.000 C 
ATOM     14  C   UNL     1       3.175 -14.960  13.122  0.00  0.00    +0.000 C 
ATOM     15  C   UNL     1       3.702 -15.132  18.001  0.00  0.00    +0.000 C 
ATOM     16  C   UNL     1       4.896 -12.926  17.709  0.00  0.00    +0.000 C 
ATOM     17  C   UNL     1       3.739 -12.561  12.494  0.00  0.00    +0.000 C 
ATOM     18  C   UNL     1       5.169 -11.394  14.152  0.00  0.00    +0.000 A 
ATOM     19  C   UNL     1       4.362 -11.334  13.008  0.00  0.00    +0.000 A 
ATOM     20  C   UNL     1       5.808 -10.227  14.627  0.00  0.00    +0.000 A 
ATOM     21  C   UNL     1       4.157 -10.113  12.343  0.00  0.00    +0.000 A 
ATOM     22  C   UNL     1       5.615  -9.008  13.969  0.00  0.00    +0.000 A 
ATOM     23  C   UNL     1       4.779  -8.965  12.825  0.00  0.00    +0.000 A 
ATOM     24  C   UNL     1       4.669  -7.676  12.247  0.00  0.00    +0.000 C 
ATOM     25  C   UNL     1       6.159  -6.574  13.793  0.00  0.00    +0.000 C 
ATOM     26  C   UNL     1       5.246  -6.717  12.658  0.00  0.00    +0.000 C 
ATOM     27  C   UNL     1       7.592  -6.194  13.344  0.00  0.00    +0.000 C 
ENDROOT
BRANCH  21  28
ATOM     28  O   UNL     1       3.368  -9.998  11.230  0.00  0.00    +0.000 OA
ATOM     29  H   UNL     1       2.566  -9.469  11.442  0.00  0.00    +0.000 HD
ENDBRANCH  21  28
BRANCH   8  30
ATOM     30  C   UNL     1       6.647 -15.151  14.381  0.00  0.00    +0.000 C 
ATOM     31  C   UNL     1       8.007 -15.236  13.671  0.00  0.00    +0.000 C 
BRANCH  31  32
ATOM     32  C   UNL     1       9.148 -15.259  13.042  0.00  0.00    +0.000 C 
ATOM     33  C   UNL     1       9.592 -16.635  12.579  0.00  0.00    +0.000 C 
BRANCH  32  35
ATOM     34  O   UNL     1       9.450 -12.868  12.899  0.00  0.00    +0.000 OA
ATOM     35  C   UNL     1       9.904 -13.999  12.809  0.00  0.00    +0.000 C 
BRANCH  35  36
ATOM     36  O   UNL     1      11.199 -14.182  12.474  0.00  0.00    +0.000 OA
ATOM     37  H   UNL     1      11.527 -13.293  12.225  0.00  0.00    +0.000 HD
ENDBRANCH  35  36
ENDBRANCH  32  35
ENDBRANCH  31  32
ENDBRANCH   8  30
BRANCH  20  38
ATOM     38  C   UNL     1       6.650 -10.293  15.786  0.00  0.00    +0.000 C 
ATOM     39  C   UNL     1       7.537 -10.390  17.036  0.00  0.00    +0.000 C 
BRANCH  39  40
ATOM     40  C   UNL     1       8.278 -10.490  18.095  0.00  0.00    +0.000 C 
ATOM     41  C   UNL     1       7.660 -10.940  19.385  0.00  0.00    +0.000 C 
ATOM     42  C   UNL     1       9.768 -10.399  17.970  0.00  0.00    +0.000 C 
ENDBRANCH  39  40
ENDBRANCH  20  38
BRANCH  25  43
ATOM     43  C   UNL     1       5.651  -5.603  14.781  0.00  0.00    +0.000 C 
BRANCH  43  44
ATOM     44  C   UNL     1       5.115  -4.597  15.807  0.00  0.00    +0.000 C 
ATOM     45  C   UNL     1       4.577  -3.590  16.834  0.00  0.00    +0.000 C 
BRANCH  45  46
ATOM     46  C   UNL     1       4.118  -2.737  17.695  0.00  0.00    +0.000 C 
ATOM     47  C   UNL     1       4.319  -1.270  17.462  0.00  0.00    +0.000 C 
ATOM     48  C   UNL     1       3.553  -3.215  18.996  0.00  0.00    +0.000 C 
ENDBRANCH  45  46
ENDBRANCH  43  44
ENDBRANCH  25  43
TORSDOF 10
ENDMDL
MODEL 6
REMARK VINA RESULT:      -5.7     13.389     18.768
REMARK  Name = 9852185_GambogicAcid.pdbqt.pdb
REMARK  10 active torsions:
REMARK  status: ('A' for Active; 'I' for Inactive)
REMARK    1  A    between atoms: C_8  and  C_30
REMARK    2  A    between atoms: C_20  and  C_38
REMARK    3  A    between atoms: C_21  and  O_28
REMARK    4  A    between atoms: C_25  and  C_43
REMARK    5  A    between atoms: C_31  and  C_32
REMARK    6  A    between atoms: C_32  and  C_35
REMARK    7  A    between atoms: C_35  and  O_36
REMARK    8  A    between atoms: C_39  and  C_40
REMARK    9  A    between atoms: C_43  and  C_44
REMARK   10  A    between atoms: C_45  and  C_46
REMARK                            x       y       z     vdW  Elec       q    Type
REMARK                         _______ _______ _______ _____ _____    ______ ____
ROOT
ATOM      1  O   UNL     1     -24.820   0.958  17.024  0.00  0.00    +0.000 OA
ATOM      2  O   UNL     1     -24.130  -1.505  15.702  0.00  0.00    +0.000 OA
ATOM      3  O   UNL     1     -25.317   0.408  20.110  0.00  0.00    +0.000 OA
ATOM      4  O   UNL     1     -25.259  -5.076  17.414  0.00  0.00    +0.000 OA
ATOM      5  O   UNL     1     -22.715  -3.656  11.707  0.00  0.00    +0.000 OA
ATOM      6  C   UNL     1     -24.972  -1.423  16.843  0.00  0.00    +0.000 C 
ATOM      7  C   UNL     1     -26.364  -0.768  16.524  0.00  0.00    +0.000 C 
ATOM      8  C   UNL     1     -24.549  -0.227  17.788  0.00  0.00    +0.000 C 
ATOM      9  C   UNL     1     -25.976   0.682  16.215  0.00  0.00    +0.000 C 
ATOM     10  C   UNL     1     -27.223  -1.008  17.685  0.00  0.00    +0.000 C 
ATOM     11  C   UNL     1     -26.603  -1.321  18.961  0.00  0.00    +0.000 C 
ATOM     12  C   UNL     1     -25.091  -2.737  17.633  0.00  0.00    +0.000 C 
ATOM     13  C   UNL     1     -25.456  -0.282  19.113  0.00  0.00    +0.000 C 
ATOM     14  C   UNL     1     -25.934  -2.582  18.776  0.00  0.00    +0.000 C 
ATOM     15  C   UNL     1     -27.083   1.671  16.608  0.00  0.00    +0.000 C 
ATOM     16  C   UNL     1     -25.624   0.830  14.727  0.00  0.00    +0.000 C 
ATOM     17  C   UNL     1     -24.932  -4.004  16.922  0.00  0.00    +0.000 C 
ATOM     18  C   UNL     1     -24.015  -2.691  15.027  0.00  0.00    +0.000 A 
ATOM     19  C   UNL     1     -24.384  -3.934  15.561  0.00  0.00    +0.000 A 
ATOM     20  C   UNL     1     -23.446  -2.618  13.737  0.00  0.00    +0.000 A 
ATOM     21  C   UNL     1     -24.219  -5.109  14.809  0.00  0.00    +0.000 A 
ATOM     22  C   UNL     1     -23.272  -3.784  12.982  0.00  0.00    +0.000 A 
ATOM     23  C   UNL     1     -23.670  -5.028  13.533  0.00  0.00    +0.000 A 
ATOM     24  C   UNL     1     -23.438  -6.132  12.675  0.00  0.00    +0.000 C 
ATOM     25  C   UNL     1     -22.436  -4.859  10.887  0.00  0.00    +0.000 C 
ATOM     26  C   UNL     1     -22.929  -6.037  11.602  0.00  0.00    +0.000 C 
ATOM     27  C   UNL     1     -20.902  -4.907  10.673  0.00  0.00    +0.000 C 
ENDROOT
BRANCH  21  28
ATOM     28  O   UNL     1     -24.575  -6.345  15.279  0.00  0.00    +0.000 OA
ATOM     29  H   UNL     1     -25.257  -6.252  15.982  0.00  0.00    +0.000 HD
ENDBRANCH  21  28
BRANCH   8  30
ATOM     30  C   UNL     1     -23.122  -0.267  18.138  0.00  0.00    +0.000 C 
ATOM     31  C   UNL     1     -21.643  -0.289  18.554  0.00  0.00    +0.000 C 
BRANCH  31  32
ATOM     32  C   UNL     1     -20.401  -0.267  18.944  0.00  0.00    +0.000 C 
ATOM     33  C   UNL     1     -19.866   1.110  19.292  0.00  0.00    +0.000 C 
BRANCH  32  35
ATOM     34  O   UNL     1     -19.804  -2.534  18.367  0.00  0.00    +0.000 OA
ATOM     35  C   UNL     1     -19.621  -1.531  19.040  0.00  0.00    +0.000 C 
BRANCH  35  36
ATOM     36  O   UNL     1     -18.638  -1.509  19.965  0.00  0.00    +0.000 OA
ATOM     37  H   UNL     1     -18.399  -2.449  20.108  0.00  0.00    +0.000 HD
ENDBRANCH  35  36
ENDBRANCH  32  35
ENDBRANCH  31  32
ENDBRANCH   8  30
BRANCH  20  38
ATOM     38  C   UNL     1     -23.050  -1.349  13.199  0.00  0.00    +0.000 C 
ATOM     39  C   UNL     1     -22.608  -0.005  12.602  0.00  0.00    +0.000 C 
BRANCH  39  40
ATOM     40  C   UNL     1     -22.228   1.120  12.081  0.00  0.00    +0.000 C 
ATOM     41  C   UNL     1     -20.772   1.347  11.804  0.00  0.00    +0.000 C 
ATOM     42  C   UNL     1     -23.250   2.071  11.538  0.00  0.00    +0.000 C 
ENDBRANCH  39  40
ENDBRANCH  20  38
BRANCH  25  43
ATOM     43  C   UNL     1     -23.132  -4.672   9.600  0.00  0.00    +0.000 C 
BRANCH  43  44
ATOM     44  C   UNL     1     -23.851  -4.482   8.258  0.00  0.00    +0.000 C 
ATOM     45  C   UNL     1     -24.571  -4.290   6.915  0.00  0.00    +0.000 C 
BRANCH  45  46
ATOM     46  C   UNL     1     -25.185  -4.128   5.786  0.00  0.00    +0.000 C 
ATOM     47  C   UNL     1     -24.428  -3.618   4.598  0.00  0.00    +0.000 C 
ATOM     48  C   UNL     1     -26.673  -4.277   5.714  0.00  0.00    +0.000 C 
ENDBRANCH  45  46
ENDBRANCH  43  44
ENDBRANCH  25  43
TORSDOF 10
ENDMDL
MODEL 7
REMARK VINA RESULT:      -5.6     22.666     25.948
REMARK  Name = 9852185_GambogicAcid.pdbqt.pdb
REMARK  10 active torsions:
REMARK  status: ('A' for Active; 'I' for Inactive)
REMARK    1  A    between atoms: C_8  and  C_30
REMARK    2  A    between atoms: C_20  and  C_38
REMARK    3  A    between atoms: C_21  and  O_28
REMARK    4  A    between atoms: C_25  and  C_43
REMARK    5  A    between atoms: C_31  and  C_32
REMARK    6  A    between atoms: C_32  and  C_35
REMARK    7  A    between atoms: C_35  and  O_36
REMARK    8  A    between atoms: C_39  and  C_40
REMARK    9  A    between atoms: C_43  and  C_44
REMARK   10  A    between atoms: C_45  and  C_46
REMARK                            x       y       z     vdW  Elec       q    Type
REMARK                         _______ _______ _______ _____ _____    ______ ____
ROOT
ATOM      1  O   UNL     1      -9.577  -3.353  -5.155  0.00  0.00    +0.000 OA
ATOM      2  O   UNL     1      -8.230  -4.760  -3.034  0.00  0.00    +0.000 OA
ATOM      3  O   UNL     1     -12.716  -3.681  -4.825  0.00  0.00    +0.000 OA
ATOM      4  O   UNL     1     -10.195  -7.822  -1.106  0.00  0.00    +0.000 OA
ATOM      5  O   UNL     1      -4.123  -5.791  -0.877  0.00  0.00    +0.000 OA
ATOM      6  C   UNL     1      -9.487  -5.145  -3.573  0.00  0.00    +0.000 C 
ATOM      7  C   UNL     1      -9.374  -5.710  -5.034  0.00  0.00    +0.000 C 
ATOM      8  C   UNL     1     -10.321  -3.889  -4.050  0.00  0.00    +0.000 C 
ATOM      9  C   UNL     1      -8.968  -4.466  -5.832  0.00  0.00    +0.000 C 
ATOM     10  C   UNL     1     -10.661  -6.330  -5.352  0.00  0.00    +0.000 C 
ATOM     11  C   UNL     1     -11.832  -5.944  -4.583  0.00  0.00    +0.000 C 
ATOM     12  C   UNL     1     -10.321  -6.043  -2.643  0.00  0.00    +0.000 C 
ATOM     13  C   UNL     1     -11.773  -4.392  -4.518  0.00  0.00    +0.000 C 
ATOM     14  C   UNL     1     -11.578  -6.378  -3.233  0.00  0.00    +0.000 C 
ATOM     15  C   UNL     1      -9.503  -4.503  -7.270  0.00  0.00    +0.000 C 
ATOM     16  C   UNL     1      -7.439  -4.310  -5.828  0.00  0.00    +0.000 C 
ATOM     17  C   UNL     1      -9.629  -6.909  -1.690  0.00  0.00    +0.000 C 
ATOM     18  C   UNL     1      -7.578  -5.595  -2.167  0.00  0.00    +0.000 A 
ATOM     19  C   UNL     1      -8.197  -6.652  -1.485  0.00  0.00    +0.000 A 
ATOM     20  C   UNL     1      -6.213  -5.314  -1.942  0.00  0.00    +0.000 A 
ATOM     21  C   UNL     1      -7.461  -7.455  -0.597  0.00  0.00    +0.000 A 
ATOM     22  C   UNL     1      -5.472  -6.104  -1.056  0.00  0.00    +0.000 A 
ATOM     23  C   UNL     1      -6.112  -7.180  -0.391  0.00  0.00    +0.000 A 
ATOM     24  C   UNL     1      -5.259  -7.900   0.482  0.00  0.00    +0.000 C 
ATOM     25  C   UNL     1      -3.301  -6.541   0.103  0.00  0.00    +0.000 C 
ATOM     26  C   UNL     1      -4.117  -7.617   0.670  0.00  0.00    +0.000 C 
ATOM     27  C   UNL     1      -2.851  -5.523   1.180  0.00  0.00    +0.000 C 
ENDROOT
BRANCH  21  28
ATOM     28  O   UNL     1      -8.015  -8.507   0.083  0.00  0.00    +0.000 OA
ATOM     29  H   UNL     1      -8.992  -8.403   0.121  0.00  0.00    +0.000 HD
ENDBRANCH  21  28
BRANCH   8  30
ATOM     30  C   UNL     1     -10.443  -2.866  -3.002  0.00  0.00    +0.000 C 
ATOM     31  C   UNL     1     -10.605  -1.829  -1.880  0.00  0.00    +0.000 C 
BRANCH  31  32
ATOM     32  C   UNL     1     -10.794  -0.972  -0.917  0.00  0.00    +0.000 C 
ATOM     33  C   UNL     1     -11.780   0.137  -1.235  0.00  0.00    +0.000 C 
BRANCH  32  35
ATOM     34  O   UNL     1      -8.969  -0.700   0.640  0.00  0.00    +0.000 OA
ATOM     35  C   UNL     1     -10.083  -1.130   0.380  0.00  0.00    +0.000 C 
BRANCH  35  36
ATOM     36  O   UNL     1     -10.776  -1.816   1.314  0.00  0.00    +0.000 OA
ATOM     37  H   UNL     1     -11.609  -1.315   1.435  0.00  0.00    +0.000 HD
ENDBRANCH  35  36
ENDBRANCH  32  35
ENDBRANCH  31  32
ENDBRANCH   8  30
BRANCH  20  38
ATOM     38  C   UNL     1      -5.585  -4.220  -2.624  0.00  0.00    +0.000 C 
ATOM     39  C   UNL     1      -4.932  -3.029  -3.341  0.00  0.00    +0.000 C 
BRANCH  39  40
ATOM     40  C   UNL     1      -4.391  -2.010  -3.932  0.00  0.00    +0.000 C 
ATOM     41  C   UNL     1      -4.756  -1.706  -5.354  0.00  0.00    +0.000 C 
ATOM     42  C   UNL     1      -3.608  -1.015  -3.132  0.00  0.00    +0.000 C 
ENDBRANCH  39  40
ENDBRANCH  20  38
BRANCH  25  43
ATOM     43  C   UNL     1      -2.136  -7.071  -0.630  0.00  0.00    +0.000 C 
BRANCH  43  44
ATOM     44  C   UNL     1      -0.920  -7.623  -1.385  0.00  0.00    +0.000 C 
ATOM     45  C   UNL     1       0.299  -8.173  -2.140  0.00  0.00    +0.000 C 
BRANCH  45  46
ATOM     46  C   UNL     1       1.327  -8.632  -2.782  0.00  0.00    +0.000 C 
ATOM     47  C   UNL     1       2.163  -7.699  -3.602  0.00  0.00    +0.000 C 
ATOM     48  C   UNL     1       1.570 -10.108  -2.850  0.00  0.00    +0.000 C 
ENDBRANCH  45  46
ENDBRANCH  43  44
ENDBRANCH  25  43
TORSDOF 10
ENDMDL
MODEL 8
REMARK VINA RESULT:      -5.6     16.977     20.993
REMARK  Name = 9852185_GambogicAcid.pdbqt.pdb
REMARK  10 active torsions:
REMARK  status: ('A' for Active; 'I' for Inactive)
REMARK    1  A    between atoms: C_8  and  C_30
REMARK    2  A    between atoms: C_20  and  C_38
REMARK    3  A    between atoms: C_21  and  O_28
REMARK    4  A    between atoms: C_25  and  C_43
REMARK    5  A    between atoms: C_31  and  C_32
REMARK    6  A    between atoms: C_32  and  C_35
REMARK    7  A    between atoms: C_35  and  O_36
REMARK    8  A    between atoms: C_39  and  C_40
REMARK    9  A    between atoms: C_43  and  C_44
REMARK   10  A    between atoms: C_45  and  C_46
REMARK                            x       y       z     vdW  Elec       q    Type
REMARK                         _______ _______ _______ _____ _____    ______ ____
ROOT
ATOM      1  O   UNL     1       4.976 -14.811  13.623  0.00  0.00    +0.000 OA
ATOM      2  O   UNL     1       4.034 -14.091  16.248  0.00  0.00    +0.000 OA
ATOM      3  O   UNL     1       7.480 -13.015  12.860  0.00  0.00    +0.000 OA
ATOM      4  O   UNL     1       4.930 -10.358  17.737  0.00  0.00    +0.000 OA
ATOM      5  O   UNL     1       1.053 -15.008  19.834  0.00  0.00    +0.000 OA
ATOM      6  C   UNL     1       4.670 -13.188  15.354  0.00  0.00    +0.000 C 
ATOM      7  C   UNL     1       3.774 -12.830  14.114  0.00  0.00    +0.000 C 
ATOM      8  C   UNL     1       5.741 -13.924  14.454  0.00  0.00    +0.000 C 
ATOM      9  C   UNL     1       3.722 -14.161  13.357  0.00  0.00    +0.000 C 
ATOM     10  C   UNL     1       4.409 -11.693  13.445  0.00  0.00    +0.000 C 
ATOM     11  C   UNL     1       5.816 -11.433  13.692  0.00  0.00    +0.000 C 
ATOM     12  C   UNL     1       5.277 -11.950  16.037  0.00  0.00    +0.000 C 
ATOM     13  C   UNL     1       6.507 -12.821  13.571  0.00  0.00    +0.000 C 
ATOM     14  C   UNL     1       5.916 -11.094  15.088  0.00  0.00    +0.000 C 
ATOM     15  C   UNL     1       3.600 -13.958  11.840  0.00  0.00    +0.000 C 
ATOM     16  C   UNL     1       2.562 -15.023  13.881  0.00  0.00    +0.000 C 
ATOM     17  C   UNL     1       4.675 -11.463  17.277  0.00  0.00    +0.000 C 
ATOM     18  C   UNL     1       3.448 -13.616  17.390  0.00  0.00    +0.000 A 
ATOM     19  C   UNL     1       3.715 -12.355  17.940  0.00  0.00    +0.000 A 
ATOM     20  C   UNL     1       2.560 -14.498  18.045  0.00  0.00    +0.000 A 
ATOM     21  C   UNL     1       3.083 -11.947  19.127  0.00  0.00    +0.000 A 
ATOM     22  C   UNL     1       1.930 -14.103  19.230  0.00  0.00    +0.000 A 
ATOM     23  C   UNL     1       2.199 -12.816  19.760  0.00  0.00    +0.000 A 
ATOM     24  C   UNL     1       1.506 -12.537  20.964  0.00  0.00    +0.000 C 
ATOM     25  C   UNL     1       0.411 -14.681  21.129  0.00  0.00    +0.000 C 
ATOM     26  C   UNL     1       0.785 -13.317  21.505  0.00  0.00    +0.000 C 
ATOM     27  C   UNL     1       0.917 -15.727  22.154  0.00  0.00    +0.000 C 
ENDROOT
BRANCH  21  28
ATOM     28  O   UNL     1       3.300 -10.721  19.698  0.00  0.00    +0.000 OA
ATOM     29  H   UNL     1       4.241 -10.460  19.582  0.00  0.00    +0.000 HD
ENDBRANCH  21  28
BRANCH   8  30
ATOM     30  C   UNL     1       6.700 -14.704  15.248  0.00  0.00    +0.000 C 
ATOM     31  C   UNL     1       7.666 -15.522  16.119  0.00  0.00    +0.000 C 
BRANCH  31  32
ATOM     32  C   UNL     1       8.459 -16.195  16.904  0.00  0.00    +0.000 C 
ATOM     33  C   UNL     1       9.889 -15.691  16.950  0.00  0.00    +0.000 C 
BRANCH  32  35
ATOM     34  O   UNL     1       7.398 -18.342  17.215  0.00  0.00    +0.000 OA
ATOM     35  C   UNL     1       7.940 -17.351  17.683  0.00  0.00    +0.000 C 
BRANCH  35  36
ATOM     36  O   UNL     1       8.109 -17.243  19.018  0.00  0.00    +0.000 OA
ATOM     37  H   UNL     1       7.208 -17.118  19.382  0.00  0.00    +0.000 HD
ENDBRANCH  35  36
ENDBRANCH  32  35
ENDBRANCH  31  32
ENDBRANCH   8  30
BRANCH  20  38
ATOM     38  C   UNL     1       2.303 -15.796  17.493  0.00  0.00    +0.000 C 
ATOM     39  C   UNL     1       2.002 -17.174  16.886  0.00  0.00    +0.000 C 
BRANCH  39  40
ATOM     40  C   UNL     1       1.734 -18.329  16.361  0.00  0.00    +0.000 C 
ATOM     41  C   UNL     1       0.553 -19.107  16.858  0.00  0.00    +0.000 C 
ATOM     42  C   UNL     1       2.444 -18.761  15.114  0.00  0.00    +0.000 C 
ENDBRANCH  39  40
ENDBRANCH  20  38
BRANCH  25  43
ATOM     43  C   UNL     1      -1.045 -14.811  20.932  0.00  0.00    +0.000 C 
BRANCH  43  44
ATOM     44  C   UNL     1      -2.558 -14.952  20.721  0.00  0.00    +0.000 C 
ATOM     45  C   UNL     1      -4.072 -15.095  20.510  0.00  0.00    +0.000 C 
BRANCH  45  46
ATOM     46  C   UNL     1      -5.349 -15.219  20.325  0.00  0.00    +0.000 C 
ATOM     47  C   UNL     1      -6.113 -14.107  19.673  0.00  0.00    +0.000 C 
ATOM     48  C   UNL     1      -6.083 -16.381  20.917  0.00  0.00    +0.000 C 
ENDBRANCH  45  46
ENDBRANCH  43  44
ENDBRANCH  25  43
TORSDOF 10
ENDMDL
MODEL 9
REMARK VINA RESULT:      -5.6     15.281     20.190
REMARK  Name = 9852185_GambogicAcid.pdbqt.pdb
REMARK  10 active torsions:
REMARK  status: ('A' for Active; 'I' for Inactive)
REMARK    1  A    between atoms: C_8  and  C_30
REMARK    2  A    between atoms: C_20  and  C_38
REMARK    3  A    between atoms: C_21  and  O_28
REMARK    4  A    between atoms: C_25  and  C_43
REMARK    5  A    between atoms: C_31  and  C_32
REMARK    6  A    between atoms: C_32  and  C_35
REMARK    7  A    between atoms: C_35  and  O_36
REMARK    8  A    between atoms: C_39  and  C_40
REMARK    9  A    between atoms: C_43  and  C_44
REMARK   10  A    between atoms: C_45  and  C_46
REMARK                            x       y       z     vdW  Elec       q    Type
REMARK                         _______ _______ _______ _____ _____    ______ ____
ROOT
ATOM      1  O   UNL     1       0.217 -16.878  21.272  0.00  0.00    +0.000 OA
ATOM      2  O   UNL     1      -2.646 -17.056  21.011  0.00  0.00    +0.000 OA
ATOM      3  O   UNL     1       1.040 -13.893  21.970  0.00  0.00    +0.000 OA
ATOM      4  O   UNL     1      -4.788 -13.647  20.147  0.00  0.00    +0.000 OA
ATOM      5  O   UNL     1      -6.454 -19.829  20.388  0.00  0.00    +0.000 OA
ATOM      6  C   UNL     1      -1.889 -15.890  20.714  0.00  0.00    +0.000 C 
ATOM      7  C   UNL     1      -1.010 -16.049  19.423  0.00  0.00    +0.000 C 
ATOM      8  C   UNL     1      -0.618 -15.773  21.648  0.00  0.00    +0.000 C 
ATOM      9  C   UNL     1       0.026 -17.089  19.862  0.00  0.00    +0.000 C 
ATOM     10  C   UNL     1      -0.524 -14.714  19.072  0.00  0.00    +0.000 C 
ATOM     11  C   UNL     1      -0.510 -13.683  20.095  0.00  0.00    +0.000 C 
ATOM     12  C   UNL     1      -2.709 -14.588  20.729  0.00  0.00    +0.000 C 
ATOM     13  C   UNL     1       0.105 -14.371  21.346  0.00  0.00    +0.000 C 
ATOM     14  C   UNL     1      -1.889 -13.454  20.443  0.00  0.00    +0.000 C 
ATOM     15  C   UNL     1       1.378 -16.889  19.161  0.00  0.00    +0.000 C 
ATOM     16  C   UNL     1      -0.508 -18.508  19.611  0.00  0.00    +0.000 C 
ATOM     17  C   UNL     1      -4.133 -14.649  20.404  0.00  0.00    +0.000 C 
ATOM     18  C   UNL     1      -3.971 -17.110  20.673  0.00  0.00    +0.000 A 
ATOM     19  C   UNL     1      -4.747 -15.982  20.369  0.00  0.00    +0.000 A 
ATOM     20  C   UNL     1      -4.563 -18.391  20.685  0.00  0.00    +0.000 A 
ATOM     21  C   UNL     1      -6.108 -16.120  20.048  0.00  0.00    +0.000 A 
ATOM     22  C   UNL     1      -5.919 -18.539  20.371  0.00  0.00    +0.000 A 
ATOM     23  C   UNL     1      -6.681 -17.388  20.048  0.00  0.00    +0.000 A 
ATOM     24  C   UNL     1      -8.039 -17.667  19.756  0.00  0.00    +0.000 C 
ATOM     25  C   UNL     1      -7.899 -20.046  20.138  0.00  0.00    +0.000 C 
ATOM     26  C   UNL     1      -8.513 -18.760  19.804  0.00  0.00    +0.000 C 
ATOM     27  C   UNL     1      -8.490 -20.653  21.435  0.00  0.00    +0.000 C 
ENDROOT
BRANCH  21  28
ATOM     28  O   UNL     1      -6.906 -15.053  19.731  0.00  0.00    +0.000 OA
ATOM     29  H   UNL     1      -6.454 -14.482  19.070  0.00  0.00    +0.000 HD
ENDBRANCH  21  28
BRANCH   8  30
ATOM     30  C   UNL     1      -0.958 -15.880  23.074  0.00  0.00    +0.000 C 
ATOM     31  C   UNL     1      -1.320 -15.939  24.566  0.00  0.00    +0.000 C 
BRANCH  31  32
ATOM     32  C   UNL     1      -1.609 -15.935  25.836  0.00  0.00    +0.000 C 
ATOM     33  C   UNL     1      -0.441 -15.629  26.755  0.00  0.00    +0.000 C 
BRANCH  32  35
ATOM     34  O   UNL     1      -3.994 -16.212  25.578  0.00  0.00    +0.000 OA
ATOM     35  C   UNL     1      -3.001 -16.200  26.291  0.00  0.00    +0.000 C 
BRANCH  35  36
ATOM     36  O   UNL     1      -3.117 -16.442  27.614  0.00  0.00    +0.000 OA
ATOM     37  H   UNL     1      -2.700 -15.671  28.053  0.00  0.00    +0.000 HD
ENDBRANCH  35  36
ENDBRANCH  32  35
ENDBRANCH  31  32
ENDBRANCH   8  30
BRANCH  20  38
ATOM     38  C   UNL     1      -3.774 -19.542  21.016  0.00  0.00    +0.000 C 
ATOM     39  C   UNL     1      -2.941 -20.775  21.398  0.00  0.00    +0.000 C 
BRANCH  39  40
ATOM     40  C   UNL     1      -2.250 -21.818  21.738  0.00  0.00    +0.000 C 
ATOM     41  C   UNL     1      -2.907 -22.909  22.528  0.00  0.00    +0.000 C 
ATOM     42  C   UNL     1      -0.895 -22.039  21.139  0.00  0.00    +0.000 C 
ENDBRANCH  39  40
ENDBRANCH  20  38
BRANCH  25  43
ATOM     43  C   UNL     1      -8.004 -21.005  19.022  0.00  0.00    +0.000 C 
BRANCH  43  44
ATOM     44  C   UNL     1      -8.120 -22.002  17.863  0.00  0.00    +0.000 C 
ATOM     45  C   UNL     1      -8.238 -22.999  16.701  0.00  0.00    +0.000 C 
BRANCH  45  46
ATOM     46  C   UNL     1      -8.344 -23.842  15.721  0.00  0.00    +0.000 C 
ATOM     47  C   UNL     1      -7.884 -25.255  15.908  0.00  0.00    +0.000 C 
ATOM     48  C   UNL     1      -8.756 -23.364  14.364  0.00  0.00    +0.000 C 
ENDBRANCH  45  46
ENDBRANCH  43  44
ENDBRANCH  25  43
TORSDOF 10
ENDMDL
