MODEL 1
REMARK VINA RESULT:      -6.7      0.000      0.000
REMARK  Name = AFLATOXIN.pdbqt.pdb
REMARK  1 active torsions:
REMARK  status: ('A' for Active; 'I' for Inactive)
REMARK    1  A    between atoms: C_15  and  O_23
REMARK                            x       y       z     vdW  Elec       q    Type
REMARK                         _______ _______ _______ _____ _____    ______ ____
ROOT
ATOM      1  O   UNL     1      -8.726  -4.187  20.689  0.00  0.00    +0.000 OA
ATOM      2  O   UNL     1      -9.928  -4.546  18.560  0.00  0.00    +0.000 OA
ATOM      3  O   UNL     1      -9.499   0.439  20.276  0.00  0.00    +0.000 OA
ATOM      4  O   UNL     1      -6.732   4.054  22.312  0.00  0.00    +0.000 OA
ATOM      5  O   UNL     1     -10.114   2.601  20.116  0.00  0.00    +0.000 OA
ATOM      6  O   UNL     1      -8.502   4.525  21.006  0.00  0.00    +0.000 OA
ATOM      7  C   UNL     1     -10.053  -2.519  19.732  0.00  0.00    +0.000 C 
ATOM      8  C   UNL     1      -9.055  -1.884  20.568  0.00  0.00    +0.000 A 
ATOM      9  C   UNL     1      -9.821  -3.980  19.845  0.00  0.00    +0.000 C 
ATOM     10  C   UNL     1      -8.325  -2.936  21.130  0.00  0.00    +0.000 A 
ATOM     11  C   UNL     1      -8.727  -0.572  20.853  0.00  0.00    +0.000 A 
ATOM     12  C   UNL     1      -7.668  -0.276  21.710  0.00  0.00    +0.000 A 
ATOM     13  C   UNL     1     -10.352  -2.277  18.366  0.00  0.00    +0.000 C 
ATOM     14  C   UNL     1      -7.364   1.152  21.910  0.00  0.00    +0.000 A 
ATOM     15  C   UNL     1      -6.969  -1.367  22.300  0.00  0.00    +0.000 A 
ATOM     16  C   UNL     1      -7.274  -2.705  21.988  0.00  0.00    +0.000 A 
ATOM     17  C   UNL     1      -6.248   1.578  22.664  0.00  0.00    +0.000 A 
ATOM     18  C   UNL     1      -8.121   2.151  21.368  0.00  0.00    +0.000 A 
ATOM     19  C   UNL     1     -10.253  -3.398  17.965  0.00  0.00    +0.000 C 
ATOM     20  C   UNL     1      -6.056   3.037  22.791  0.00  0.00    +0.000 A 
ATOM     21  C   UNL     1      -9.311   1.788  20.552  0.00  0.00    +0.000 A 
ATOM     22  C   UNL     1      -7.819   3.659  21.542  0.00  0.00    +0.000 A 
ENDROOT
BRANCH  15  23
ATOM     23  O   UNL     1      -5.898  -1.149  23.140  0.00  0.00    +0.000 OA
ATOM     24  C   UNL     1      -6.207  -1.544  24.453  0.00  0.00    +0.000 C 
ENDBRANCH  15  23
TORSDOF 1
ENDMDL
MODEL 2
REMARK VINA RESULT:      -6.5     16.291     19.639
REMARK  Name = AFLATOXIN.pdbqt.pdb
REMARK  1 active torsions:
REMARK  status: ('A' for Active; 'I' for Inactive)
REMARK    1  A    between atoms: C_15  and  O_23
REMARK                            x       y       z     vdW  Elec       q    Type
REMARK                         _______ _______ _______ _____ _____    ______ ____
ROOT
ATOM      1  O   UNL     1     -22.294   1.600   8.800  0.00  0.00    +0.000 OA
ATOM      2  O   UNL     1     -21.260   2.417  10.890  0.00  0.00    +0.000 OA
ATOM      3  O   UNL     1     -21.950  -2.807  10.423  0.00  0.00    +0.000 OA
ATOM      4  O   UNL     1     -21.714  -6.934   7.635  0.00  0.00    +0.000 OA
ATOM      5  O   UNL     1     -21.959  -4.850  11.372  0.00  0.00    +0.000 OA
ATOM      6  O   UNL     1     -21.597  -7.025   9.879  0.00  0.00    +0.000 OA
ATOM      7  C   UNL     1     -22.098   0.237  10.688  0.00  0.00    +0.000 C 
ATOM      8  C   UNL     1     -22.161  -0.613   9.516  0.00  0.00    +0.000 A 
ATOM      9  C   UNL     1     -22.199   1.633  10.195  0.00  0.00    +0.000 C 
ATOM     10  C   UNL     1     -22.310   0.263   8.436  0.00  0.00    +0.000 A 
ATOM     11  C   UNL     1     -22.084  -1.977   9.307  0.00  0.00    +0.000 A 
ATOM     12  C   UNL     1     -22.161  -2.503   8.018  0.00  0.00    +0.000 A 
ATOM     13  C   UNL     1     -21.123   0.258  11.719  0.00  0.00    +0.000 C 
ATOM     14  C   UNL     1     -22.018  -3.964   7.895  0.00  0.00    +0.000 A 
ATOM     15  C   UNL     1     -22.356  -1.591   6.942  0.00  0.00    +0.000 A 
ATOM     16  C   UNL     1     -22.400  -0.198   7.143  0.00  0.00    +0.000 A 
ATOM     17  C   UNL     1     -21.967  -4.604   6.636  0.00  0.00    +0.000 A 
ATOM     18  C   UNL     1     -21.905  -4.789   8.978  0.00  0.00    +0.000 A 
ATOM     19  C   UNL     1     -20.845   1.419  11.672  0.00  0.00    +0.000 C 
ATOM     20  C   UNL     1     -21.823  -6.074   6.650  0.00  0.00    +0.000 A 
ATOM     21  C   UNL     1     -21.942  -4.194  10.341  0.00  0.00    +0.000 A 
ATOM     22  C   UNL     1     -21.733  -6.325   8.883  0.00  0.00    +0.000 A 
ENDROOT
BRANCH  15  23
ATOM     23  O   UNL     1     -22.421  -2.037   5.640  0.00  0.00    +0.000 OA
ATOM     24  C   UNL     1     -23.654  -1.698   5.058  0.00  0.00    +0.000 C 
ENDBRANCH  15  23
TORSDOF 1
ENDMDL
MODEL 3
REMARK VINA RESULT:      -6.3     17.230     19.181
REMARK  Name = AFLATOXIN.pdbqt.pdb
REMARK  1 active torsions:
REMARK  status: ('A' for Active; 'I' for Inactive)
REMARK    1  A    between atoms: C_15  and  O_23
REMARK                            x       y       z     vdW  Elec       q    Type
REMARK                         _______ _______ _______ _____ _____    ______ ____
ROOT
ATOM      1  O   UNL     1     -21.465  -5.632   7.732  0.00  0.00    +0.000 OA
ATOM      2  O   UNL     1     -21.623  -6.830   9.888  0.00  0.00    +0.000 OA
ATOM      3  O   UNL     1     -21.675  -1.543  10.058  0.00  0.00    +0.000 OA
ATOM      4  O   UNL     1     -23.282   2.795   8.197  0.00  0.00    +0.000 OA
ATOM      5  O   UNL     1     -21.548   0.356  11.264  0.00  0.00    +0.000 OA
ATOM      6  O   UNL     1     -22.624   2.609  10.339  0.00  0.00    +0.000 OA
ATOM      7  C   UNL     1     -21.134  -4.540   9.772  0.00  0.00    +0.000 C 
ATOM      8  C   UNL     1     -21.568  -3.561   8.795  0.00  0.00    +0.000 A 
ATOM      9  C   UNL     1     -21.068  -5.838   9.057  0.00  0.00    +0.000 C 
ATOM     10  C   UNL     1     -21.713  -4.274   7.601  0.00  0.00    +0.000 A 
ATOM     11  C   UNL     1     -21.851  -2.209   8.843  0.00  0.00    +0.000 A 
ATOM     12  C   UNL     1     -22.279  -1.533   7.701  0.00  0.00    +0.000 A 
ATOM     13  C   UNL     1     -21.684  -4.826  11.048  0.00  0.00    +0.000 C 
ATOM     14  C   UNL     1     -22.604  -0.105   7.866  0.00  0.00    +0.000 A 
ATOM     15  C   UNL     1     -22.376  -2.276   6.490  0.00  0.00    +0.000 A 
ATOM     16  C   UNL     1     -22.123  -3.660   6.440  0.00  0.00    +0.000 A 
ATOM     17  C   UNL     1     -23.153   0.660   6.813  0.00  0.00    +0.000 A 
ATOM     18  C   UNL     1     -22.420   0.563   9.043  0.00  0.00    +0.000 A 
ATOM     19  C   UNL     1     -21.841  -6.002  10.910  0.00  0.00    +0.000 C 
ATOM     20  C   UNL     1     -23.433   2.080   7.107  0.00  0.00    +0.000 A 
ATOM     21  C   UNL     1     -21.853  -0.173  10.205  0.00  0.00    +0.000 A 
ATOM     22  C   UNL     1     -22.770   2.056   9.255  0.00  0.00    +0.000 A 
ENDROOT
BRANCH  15  23
ATOM     23  O   UNL     1     -22.812  -1.678   5.328  0.00  0.00    +0.000 OA
ATOM     24  C   UNL     1     -23.438  -2.616   4.489  0.00  0.00    +0.000 C 
ENDBRANCH  15  23
TORSDOF 1
ENDMDL
MODEL 4
REMARK VINA RESULT:      -6.3      5.492      8.468
REMARK  Name = AFLATOXIN.pdbqt.pdb
REMARK  1 active torsions:
REMARK  status: ('A' for Active; 'I' for Inactive)
REMARK    1  A    between atoms: C_15  and  O_23
REMARK                            x       y       z     vdW  Elec       q    Type
REMARK                         _______ _______ _______ _____ _____    ______ ____
ROOT
ATOM      1  O   UNL     1     -11.750  -3.080  21.491  0.00  0.00    +0.000 OA
ATOM      2  O   UNL     1     -10.084  -3.156  19.668  0.00  0.00    +0.000 OA
ATOM      3  O   UNL     1      -8.811  -5.573  24.197  0.00  0.00    +0.000 OA
ATOM      4  O   UNL     1     -10.128  -8.484  28.026  0.00  0.00    +0.000 OA
ATOM      5  O   UNL     1      -7.255  -6.562  25.492  0.00  0.00    +0.000 OA
ATOM      6  O   UNL     1      -7.982  -8.294  27.380  0.00  0.00    +0.000 OA
ATOM      7  C   UNL     1      -9.534  -3.717  21.876  0.00  0.00    +0.000 C 
ATOM      8  C   UNL     1     -10.365  -4.315  22.902  0.00  0.00    +0.000 A 
ATOM      9  C   UNL     1     -10.446  -2.931  21.009  0.00  0.00    +0.000 C 
ATOM     10  C   UNL     1     -11.662  -3.867  22.629  0.00  0.00    +0.000 A 
ATOM     11  C   UNL     1     -10.127  -5.169  23.962  0.00  0.00    +0.000 A 
ATOM     12  C   UNL     1     -11.173  -5.592  24.781  0.00  0.00    +0.000 A 
ATOM     13  C   UNL     1      -8.611  -4.346  21.002  0.00  0.00    +0.000 C 
ATOM     14  C   UNL     1     -10.825  -6.542  25.852  0.00  0.00    +0.000 A 
ATOM     15  C   UNL     1     -12.475  -5.087  24.506  0.00  0.00    +0.000 A 
ATOM     16  C   UNL     1     -12.732  -4.245  23.407  0.00  0.00    +0.000 A 
ATOM     17  C   UNL     1     -11.811  -7.129  26.676  0.00  0.00    +0.000 A 
ATOM     18  C   UNL     1      -9.541  -6.931  26.106  0.00  0.00    +0.000 A 
ATOM     19  C   UNL     1      -9.043  -3.933  19.967  0.00  0.00    +0.000 C 
ATOM     20  C   UNL     1     -11.331  -8.064  27.714  0.00  0.00    +0.000 A 
ATOM     21  C   UNL     1      -8.442  -6.365  25.278  0.00  0.00    +0.000 A 
ATOM     22  C   UNL     1      -9.143  -7.941  27.210  0.00  0.00    +0.000 A 
ENDROOT
BRANCH  15  23
ATOM     23  O   UNL     1     -13.559  -5.478  25.261  0.00  0.00    +0.000 OA
ATOM     24  C   UNL     1     -14.113  -4.382  25.943  0.00  0.00    +0.000 C 
ENDBRANCH  15  23
TORSDOF 1
ENDMDL
MODEL 5
REMARK VINA RESULT:      -5.9     17.975     19.936
REMARK  Name = AFLATOXIN.pdbqt.pdb
REMARK  1 active torsions:
REMARK  status: ('A' for Active; 'I' for Inactive)
REMARK    1  A    between atoms: C_15  and  O_23
REMARK                            x       y       z     vdW  Elec       q    Type
REMARK                         _______ _______ _______ _____ _____    ______ ____
ROOT
ATOM      1  O   UNL     1      -3.183  -5.527   0.701  0.00  0.00    +0.000 OA
ATOM      2  O   UNL     1      -1.593  -7.324   0.111  0.00  0.00    +0.000 OA
ATOM      3  O   UNL     1       0.373  -3.082   2.584  0.00  0.00    +0.000 OA
ATOM      4  O   UNL     1      -0.029   0.372   6.159  0.00  0.00    +0.000 OA
ATOM      5  O   UNL     1       2.163  -1.886   3.249  0.00  0.00    +0.000 OA
ATOM      6  O   UNL     1       1.971  -0.218   5.316  0.00  0.00    +0.000 OA
ATOM      7  C   UNL     1      -0.872  -5.186   0.746  0.00  0.00    +0.000 C 
ATOM      8  C   UNL     1      -1.489  -4.247   1.661  0.00  0.00    +0.000 A 
ATOM      9  C   UNL     1      -1.979  -5.971   0.147  0.00  0.00    +0.000 C 
ATOM     10  C   UNL     1      -2.863  -4.485   1.558  0.00  0.00    +0.000 A 
ATOM     11  C   UNL     1      -1.007  -3.288   2.532  0.00  0.00    +0.000 A 
ATOM     12  C   UNL     1      -1.882  -2.537   3.315  0.00  0.00    +0.000 A 
ATOM     13  C   UNL     1       0.173  -6.113   0.996  0.00  0.00    +0.000 C 
ATOM     14  C   UNL     1      -1.269  -1.576   4.248  0.00  0.00    +0.000 A 
ATOM     15  C   UNL     1      -3.278  -2.771   3.158  0.00  0.00    +0.000 A 
ATOM     16  C   UNL     1      -3.776  -3.770   2.299  0.00  0.00    +0.000 A 
ATOM     17  C   UNL     1      -2.043  -0.838   5.173  0.00  0.00    +0.000 A 
ATOM     18  C   UNL     1       0.077  -1.350   4.297  0.00  0.00    +0.000 A 
ATOM     19  C   UNL     1      -0.374  -7.101   0.602  0.00  0.00    +0.000 C 
ATOM     20  C   UNL     1      -1.307   0.093   6.051  0.00  0.00    +0.000 A 
ATOM     21  C   UNL     1       0.964  -2.093   3.362  0.00  0.00    +0.000 A 
ATOM     22  C   UNL     1       0.755  -0.363   5.278  0.00  0.00    +0.000 A 
ENDROOT
BRANCH  15  23
ATOM     23  O   UNL     1      -4.201  -2.081   3.914  0.00  0.00    +0.000 OA
ATOM     24  C   UNL     1      -5.130  -1.425   3.089  0.00  0.00    +0.000 C 
ENDBRANCH  15  23
TORSDOF 1
ENDMDL
MODEL 6
REMARK VINA RESULT:      -5.9      1.272      5.862
REMARK  Name = AFLATOXIN.pdbqt.pdb
REMARK  1 active torsions:
REMARK  status: ('A' for Active; 'I' for Inactive)
REMARK    1  A    between atoms: C_15  and  O_23
REMARK                            x       y       z     vdW  Elec       q    Type
REMARK                         _______ _______ _______ _____ _____    ______ ____
ROOT
ATOM      1  O   UNL     1      -6.996   3.138  22.054  0.00  0.00    +0.000 OA
ATOM      2  O   UNL     1      -8.535   4.978  21.460  0.00  0.00    +0.000 OA
ATOM      3  O   UNL     1      -9.695   0.167  19.590  0.00  0.00    +0.000 OA
ATOM      4  O   UNL     1     -10.041  -4.753  20.323  0.00  0.00    +0.000 OA
ATOM      5  O   UNL     1     -10.909  -1.130  18.205  0.00  0.00    +0.000 OA
ATOM      6  O   UNL     1     -11.268  -3.711  18.752  0.00  0.00    +0.000 OA
ATOM      7  C   UNL     1      -8.581   2.912  20.351  0.00  0.00    +0.000 C 
ATOM      8  C   UNL     1      -8.272   1.593  20.864  0.00  0.00    +0.000 A 
ATOM      9  C   UNL     1      -7.743   3.864  21.121  0.00  0.00    +0.000 C 
ATOM     10  C   UNL     1      -7.300   1.801  21.848  0.00  0.00    +0.000 A 
ATOM     11  C   UNL     1      -8.734   0.319  20.593  0.00  0.00    +0.000 A 
ATOM     12  C   UNL     1      -8.236  -0.780  21.292  0.00  0.00    +0.000 A 
ATOM     13  C   UNL     1      -9.848   3.536  20.209  0.00  0.00    +0.000 C 
ATOM     14  C   UNL     1      -8.830  -2.089  20.968  0.00  0.00    +0.000 A 
ATOM     15  C   UNL     1      -7.218  -0.543  22.259  0.00  0.00    +0.000 A 
ATOM     16  C   UNL     1      -6.766   0.755  22.565  0.00  0.00    +0.000 A 
ATOM     17  C   UNL     1      -8.490  -3.259  21.684  0.00  0.00    +0.000 A 
ATOM     18  C   UNL     1      -9.755  -2.255  19.978  0.00  0.00    +0.000 A 
ATOM     19  C   UNL     1      -9.614   4.543  20.809  0.00  0.00    +0.000 C 
ATOM     20  C   UNL     1      -9.154  -4.507  21.259  0.00  0.00    +0.000 A 
ATOM     21  C   UNL     1     -10.174  -1.071  19.180  0.00  0.00    +0.000 A 
ATOM     22  C   UNL     1     -10.412  -3.611  19.624  0.00  0.00    +0.000 A 
ENDROOT
BRANCH  15  23
ATOM     23  O   UNL     1      -6.694  -1.579  23.002  0.00  0.00    +0.000 OA
ATOM     24  C   UNL     1      -5.321  -1.382  23.231  0.00  0.00    +0.000 C 
ENDBRANCH  15  23
TORSDOF 1
ENDMDL
MODEL 7
REMARK VINA RESULT:      -5.9     17.522     19.101
REMARK  Name = AFLATOXIN.pdbqt.pdb
REMARK  1 active torsions:
REMARK  status: ('A' for Active; 'I' for Inactive)
REMARK    1  A    between atoms: C_15  and  O_23
REMARK                            x       y       z     vdW  Elec       q    Type
REMARK                         _______ _______ _______ _____ _____    ______ ____
ROOT
ATOM      1  O   UNL     1     -23.198   1.774  10.254  0.00  0.00    +0.000 OA
ATOM      2  O   UNL     1     -23.683   2.696   8.013  0.00  0.00    +0.000 OA
ATOM      3  O   UNL     1     -21.711  -2.208   8.226  0.00  0.00    +0.000 OA
ATOM      4  O   UNL     1     -21.644  -6.718  10.351  0.00  0.00    +0.000 OA
ATOM      5  O   UNL     1     -20.805  -3.977   7.165  0.00  0.00    +0.000 OA
ATOM      6  O   UNL     1     -20.992  -6.415   8.220  0.00  0.00    +0.000 OA
ATOM      7  C   UNL     1     -22.367   0.779   8.309  0.00  0.00    +0.000 C 
ATOM      8  C   UNL     1     -22.448  -0.235   9.341  0.00  0.00    +0.000 A 
ATOM      9  C   UNL     1     -22.838   2.042   8.929  0.00  0.00    +0.000 C 
ATOM     10  C   UNL     1     -22.918   0.435  10.475  0.00  0.00    +0.000 A 
ATOM     11  C   UNL     1     -22.192  -1.593   9.384  0.00  0.00    +0.000 A 
ATOM     12  C   UNL     1     -22.392  -2.315  10.559  0.00  0.00    +0.000 A 
ATOM     13  C   UNL     1     -22.914   0.760   7.000  0.00  0.00    +0.000 C 
ATOM     14  C   UNL     1     -22.140  -3.766  10.489  0.00  0.00    +0.000 A 
ATOM     15  C   UNL     1     -22.830  -1.600  11.709  0.00  0.00    +0.000 A 
ATOM     16  C   UNL     1     -23.126  -0.224  11.666  0.00  0.00    +0.000 A 
ATOM     17  C   UNL     1     -22.413  -4.622  11.579  0.00  0.00    +0.000 A 
ATOM     18  C   UNL     1     -21.652  -4.377   9.370  0.00  0.00    +0.000 A 
ATOM     19  C   UNL     1     -23.514   1.792   7.047  0.00  0.00    +0.000 C 
ATOM     20  C   UNL     1     -22.115  -6.055  11.381  0.00  0.00    +0.000 A 
ATOM     21  C   UNL     1     -21.346  -3.547   8.174  0.00  0.00    +0.000 A 
ATOM     22  C   UNL     1     -21.396  -5.900   9.257  0.00  0.00    +0.000 A 
ENDROOT
BRANCH  15  23
ATOM     23  O   UNL     1     -23.068  -2.253  12.900  0.00  0.00    +0.000 OA
ATOM     24  C   UNL     1     -24.202  -1.724  13.540  0.00  0.00    +0.000 C 
ENDBRANCH  15  23
TORSDOF 1
ENDMDL
MODEL 8
REMARK VINA RESULT:      -5.9     17.602     18.883
REMARK  Name = AFLATOXIN.pdbqt.pdb
REMARK  1 active torsions:
REMARK  status: ('A' for Active; 'I' for Inactive)
REMARK    1  A    between atoms: C_15  and  O_23
REMARK                            x       y       z     vdW  Elec       q    Type
REMARK                         _______ _______ _______ _____ _____    ______ ____
ROOT
ATOM      1  O   UNL     1     -21.463  -6.257  11.510  0.00  0.00    +0.000 OA
ATOM      2  O   UNL     1     -23.240  -6.673  13.176  0.00  0.00    +0.000 OA
ATOM      3  O   UNL     1     -23.448  -2.102  10.522  0.00  0.00    +0.000 OA
ATOM      4  O   UNL     1     -23.023   0.386   6.221  0.00  0.00    +0.000 OA
ATOM      5  O   UNL     1     -24.328  -0.042  10.281  0.00  0.00    +0.000 OA
ATOM      6  O   UNL     1     -24.291   1.165   7.908  0.00  0.00    +0.000 OA
ATOM      7  C   UNL     1     -22.863  -4.545  12.267  0.00  0.00    +0.000 C 
ATOM      8  C   UNL     1     -22.376  -4.187  10.950  0.00  0.00    +0.000 A 
ATOM      9  C   UNL     1     -22.252  -5.858  12.593  0.00  0.00    +0.000 C 
ATOM     10  C   UNL     1     -21.526  -5.233  10.577  0.00  0.00    +0.000 A 
ATOM     11  C   UNL     1     -22.600  -3.126  10.093  0.00  0.00    +0.000 A 
ATOM     12  C   UNL     1     -21.978  -3.078   8.846  0.00  0.00    +0.000 A 
ATOM     13  C   UNL     1     -24.202  -4.614  12.731  0.00  0.00    +0.000 C 
ATOM     14  C   UNL     1     -22.321  -1.933   7.985  0.00  0.00    +0.000 A 
ATOM     15  C   UNL     1     -21.084  -4.135   8.511  0.00  0.00    +0.000 A 
ATOM     16  C   UNL     1     -20.877  -5.236   9.364  0.00  0.00    +0.000 A 
ATOM     17  C   UNL     1     -21.843  -1.829   6.659  0.00  0.00    +0.000 A 
ATOM     18  C   UNL     1     -23.132  -0.915   8.398  0.00  0.00    +0.000 A 
ATOM     19  C   UNL     1     -24.183  -5.731  13.155  0.00  0.00    +0.000 C 
ATOM     20  C   UNL     1     -22.259  -0.631   5.902  0.00  0.00    +0.000 A 
ATOM     21  C   UNL     1     -23.684  -0.952   9.779  0.00  0.00    +0.000 A 
ATOM     22  C   UNL     1     -23.528   0.291   7.512  0.00  0.00    +0.000 A 
ENDROOT
BRANCH  15  23
ATOM     23  O   UNL     1     -20.450  -4.163   7.288  0.00  0.00    +0.000 OA
ATOM     24  C   UNL     1     -19.220  -4.836   7.381  0.00  0.00    +0.000 C 
ENDBRANCH  15  23
TORSDOF 1
ENDMDL
MODEL 9
REMARK VINA RESULT:      -5.8      6.249      9.198
REMARK  Name = AFLATOXIN.pdbqt.pdb
REMARK  1 active torsions:
REMARK  status: ('A' for Active; 'I' for Inactive)
REMARK    1  A    between atoms: C_15  and  O_23
REMARK                            x       y       z     vdW  Elec       q    Type
REMARK                         _______ _______ _______ _____ _____    ______ ____
ROOT
ATOM      1  O   UNL     1      -8.814  -8.854  28.637  0.00  0.00    +0.000 OA
ATOM      2  O   UNL     1      -6.932  -7.889  29.916  0.00  0.00    +0.000 OA
ATOM      3  O   UNL     1      -8.075  -5.658  25.258  0.00  0.00    +0.000 OA
ATOM      4  O   UNL     1     -11.480  -4.001  22.014  0.00  0.00    +0.000 OA
ATOM      5  O   UNL     1      -7.504  -4.250  23.595  0.00  0.00    +0.000 OA
ATOM      6  O   UNL     1      -9.379  -3.199  22.023  0.00  0.00    +0.000 OA
ATOM      7  C   UNL     1      -7.282  -7.388  27.653  0.00  0.00    +0.000 C 
ATOM      8  C   UNL     1      -8.528  -7.309  26.916  0.00  0.00    +0.000 A 
ATOM      9  C   UNL     1      -7.498  -8.388  28.728  0.00  0.00    +0.000 C 
ATOM     10  C   UNL     1      -9.378  -8.230  27.536  0.00  0.00    +0.000 A 
ATOM     11  C   UNL     1      -8.971  -6.552  25.848  0.00  0.00    +0.000 A 
ATOM     12  C   UNL     1     -10.272  -6.699  25.367  0.00  0.00    +0.000 A 
ATOM     13  C   UNL     1      -6.531  -6.339  28.242  0.00  0.00    +0.000 C 
ATOM     14  C   UNL     1     -10.666  -5.812  24.258  0.00  0.00    +0.000 A 
ATOM     15  C   UNL     1     -11.102  -7.674  25.990  0.00  0.00    +0.000 A 
ATOM     16  C   UNL     1     -10.669  -8.424  27.100  0.00  0.00    +0.000 A 
ATOM     17  C   UNL     1     -11.988  -5.787  23.759  0.00  0.00    +0.000 A 
ATOM     18  C   UNL     1      -9.795  -4.947  23.660  0.00  0.00    +0.000 A 
ATOM     19  C   UNL     1      -6.451  -6.782  29.349  0.00  0.00    +0.000 C 
ATOM     20  C   UNL     1     -12.252  -4.853  22.645  0.00  0.00    +0.000 A 
ATOM     21  C   UNL     1      -8.385  -4.905  24.132  0.00  0.00    +0.000 A 
ATOM     22  C   UNL     1     -10.182  -3.988  22.508  0.00  0.00    +0.000 A 
ENDROOT
BRANCH  15  23
ATOM     23  O   UNL     1     -12.404  -7.860  25.580  0.00  0.00    +0.000 OA
ATOM     24  C   UNL     1     -12.759  -9.218  25.646  0.00  0.00    +0.000 C 
ENDBRANCH  15  23
TORSDOF 1
ENDMDL
