MODEL 1
REMARK VINA RESULT:      -6.5      0.000      0.000
REMARK  Name = AZD4547.pdbqt.pdb
REMARK  6 active torsions:
REMARK  status: ('A' for Active; 'I' for Inactive)
REMARK    1  A    between atoms: C_3  and  C_23
REMARK    2  A    between atoms: C_8  and  C_11
REMARK    3  A    between atoms: C_12  and  C_13
REMARK    4  A    between atoms: C_15  and  O_19
REMARK    5  A    between atoms: C_17  and  O_21
REMARK    6  A    between atoms: C_26  and  N_29
REMARK                            x       y       z     vdW  Elec       q    Type
REMARK                         _______ _______ _______ _____ _____    ______ ____
ROOT
ATOM      1  O   UNL     1     -19.101   1.301  12.005  0.00  0.00    +0.000 OA
ATOM      2  N   UNL     1     -20.423   3.004  11.162  0.00  0.00    +0.000 N 
ATOM      3  C   UNL     1     -19.495   2.462  12.022  0.00  0.00    +0.000 C 
ATOM      4  H   UNL     1     -20.719   3.967  11.216  0.00  0.00    +0.000 HD
ATOM      5  C   UNL     1     -21.040   2.312  10.148  0.00  0.00    +0.000 A 
ATOM      6  N   UNL     1     -21.928   2.950   9.378  0.00  0.00    +0.000 NA
ATOM      7  N   UNL     1     -22.332   2.007   8.508  0.00  0.00    +0.000 N 
ATOM      8  C   UNL     1     -21.734   0.796   8.694  0.00  0.00    +0.000 A 
ATOM      9  H   UNL     1     -23.021   2.257   7.807  0.00  0.00    +0.000 HD
ATOM     10  C   UNL     1     -20.884   0.958   9.760  0.00  0.00    +0.000 A 
ENDROOT
BRANCH   3  11
ATOM     11  C   UNL     1     -18.944   3.383  13.047  0.00  0.00    +0.000 A 
ATOM     12  C   UNL     1     -17.745   3.043  13.672  0.00  0.00    +0.000 A 
ATOM     13  C   UNL     1     -17.199   3.883  14.640  0.00  0.00    +0.000 A 
ATOM     14  C   UNL     1     -17.840   5.070  15.016  0.00  0.00    +0.000 A 
ATOM     15  C   UNL     1     -19.035   5.405  14.364  0.00  0.00    +0.000 A 
ATOM     16  C   UNL     1     -19.588   4.568  13.394  0.00  0.00    +0.000 A 
BRANCH  14  17
ATOM     17  N   UNL     1     -17.261   5.944  15.966  0.00  0.00    +0.000 N 
ATOM     18  C   UNL     1     -17.160   7.375  15.631  0.00  0.00    +0.000 C 
ATOM     19  C   UNL     1     -16.119   8.350  15.637  0.00  0.00    +0.000 C 
ATOM     20  N   UNL     1     -14.829   7.904  16.058  0.00  0.00    +0.000 N 
ATOM     21  C   UNL     1     -16.330   9.755  15.201  0.00  0.00    +0.000 C 
ATOM     22  C   UNL     1     -14.686   6.534  16.432  0.00  0.00    +0.000 C 
ATOM     23  H   UNL     1     -14.040   8.532  16.065  0.00  0.00    +0.000 HD
ATOM     24  C   UNL     1     -15.858   5.725  16.355  0.00  0.00    +0.000 C 
ATOM     25  C   UNL     1     -13.362   5.992  16.837  0.00  0.00    +0.000 C 
ENDBRANCH  14  17
ENDBRANCH   3  11
BRANCH   8  26
ATOM     26  C   UNL     1     -21.974  -0.363   7.919  0.00  0.00    +0.000 C 
ATOM     27  C   UNL     1     -22.236  -1.621   7.084  0.00  0.00    +0.000 C 
BRANCH  27  28
ATOM     28  C   UNL     1     -22.481  -2.795   6.315  0.00  0.00    +0.000 A 
ATOM     29  C   UNL     1     -21.953  -4.016   6.725  0.00  0.00    +0.000 A 
ATOM     30  C   UNL     1     -22.195  -5.171   5.978  0.00  0.00    +0.000 A 
ATOM     31  C   UNL     1     -22.973  -5.088   4.821  0.00  0.00    +0.000 A 
ATOM     32  C   UNL     1     -23.500  -3.865   4.403  0.00  0.00    +0.000 A 
ATOM     33  C   UNL     1     -23.251  -2.717   5.159  0.00  0.00    +0.000 A 
BRANCH  30  34
ATOM     34  O   UNL     1     -21.731  -6.425   6.293  0.00  0.00    +0.000 OA
ATOM     35  C   UNL     1     -22.105  -6.904   7.554  0.00  0.00    +0.000 C 
ENDBRANCH  30  34
BRANCH  32  36
ATOM     36  O   UNL     1     -24.249  -3.903   3.253  0.00  0.00    +0.000 OA
ATOM     37  C   UNL     1     -23.644  -3.339   2.121  0.00  0.00    +0.000 C 
ENDBRANCH  32  36
ENDBRANCH  27  28
ENDBRANCH   8  26
TORSDOF 6
ENDMDL
MODEL 2
REMARK VINA RESULT:      -6.5     22.496     24.828
REMARK  Name = AZD4547.pdbqt.pdb
REMARK  6 active torsions:
REMARK  status: ('A' for Active; 'I' for Inactive)
REMARK    1  A    between atoms: C_3  and  C_23
REMARK    2  A    between atoms: C_8  and  C_11
REMARK    3  A    between atoms: C_12  and  C_13
REMARK    4  A    between atoms: C_15  and  O_19
REMARK    5  A    between atoms: C_17  and  O_21
REMARK    6  A    between atoms: C_26  and  N_29
REMARK                            x       y       z     vdW  Elec       q    Type
REMARK                         _______ _______ _______ _____ _____    ______ ____
ROOT
ATOM      1  O   UNL     1      -5.167 -14.432  19.728  0.00  0.00    +0.000 OA
ATOM      2  N   UNL     1      -4.718 -16.169  21.193  0.00  0.00    +0.000 N 
ATOM      3  C   UNL     1      -4.383 -15.095  20.399  0.00  0.00    +0.000 C 
ATOM      4  H   UNL     1      -4.036 -16.687  21.725  0.00  0.00    +0.000 HD
ATOM      5  C   UNL     1      -5.996 -16.650  21.351  0.00  0.00    +0.000 A 
ATOM      6  N   UNL     1      -6.194 -17.703  22.150  0.00  0.00    +0.000 NA
ATOM      7  N   UNL     1      -7.523 -17.909  22.082  0.00  0.00    +0.000 N 
ATOM      8  C   UNL     1      -8.173 -17.027  21.272  0.00  0.00    +0.000 A 
ATOM      9  H   UNL     1      -7.923 -18.672  22.616  0.00  0.00    +0.000 HD
ATOM     10  C   UNL     1      -7.206 -16.189  20.776  0.00  0.00    +0.000 A 
ENDROOT
BRANCH   3  11
ATOM     11  C   UNL     1      -2.944 -14.734  20.369  0.00  0.00    +0.000 A 
ATOM     12  C   UNL     1      -2.171 -14.984  21.503  0.00  0.00    +0.000 A 
ATOM     13  C   UNL     1      -0.817 -14.658  21.512  0.00  0.00    +0.000 A 
ATOM     14  C   UNL     1      -0.207 -14.063  20.400  0.00  0.00    +0.000 A 
ATOM     15  C   UNL     1      -0.994 -13.837  19.262  0.00  0.00    +0.000 A 
ATOM     16  C   UNL     1      -2.351 -14.161  19.247  0.00  0.00    +0.000 A 
BRANCH  14  17
ATOM     17  N   UNL     1       1.178 -13.774  20.394  0.00  0.00    +0.000 N 
ATOM     18  C   UNL     1       1.622 -12.461  20.895  0.00  0.00    +0.000 C 
ATOM     19  C   UNL     1       2.455 -11.414  20.404  0.00  0.00    +0.000 C 
ATOM     20  N   UNL     1       3.038 -11.612  19.115  0.00  0.00    +0.000 N 
ATOM     21  C   UNL     1       2.694 -10.155  21.158  0.00  0.00    +0.000 C 
ATOM     22  C   UNL     1       2.742 -12.829  18.429  0.00  0.00    +0.000 C 
ATOM     23  H   UNL     1       3.619 -10.904  18.694  0.00  0.00    +0.000 HD
ATOM     24  C   UNL     1       1.883 -13.748  19.101  0.00  0.00    +0.000 C 
ATOM     25  C   UNL     1       3.278 -13.082  17.066  0.00  0.00    +0.000 C 
ENDBRANCH  14  17
ENDBRANCH   3  11
BRANCH   8  26
ATOM     26  C   UNL     1      -9.567 -17.017  21.026  0.00  0.00    +0.000 C 
ATOM     27  C   UNL     1     -11.076 -17.010  20.761  0.00  0.00    +0.000 C 
BRANCH  27  28
ATOM     28  C   UNL     1     -12.480 -17.011  20.519  0.00  0.00    +0.000 A 
ATOM     29  C   UNL     1     -13.322 -16.233  21.308  0.00  0.00    +0.000 A 
ATOM     30  C   UNL     1     -14.699 -16.227  21.072  0.00  0.00    +0.000 A 
ATOM     31  C   UNL     1     -15.219 -17.005  20.035  0.00  0.00    +0.000 A 
ATOM     32  C   UNL     1     -14.379 -17.791  19.244  0.00  0.00    +0.000 A 
ATOM     33  C   UNL     1     -13.005 -17.788  19.490  0.00  0.00    +0.000 A 
BRANCH  30  34
ATOM     34  O   UNL     1     -15.616 -15.493  21.783  0.00  0.00    +0.000 OA
ATOM     35  C   UNL     1     -16.925 -15.991  21.768  0.00  0.00    +0.000 C 
ENDBRANCH  30  34
BRANCH  32  36
ATOM     36  O   UNL     1     -15.001 -18.513  18.255  0.00  0.00    +0.000 OA
ATOM     37  C   UNL     1     -14.637 -18.175  16.944  0.00  0.00    +0.000 C 
ENDBRANCH  32  36
ENDBRANCH  27  28
ENDBRANCH   8  26
TORSDOF 6
ENDMDL
MODEL 3
REMARK VINA RESULT:      -6.4     17.332     22.115
REMARK  Name = AZD4547.pdbqt.pdb
REMARK  6 active torsions:
REMARK  status: ('A' for Active; 'I' for Inactive)
REMARK    1  A    between atoms: C_3  and  C_23
REMARK    2  A    between atoms: C_8  and  C_11
REMARK    3  A    between atoms: C_12  and  C_13
REMARK    4  A    between atoms: C_15  and  O_19
REMARK    5  A    between atoms: C_17  and  O_21
REMARK    6  A    between atoms: C_26  and  N_29
REMARK                            x       y       z     vdW  Elec       q    Type
REMARK                         _______ _______ _______ _____ _____    ______ ____
ROOT
ATOM      1  O   UNL     1     -10.396 -11.492  -0.136  0.00  0.00    +0.000 OA
ATOM      2  N   UNL     1     -11.238  -9.357  -0.441  0.00  0.00    +0.000 N 
ATOM      3  C   UNL     1     -11.338 -10.717  -0.248  0.00  0.00    +0.000 C 
ATOM      4  H   UNL     1     -12.044  -8.758  -0.531  0.00  0.00    +0.000 HD
ATOM      5  C   UNL     1     -10.050  -8.671  -0.530  0.00  0.00    +0.000 A 
ATOM      6  N   UNL     1     -10.083  -7.348  -0.720  0.00  0.00    +0.000 NA
ATOM      7  N   UNL     1      -8.784  -6.999  -0.759  0.00  0.00    +0.000 N 
ATOM      8  C   UNL     1      -7.930  -8.049  -0.599  0.00  0.00    +0.000 A 
ATOM      9  H   UNL     1      -8.547  -6.023  -0.898  0.00  0.00    +0.000 HD
ATOM     10  C   UNL     1      -8.723  -9.159  -0.448  0.00  0.00    +0.000 A 
ENDROOT
BRANCH   3  11
ATOM     11  C   UNL     1     -12.717 -11.262  -0.177  0.00  0.00    +0.000 A 
ATOM     12  C   UNL     1     -13.297 -11.443   1.078  0.00  0.00    +0.000 A 
ATOM     13  C   UNL     1     -14.590 -11.953   1.183  0.00  0.00    +0.000 A 
ATOM     14  C   UNL     1     -15.325 -12.306   0.045  0.00  0.00    +0.000 A 
ATOM     15  C   UNL     1     -14.733 -12.100  -1.209  0.00  0.00    +0.000 A 
ATOM     16  C   UNL     1     -13.440 -11.590  -1.322  0.00  0.00    +0.000 A 
BRANCH  14  17
ATOM     17  N   UNL     1     -16.653 -12.781   0.152  0.00  0.00    +0.000 N 
ATOM     18  C   UNL     1     -17.745 -11.796   0.250  0.00  0.00    +0.000 C 
ATOM     19  C   UNL     1     -18.848 -11.585   1.128  0.00  0.00    +0.000 C 
ATOM     20  N   UNL     1     -18.998 -12.516   2.201  0.00  0.00    +0.000 N 
ATOM     21  C   UNL     1     -19.789 -10.444   0.977  0.00  0.00    +0.000 C 
ATOM     22  C   UNL     1     -18.042 -13.570   2.308  0.00  0.00    +0.000 C 
ATOM     23  H   UNL     1     -19.742 -12.416   2.874  0.00  0.00    +0.000 HD
ATOM     24  C   UNL     1     -17.012 -13.600   1.322  0.00  0.00    +0.000 C 
ATOM     25  C   UNL     1     -18.111 -14.548   3.426  0.00  0.00    +0.000 C 
ENDBRANCH  14  17
ENDBRANCH   3  11
BRANCH   8  26
ATOM     26  C   UNL     1      -6.517  -7.962  -0.597  0.00  0.00    +0.000 C 
ATOM     27  C   UNL     1      -4.988  -7.864  -0.598  0.00  0.00    +0.000 C 
BRANCH  27  28
ATOM     28  C   UNL     1      -3.566  -7.768  -0.605  0.00  0.00    +0.000 A 
ATOM     29  C   UNL     1      -2.832  -8.415  -1.595  0.00  0.00    +0.000 A 
ATOM     30  C   UNL     1      -1.439  -8.320  -1.610  0.00  0.00    +0.000 A 
ATOM     31  C   UNL     1      -0.793  -7.566  -0.628  0.00  0.00    +0.000 A 
ATOM     32  C   UNL     1      -1.525  -6.919   0.369  0.00  0.00    +0.000 A 
ATOM     33  C   UNL     1      -2.917  -7.022   0.374  0.00  0.00    +0.000 A 
BRANCH  30  34
ATOM     34  O   UNL     1      -0.619  -8.910  -2.541  0.00  0.00    +0.000 OA
ATOM     35  C   UNL     1       0.742  -8.932  -2.215  0.00  0.00    +0.000 C 
ENDBRANCH  30  34
BRANCH  32  36
ATOM     36  O   UNL     1      -0.785  -6.207   1.281  0.00  0.00    +0.000 OA
ATOM     37  C   UNL     1       0.283  -6.903   1.864  0.00  0.00    +0.000 C 
ENDBRANCH  32  36
ENDBRANCH  27  28
ENDBRANCH   8  26
TORSDOF 6
ENDMDL
MODEL 4
REMARK VINA RESULT:      -6.3      0.316      2.330
REMARK  Name = AZD4547.pdbqt.pdb
REMARK  6 active torsions:
REMARK  status: ('A' for Active; 'I' for Inactive)
REMARK    1  A    between atoms: C_3  and  C_23
REMARK    2  A    between atoms: C_8  and  C_11
REMARK    3  A    between atoms: C_12  and  C_13
REMARK    4  A    between atoms: C_15  and  O_19
REMARK    5  A    between atoms: C_17  and  O_21
REMARK    6  A    between atoms: C_26  and  N_29
REMARK                            x       y       z     vdW  Elec       q    Type
REMARK                         _______ _______ _______ _____ _____    ______ ____
ROOT
ATOM      1  O   UNL     1     -19.147   1.252  12.057  0.00  0.00    +0.000 OA
ATOM      2  N   UNL     1     -20.408   2.969  11.148  0.00  0.00    +0.000 N 
ATOM      3  C   UNL     1     -19.511   2.423  12.039  0.00  0.00    +0.000 C 
ATOM      4  H   UNL     1     -20.679   3.940  11.174  0.00  0.00    +0.000 HD
ATOM      5  C   UNL     1     -21.024   2.269  10.139  0.00  0.00    +0.000 A 
ATOM      6  N   UNL     1     -21.880   2.913   9.338  0.00  0.00    +0.000 NA
ATOM      7  N   UNL     1     -22.292   1.960   8.482  0.00  0.00    +0.000 N 
ATOM      8  C   UNL     1     -21.731   0.739   8.708  0.00  0.00    +0.000 A 
ATOM      9  H   UNL     1     -22.962   2.211   7.762  0.00  0.00    +0.000 HD
ATOM     10  C   UNL     1     -20.897   0.903   9.785  0.00  0.00    +0.000 A 
ENDROOT
BRANCH   3  11
ATOM     11  C   UNL     1     -18.955   3.354  13.053  0.00  0.00    +0.000 A 
ATOM     12  C   UNL     1     -19.675   4.507  13.364  0.00  0.00    +0.000 A 
ATOM     13  C   UNL     1     -19.183   5.403  14.311  0.00  0.00    +0.000 A 
ATOM     14  C   UNL     1     -17.960   5.179  14.956  0.00  0.00    +0.000 A 
ATOM     15  C   UNL     1     -17.260   4.005  14.644  0.00  0.00    +0.000 A 
ATOM     16  C   UNL     1     -17.746   3.104  13.697  0.00  0.00    +0.000 A 
BRANCH  14  17
ATOM     17  N   UNL     1     -17.485   6.067  15.949  0.00  0.00    +0.000 N 
ATOM     18  C   UNL     1     -17.312   7.487  15.595  0.00  0.00    +0.000 C 
ATOM     19  C   UNL     1     -16.260   8.442  15.706  0.00  0.00    +0.000 C 
ATOM     20  N   UNL     1     -15.041   7.984  16.294  0.00  0.00    +0.000 N 
ATOM     21  C   UNL     1     -16.385   9.839  15.213  0.00  0.00    +0.000 C 
ATOM     22  C   UNL     1     -14.975   6.623  16.717  0.00  0.00    +0.000 C 
ATOM     23  H   UNL     1     -14.246   8.598  16.385  0.00  0.00    +0.000 HD
ATOM     24  C   UNL     1     -16.145   5.833  16.514  0.00  0.00    +0.000 C 
ATOM     25  C   UNL     1     -13.724   6.067  17.296  0.00  0.00    +0.000 C 
ENDBRANCH  14  17
ENDBRANCH   3  11
BRANCH   8  26
ATOM     26  C   UNL     1     -21.988  -0.432   7.956  0.00  0.00    +0.000 C 
ATOM     27  C   UNL     1     -22.269  -1.698   7.139  0.00  0.00    +0.000 C 
BRANCH  27  28
ATOM     28  C   UNL     1     -22.538  -2.871   6.377  0.00  0.00    +0.000 A 
ATOM     29  C   UNL     1     -23.314  -2.786   5.224  0.00  0.00    +0.000 A 
ATOM     30  C   UNL     1     -23.577  -3.932   4.470  0.00  0.00    +0.000 A 
ATOM     31  C   UNL     1     -23.050  -5.159   4.882  0.00  0.00    +0.000 A 
ATOM     32  C   UNL     1     -22.277  -5.249   6.040  0.00  0.00    +0.000 A 
ATOM     33  C   UNL     1     -22.021  -4.097   6.785  0.00  0.00    +0.000 A 
BRANCH  30  34
ATOM     34  O   UNL     1     -24.320  -3.962   3.316  0.00  0.00    +0.000 OA
ATOM     35  C   UNL     1     -24.779  -2.719   2.864  0.00  0.00    +0.000 C 
ENDBRANCH  30  34
BRANCH  32  36
ATOM     36  O   UNL     1     -21.813  -6.505   6.347  0.00  0.00    +0.000 OA
ATOM     37  C   UNL     1     -21.970  -6.894   7.684  0.00  0.00    +0.000 C 
ENDBRANCH  32  36
ENDBRANCH  27  28
ENDBRANCH   8  26
TORSDOF 6
ENDMDL
MODEL 5
REMARK VINA RESULT:      -6.1     14.184     17.812
REMARK  Name = AZD4547.pdbqt.pdb
REMARK  6 active torsions:
REMARK  status: ('A' for Active; 'I' for Inactive)
REMARK    1  A    between atoms: C_3  and  C_23
REMARK    2  A    between atoms: C_8  and  C_11
REMARK    3  A    between atoms: C_12  and  C_13
REMARK    4  A    between atoms: C_15  and  O_19
REMARK    5  A    between atoms: C_17  and  O_21
REMARK    6  A    between atoms: C_26  and  N_29
REMARK                            x       y       z     vdW  Elec       q    Type
REMARK                         _______ _______ _______ _____ _____    ______ ____
ROOT
ATOM      1  O   UNL     1      -9.494  -2.340  22.992  0.00  0.00    +0.000 OA
ATOM      2  N   UNL     1     -11.741  -1.929  22.615  0.00  0.00    +0.000 N 
ATOM      3  C   UNL     1     -10.399  -1.628  22.570  0.00  0.00    +0.000 C 
ATOM      4  H   UNL     1     -12.452  -1.310  22.257  0.00  0.00    +0.000 HD
ATOM      5  C   UNL     1     -12.260  -3.088  23.141  0.00  0.00    +0.000 A 
ATOM      6  N   UNL     1     -13.586  -3.265  23.129  0.00  0.00    +0.000 NA
ATOM      7  N   UNL     1     -13.752  -4.470  23.704  0.00  0.00    +0.000 N 
ATOM      8  C   UNL     1     -12.584  -5.064  24.079  0.00  0.00    +0.000 A 
ATOM      9  H   UNL     1     -14.694  -4.831  23.810  0.00  0.00    +0.000 HD
ATOM     10  C   UNL     1     -11.587  -4.189  23.727  0.00  0.00    +0.000 A 
ENDROOT
BRANCH   3  11
ATOM     11  C   UNL     1     -10.046  -0.324  21.955  0.00  0.00    +0.000 A 
ATOM     12  C   UNL     1     -10.585   0.838  22.506  0.00  0.00    +0.000 A 
ATOM     13  C   UNL     1     -10.276   2.080  21.955  0.00  0.00    +0.000 A 
ATOM     14  C   UNL     1      -9.440   2.191  20.837  0.00  0.00    +0.000 A 
ATOM     15  C   UNL     1      -8.893   1.013  20.308  0.00  0.00    +0.000 A 
ATOM     16  C   UNL     1      -9.197  -0.233  20.855  0.00  0.00    +0.000 A 
BRANCH  14  17
ATOM     17  N   UNL     1      -9.092   3.455  20.306  0.00  0.00    +0.000 N 
ATOM     18  C   UNL     1     -10.080   4.160  19.471  0.00  0.00    +0.000 C 
ATOM     19  C   UNL     1     -10.071   4.771  18.183  0.00  0.00    +0.000 C 
ATOM     20  N   UNL     1      -8.837   4.729  17.464  0.00  0.00    +0.000 N 
ATOM     21  C   UNL     1     -11.278   5.397  17.580  0.00  0.00    +0.000 C 
ATOM     22  C   UNL     1      -7.725   4.085  18.085  0.00  0.00    +0.000 C 
ATOM     23  H   UNL     1      -8.762   5.121  16.538  0.00  0.00    +0.000 HD
ATOM     24  C   UNL     1      -7.948   3.537  19.383  0.00  0.00    +0.000 C 
ATOM     25  C   UNL     1      -6.424   3.965  17.377  0.00  0.00    +0.000 C 
ENDBRANCH  14  17
ENDBRANCH   3  11
BRANCH   8  26
ATOM     26  C   UNL     1     -12.473  -6.331  24.701  0.00  0.00    +0.000 C 
ATOM     27  C   UNL     1     -12.354  -7.704  25.370  0.00  0.00    +0.000 C 
BRANCH  27  28
ATOM     28  C   UNL     1     -12.244  -8.985  25.985  0.00  0.00    +0.000 A 
ATOM     29  C   UNL     1     -10.988  -9.525  26.244  0.00  0.00    +0.000 A 
ATOM     30  C   UNL     1     -10.875 -10.778  26.851  0.00  0.00    +0.000 A 
ATOM     31  C   UNL     1     -12.033 -11.478  27.198  0.00  0.00    +0.000 A 
ATOM     32  C   UNL     1     -13.295 -10.942  26.935  0.00  0.00    +0.000 A 
ATOM     33  C   UNL     1     -13.395  -9.689  26.328  0.00  0.00    +0.000 A 
BRANCH  30  34
ATOM     34  O   UNL     1      -9.690 -11.400  27.159  0.00  0.00    +0.000 OA
ATOM     35  C   UNL     1      -9.381 -11.464  28.522  0.00  0.00    +0.000 C 
ENDBRANCH  30  34
BRANCH  32  36
ATOM     36  O   UNL     1     -14.361 -11.718  27.319  0.00  0.00    +0.000 OA
ATOM     37  C   UNL     1     -15.626 -11.188  27.030  0.00  0.00    +0.000 C 
ENDBRANCH  32  36
ENDBRANCH  27  28
ENDBRANCH   8  26
TORSDOF 6
ENDMDL
MODEL 6
REMARK VINA RESULT:      -6.1     23.299     25.836
REMARK  Name = AZD4547.pdbqt.pdb
REMARK  6 active torsions:
REMARK  status: ('A' for Active; 'I' for Inactive)
REMARK    1  A    between atoms: C_3  and  C_23
REMARK    2  A    between atoms: C_8  and  C_11
REMARK    3  A    between atoms: C_12  and  C_13
REMARK    4  A    between atoms: C_15  and  O_19
REMARK    5  A    between atoms: C_17  and  O_21
REMARK    6  A    between atoms: C_26  and  N_29
REMARK                            x       y       z     vdW  Elec       q    Type
REMARK                         _______ _______ _______ _____ _____    ______ ____
ROOT
ATOM      1  O   UNL     1      -2.558 -14.358  18.839  0.00  0.00    +0.000 OA
ATOM      2  N   UNL     1      -2.362 -14.671  21.125  0.00  0.00    +0.000 N 
ATOM      3  C   UNL     1      -1.934 -14.243  19.888  0.00  0.00    +0.000 C 
ATOM      4  H   UNL     1      -1.810 -14.557  21.962  0.00  0.00    +0.000 HD
ATOM      5  C   UNL     1      -3.567 -15.288  21.360  0.00  0.00    +0.000 A 
ATOM      6  N   UNL     1      -3.868 -15.660  22.608  0.00  0.00    +0.000 NA
ATOM      7  N   UNL     1      -5.087 -16.219  22.488  0.00  0.00    +0.000 N 
ATOM      8  C   UNL     1      -5.569 -16.215  21.214  0.00  0.00    +0.000 A 
ATOM      9  H   UNL     1      -5.536 -16.585  23.321  0.00  0.00    +0.000 HD
ATOM     10  C   UNL     1      -4.601 -15.615  20.448  0.00  0.00    +0.000 A 
ENDROOT
BRANCH   3  11
ATOM     11  C   UNL     1      -0.599 -13.595  19.852  0.00  0.00    +0.000 A 
ATOM     12  C   UNL     1      -0.376 -12.484  20.665  0.00  0.00    +0.000 A 
ATOM     13  C   UNL     1       0.864 -11.850  20.656  0.00  0.00    +0.000 A 
ATOM     14  C   UNL     1       1.902 -12.297  19.828  0.00  0.00    +0.000 A 
ATOM     15  C   UNL     1       1.666 -13.426  19.031  0.00  0.00    +0.000 A 
ATOM     16  C   UNL     1       0.426 -14.066  19.035  0.00  0.00    +0.000 A 
BRANCH  14  17
ATOM     17  N   UNL     1       3.175 -11.679  19.854  0.00  0.00    +0.000 N 
ATOM     18  C   UNL     1       4.237 -12.295  20.668  0.00  0.00    +0.000 C 
ATOM     19  C   UNL     1       5.143 -11.840  21.671  0.00  0.00    +0.000 C 
ATOM     20  N   UNL     1       5.060 -10.460  22.028  0.00  0.00    +0.000 N 
ATOM     21  C   UNL     1       6.110 -12.742  22.350  0.00  0.00    +0.000 C 
ATOM     22  C   UNL     1       4.087  -9.656  21.361  0.00  0.00    +0.000 C 
ATOM     23  H   UNL     1       5.653 -10.073  22.745  0.00  0.00    +0.000 HD
ATOM     24  C   UNL     1       3.277 -10.310  20.386  0.00  0.00    +0.000 C 
ATOM     25  C   UNL     1       3.915  -8.222  21.715  0.00  0.00    +0.000 C 
ENDBRANCH  14  17
ENDBRANCH   3  11
BRANCH   8  26
ATOM     26  C   UNL     1      -6.822 -16.735  20.811  0.00  0.00    +0.000 C 
ATOM     27  C   UNL     1      -8.177 -17.303  20.376  0.00  0.00    +0.000 C 
BRANCH  27  28
ATOM     28  C   UNL     1      -9.434 -17.840  19.972  0.00  0.00    +0.000 A 
ATOM     29  C   UNL     1      -9.491 -18.768  18.936  0.00  0.00    +0.000 A 
ATOM     30  C   UNL     1     -10.719 -19.301  18.539  0.00  0.00    +0.000 A 
ATOM     31  C   UNL     1     -11.885 -18.897  19.194  0.00  0.00    +0.000 A 
ATOM     32  C   UNL     1     -11.833 -17.962  20.229  0.00  0.00    +0.000 A 
ATOM     33  C   UNL     1     -10.599 -17.436  20.616  0.00  0.00    +0.000 A 
BRANCH  30  34
ATOM     34  O   UNL     1     -10.890 -20.226  17.539  0.00  0.00    +0.000 OA
ATOM     35  C   UNL     1     -12.191 -20.723  17.395  0.00  0.00    +0.000 C 
ENDBRANCH  30  34
BRANCH  32  36
ATOM     36  O   UNL     1     -13.040 -17.639  20.798  0.00  0.00    +0.000 OA
ATOM     37  C   UNL     1     -13.492 -16.336  20.553  0.00  0.00    +0.000 C 
ENDBRANCH  32  36
ENDBRANCH  27  28
ENDBRANCH   8  26
TORSDOF 6
ENDMDL
MODEL 7
REMARK VINA RESULT:      -6.1     15.387     17.039
REMARK  Name = AZD4547.pdbqt.pdb
REMARK  6 active torsions:
REMARK  status: ('A' for Active; 'I' for Inactive)
REMARK    1  A    between atoms: C_3  and  C_23
REMARK    2  A    between atoms: C_8  and  C_11
REMARK    3  A    between atoms: C_12  and  C_13
REMARK    4  A    between atoms: C_15  and  O_19
REMARK    5  A    between atoms: C_17  and  O_21
REMARK    6  A    between atoms: C_26  and  N_29
REMARK                            x       y       z     vdW  Elec       q    Type
REMARK                         _______ _______ _______ _____ _____    ______ ____
ROOT
ATOM      1  O   UNL     1      -8.974   0.266   0.425  0.00  0.00    +0.000 OA
ATOM      2  N   UNL     1      -9.248  -1.545  -0.991  0.00  0.00    +0.000 N 
ATOM      3  C   UNL     1      -8.536  -0.730  -0.140  0.00  0.00    +0.000 C 
ATOM      4  H   UNL     1      -8.843  -2.355  -1.436  0.00  0.00    +0.000 HD
ATOM      5  C   UNL     1     -10.567  -1.355  -1.326  0.00  0.00    +0.000 A 
ATOM      6  N   UNL     1     -11.149  -2.217  -2.167  0.00  0.00    +0.000 NA
ATOM      7  N   UNL     1     -12.407  -1.753  -2.279  0.00  0.00    +0.000 N 
ATOM      8  C   UNL     1     -12.646  -0.632  -1.540  0.00  0.00    +0.000 A 
ATOM      9  H   UNL     1     -13.057  -2.251  -2.878  0.00  0.00    +0.000 HD
ATOM     10  C   UNL     1     -11.464  -0.343  -0.905  0.00  0.00    +0.000 A 
ENDROOT
BRANCH   3  11
ATOM     11  C   UNL     1      -7.121  -1.113   0.093  0.00  0.00    +0.000 A 
ATOM     12  C   UNL     1      -6.526  -2.023  -0.779  0.00  0.00    +0.000 A 
ATOM     13  C   UNL     1      -5.199  -2.406  -0.590  0.00  0.00    +0.000 A 
ATOM     14  C   UNL     1      -4.444  -1.903   0.477  0.00  0.00    +0.000 A 
ATOM     15  C   UNL     1      -5.053  -0.975   1.332  0.00  0.00    +0.000 A 
ATOM     16  C   UNL     1      -6.380  -0.587   1.149  0.00  0.00    +0.000 A 
BRANCH  14  17
ATOM     17  N   UNL     1      -3.084  -2.259   0.640  0.00  0.00    +0.000 N 
ATOM     18  C   UNL     1      -2.702  -3.670   0.460  0.00  0.00    +0.000 C 
ATOM     19  C   UNL     1      -1.971  -4.631   1.218  0.00  0.00    +0.000 C 
ATOM     20  N   UNL     1      -1.450  -4.191   2.474  0.00  0.00    +0.000 N 
ATOM     21  C   UNL     1      -1.774  -6.033   0.766  0.00  0.00    +0.000 C 
ATOM     22  C   UNL     1      -1.702  -2.842   2.865  0.00  0.00    +0.000 C 
ATOM     23  H   UNL     1      -0.943  -4.822   3.075  0.00  0.00    +0.000 HD
ATOM     24  C   UNL     1      -2.457  -2.044   1.956  0.00  0.00    +0.000 C 
ATOM     25  C   UNL     1      -1.229  -2.331   4.178  0.00  0.00    +0.000 C 
ENDBRANCH  14  17
ENDBRANCH   3  11
BRANCH   8  26
ATOM     26  C   UNL     1     -13.880   0.056  -1.474  0.00  0.00    +0.000 C 
ATOM     27  C   UNL     1     -15.219   0.800  -1.405  0.00  0.00    +0.000 C 
BRANCH  27  28
ATOM     28  C   UNL     1     -16.466   1.486  -1.348  0.00  0.00    +0.000 A 
ATOM     29  C   UNL     1     -17.451   1.215  -2.294  0.00  0.00    +0.000 A 
ATOM     30  C   UNL     1     -18.677   1.881  -2.240  0.00  0.00    +0.000 A 
ATOM     31  C   UNL     1     -18.905   2.815  -1.227  0.00  0.00    +0.000 A 
ATOM     32  C   UNL     1     -17.919   3.094  -0.280  0.00  0.00    +0.000 A 
ATOM     33  C   UNL     1     -16.697   2.422  -0.345  0.00  0.00    +0.000 A 
BRANCH  30  34
ATOM     34  O   UNL     1     -19.719   1.685  -3.114  0.00  0.00    +0.000 OA
ATOM     35  C   UNL     1     -19.828   0.393  -3.639  0.00  0.00    +0.000 C 
ENDBRANCH  30  34
BRANCH  32  36
ATOM     36  O   UNL     1     -18.254   4.029   0.668  0.00  0.00    +0.000 OA
ATOM     37  C   UNL     1     -18.390   5.342   0.196  0.00  0.00    +0.000 C 
ENDBRANCH  32  36
ENDBRANCH  27  28
ENDBRANCH   8  26
TORSDOF 6
ENDMDL
MODEL 8
REMARK VINA RESULT:      -6.0     23.191     25.650
REMARK  Name = AZD4547.pdbqt.pdb
REMARK  6 active torsions:
REMARK  status: ('A' for Active; 'I' for Inactive)
REMARK    1  A    between atoms: C_3  and  C_23
REMARK    2  A    between atoms: C_8  and  C_11
REMARK    3  A    between atoms: C_12  and  C_13
REMARK    4  A    between atoms: C_15  and  O_19
REMARK    5  A    between atoms: C_17  and  O_21
REMARK    6  A    between atoms: C_26  and  N_29
REMARK                            x       y       z     vdW  Elec       q    Type
REMARK                         _______ _______ _______ _____ _____    ______ ____
ROOT
ATOM      1  O   UNL     1      -3.085 -14.715  19.046  0.00  0.00    +0.000 OA
ATOM      2  N   UNL     1      -2.750 -15.217  21.282  0.00  0.00    +0.000 N 
ATOM      3  C   UNL     1      -2.368 -14.761  20.040  0.00  0.00    +0.000 C 
ATOM      4  H   UNL     1      -2.123 -15.239  22.072  0.00  0.00    +0.000 HD
ATOM      5  C   UNL     1      -4.006 -15.685  21.585  0.00  0.00    +0.000 A 
ATOM      6  N   UNL     1      -4.255 -16.103  22.830  0.00  0.00    +0.000 NA
ATOM      7  N   UNL     1      -5.545 -16.485  22.786  0.00  0.00    +0.000 N 
ATOM      8  C   UNL     1      -6.123 -16.324  21.562  0.00  0.00    +0.000 A 
ATOM      9  H   UNL     1      -5.973 -16.849  23.631  0.00  0.00    +0.000 HD
ATOM     10  C   UNL     1      -5.146 -15.803  20.751  0.00  0.00    +0.000 A 
ENDROOT
BRANCH   3  11
ATOM     11  C   UNL     1      -0.964 -14.294  19.924  0.00  0.00    +0.000 A 
ATOM     12  C   UNL     1      -0.525 -13.285  20.780  0.00  0.00    +0.000 A 
ATOM     13  C   UNL     1       0.787 -12.822  20.699  0.00  0.00    +0.000 A 
ATOM     14  C   UNL     1       1.683 -13.342  19.757  0.00  0.00    +0.000 A 
ATOM     15  C   UNL     1       1.230 -14.370  18.918  0.00  0.00    +0.000 A 
ATOM     16  C   UNL     1      -0.082 -14.838  18.993  0.00  0.00    +0.000 A 
BRANCH  14  17
ATOM     17  N   UNL     1       3.027 -12.902  19.706  0.00  0.00    +0.000 N 
ATOM     18  C   UNL     1       3.359 -11.594  20.297  0.00  0.00    +0.000 C 
ATOM     19  C   UNL     1       4.046 -10.425  19.858  0.00  0.00    +0.000 C 
ATOM     20  N   UNL     1       4.568 -10.452  18.528  0.00  0.00    +0.000 N 
ATOM     21  C   UNL     1       4.195  -9.213  20.706  0.00  0.00    +0.000 C 
ATOM     22  C   UNL     1       4.362 -11.633  17.755  0.00  0.00    +0.000 C 
ATOM     23  H   UNL     1       5.045  -9.652  18.142  0.00  0.00    +0.000 HD
ATOM     24  C   UNL     1       3.646 -12.693  18.386  0.00  0.00    +0.000 C 
ATOM     25  C   UNL     1       4.838 -11.714  16.349  0.00  0.00    +0.000 C 
ENDBRANCH  14  17
ENDBRANCH   3  11
BRANCH   8  26
ATOM     26  C   UNL     1      -7.464 -16.643  21.242  0.00  0.00    +0.000 C 
ATOM     27  C   UNL     1      -8.917 -16.984  20.894  0.00  0.00    +0.000 C 
BRANCH  27  28
ATOM     28  C   UNL     1     -10.269 -17.293  20.567  0.00  0.00    +0.000 A 
ATOM     29  C   UNL     1     -11.295 -16.457  20.997  0.00  0.00    +0.000 A 
ATOM     30  C   UNL     1     -12.622 -16.752  20.675  0.00  0.00    +0.000 A 
ATOM     31  C   UNL     1     -12.905 -17.889  19.915  0.00  0.00    +0.000 A 
ATOM     32  C   UNL     1     -11.880 -18.733  19.486  0.00  0.00    +0.000 A 
ATOM     33  C   UNL     1     -10.558 -18.427  19.814  0.00  0.00    +0.000 A 
BRANCH  30  34
ATOM     34  O   UNL     1     -13.708 -15.995  21.040  0.00  0.00    +0.000 OA
ATOM     35  C   UNL     1     -14.953 -16.616  20.885  0.00  0.00    +0.000 C 
ENDBRANCH  30  34
BRANCH  32  36
ATOM     36  O   UNL     1     -12.276 -19.819  18.746  0.00  0.00    +0.000 OA
ATOM     37  C   UNL     1     -13.149 -19.539  17.685  0.00  0.00    +0.000 C 
ENDBRANCH  32  36
ENDBRANCH  27  28
ENDBRANCH   8  26
TORSDOF 6
ENDMDL
MODEL 9
REMARK VINA RESULT:      -6.0      9.734     11.507
REMARK  Name = AZD4547.pdbqt.pdb
REMARK  6 active torsions:
REMARK  status: ('A' for Active; 'I' for Inactive)
REMARK    1  A    between atoms: C_3  and  C_23
REMARK    2  A    between atoms: C_8  and  C_11
REMARK    3  A    between atoms: C_12  and  C_13
REMARK    4  A    between atoms: C_15  and  O_19
REMARK    5  A    between atoms: C_17  and  O_21
REMARK    6  A    between atoms: C_26  and  N_29
REMARK                            x       y       z     vdW  Elec       q    Type
REMARK                         _______ _______ _______ _____ _____    ______ ____
ROOT
ATOM      1  O   UNL     1     -20.999  -6.290   8.967  0.00  0.00    +0.000 OA
ATOM      2  N   UNL     1     -23.273  -6.248   8.532  0.00  0.00    +0.000 N 
ATOM      3  C   UNL     1     -22.164  -6.237   9.347  0.00  0.00    +0.000 C 
ATOM      4  H   UNL     1     -24.215  -6.206   8.892  0.00  0.00    +0.000 HD
ATOM      5  C   UNL     1     -23.229  -6.314   7.160  0.00  0.00    +0.000 A 
ATOM      6  N   UNL     1     -24.379  -6.319   6.478  0.00  0.00    +0.000 NA
ATOM      7  N   UNL     1     -23.985  -6.390   5.192  0.00  0.00    +0.000 N 
ATOM      8  C   UNL     1     -22.632  -6.427   5.034  0.00  0.00    +0.000 A 
ATOM      9  H   UNL     1     -24.695  -6.407   4.468  0.00  0.00    +0.000 HD
ATOM     10  C   UNL     1     -22.105  -6.381   6.301  0.00  0.00    +0.000 A 
ENDROOT
BRANCH   3  11
ATOM     11  C   UNL     1     -22.430  -6.157  10.805  0.00  0.00    +0.000 A 
ATOM     12  C   UNL     1     -23.739  -6.331  11.253  0.00  0.00    +0.000 A 
ATOM     13  C   UNL     1     -24.027  -6.262  12.615  0.00  0.00    +0.000 A 
ATOM     14  C   UNL     1     -23.022  -6.004  13.556  0.00  0.00    +0.000 A 
ATOM     15  C   UNL     1     -21.710  -5.851  13.089  0.00  0.00    +0.000 A 
ATOM     16  C   UNL     1     -21.415  -5.918  11.728  0.00  0.00    +0.000 A 
BRANCH  14  17
ATOM     17  N   UNL     1     -23.309  -5.979  14.942  0.00  0.00    +0.000 N 
ATOM     18  C   UNL     1     -23.397  -7.261  15.663  0.00  0.00    +0.000 C 
ATOM     19  C   UNL     1     -24.346  -7.876  16.531  0.00  0.00    +0.000 C 
ATOM     20  N   UNL     1     -25.528  -7.127  16.819  0.00  0.00    +0.000 N 
ATOM     21  C   UNL     1     -24.157  -9.239  17.094  0.00  0.00    +0.000 C 
ATOM     22  C   UNL     1     -25.663  -5.838  16.221  0.00  0.00    +0.000 C 
ATOM     23  H   UNL     1     -26.253  -7.507  17.407  0.00  0.00    +0.000 HD
ATOM     24  C   UNL     1     -24.594  -5.409  15.381  0.00  0.00    +0.000 C 
ATOM     25  C   UNL     1     -26.886  -5.023  16.441  0.00  0.00    +0.000 C 
ENDBRANCH  14  17
ENDBRANCH   3  11
BRANCH   8  26
ATOM     26  C   UNL     1     -21.955  -6.499   3.793  0.00  0.00    +0.000 C 
ATOM     27  C   UNL     1     -21.218  -6.578   2.452  0.00  0.00    +0.000 C 
BRANCH  27  28
ATOM     28  C   UNL     1     -20.525  -6.654   1.210  0.00  0.00    +0.000 A 
ATOM     29  C   UNL     1     -20.441  -5.530   0.392  0.00  0.00    +0.000 A 
ATOM     30  C   UNL     1     -19.759  -5.598  -0.825  0.00  0.00    +0.000 A 
ATOM     31  C   UNL     1     -19.160  -6.800  -1.209  0.00  0.00    +0.000 A 
ATOM     32  C   UNL     1     -19.246  -7.930  -0.394  0.00  0.00    +0.000 A 
ATOM     33  C   UNL     1     -19.931  -7.850   0.820  0.00  0.00    +0.000 A 
BRANCH  30  34
ATOM     34  O   UNL     1     -19.609  -4.553  -1.703  0.00  0.00    +0.000 OA
ATOM     35  C   UNL     1     -19.558  -3.281  -1.120  0.00  0.00    +0.000 C 
ENDBRANCH  30  34
BRANCH  32  36
ATOM     36  O   UNL     1     -18.620  -9.055  -0.872  0.00  0.00    +0.000 OA
ATOM     37  C   UNL     1     -18.728 -10.194  -0.062  0.00  0.00    +0.000 C 
ENDBRANCH  32  36
ENDBRANCH  27  28
ENDBRANCH   8  26
TORSDOF 6
ENDMDL
