MODEL 1
REMARK VINA RESULT:      -7.2      0.000      0.000
REMARK  Name = Belinostat.pdbqt.pdb
REMARK  6 active torsions:
REMARK  status: ('A' for Active; 'I' for Inactive)
REMARK    1  A    between atoms: C_1  and  S_7
REMARK    2  A    between atoms: C_3  and  C_18
REMARK    3  A    between atoms: S_7  and  N_10
REMARK    4  A    between atoms: N_10  and  C_12
REMARK    5  A    between atoms: C_19  and  C_20
REMARK    6  A    between atoms: N_22  and  O_24
REMARK                            x       y       z     vdW  Elec       q    Type
REMARK                         _______ _______ _______ _____ _____    ______ ____
ROOT
ATOM      1  C   UNL     1      -9.525  -2.362  21.518  0.00  0.00    +0.000 A 
ATOM      2  C   UNL     1      -9.828  -1.172  20.868  0.00  0.00    +0.000 A 
ATOM      3  C   UNL     1      -8.898  -0.138  20.884  0.00  0.00    +0.000 A 
ATOM      4  C   UNL     1      -8.304  -2.551  22.157  0.00  0.00    +0.000 A 
ATOM      5  C   UNL     1      -7.674  -0.305  21.532  0.00  0.00    +0.000 A 
ATOM      6  C   UNL     1      -7.378  -1.512  22.167  0.00  0.00    +0.000 A 
ENDROOT
BRANCH   1   7
ATOM      7  S   UNL     1     -10.676  -3.688  21.470  0.00  0.00    +0.000 S 
ATOM      8  O   UNL     1     -11.955  -3.155  21.885  0.00  0.00    +0.000 OA
ATOM      9  O   UNL     1     -10.085  -4.824  22.144  0.00  0.00    +0.000 OA
BRANCH   7  10
ATOM     10  N   UNL     1     -10.810  -4.026  19.835  0.00  0.00    +0.000 N 
ATOM     11  H   UNL     1     -11.563  -3.529  19.362  0.00  0.00    +0.000 HD
BRANCH  10  12
ATOM     12  C   UNL     1      -9.760  -4.605  19.068  0.00  0.00    +0.000 A 
ATOM     13  C   UNL     1      -8.821  -5.479  19.612  0.00  0.00    +0.000 A 
ATOM     14  C   UNL     1      -7.864  -6.081  18.799  0.00  0.00    +0.000 A 
ATOM     15  C   UNL     1      -7.860  -5.832  17.429  0.00  0.00    +0.000 A 
ATOM     16  C   UNL     1      -8.818  -4.988  16.874  0.00  0.00    +0.000 A 
ATOM     17  C   UNL     1      -9.772  -4.387  17.690  0.00  0.00    +0.000 A 
ENDBRANCH  10  12
ENDBRANCH   7  10
ENDBRANCH   1   7
BRANCH   3  18
ATOM     18  C   UNL     1      -9.197   1.097  20.234  0.00  0.00    +0.000 C 
ATOM     19  C   UNL     1      -9.447   2.137  19.687  0.00  0.00    +0.000 C 
BRANCH  19  20
ATOM     20  C   UNL     1      -9.746   3.385  19.032  0.00  0.00    +0.000 C 
ATOM     21  O   UNL     1     -10.210   4.325  19.667  0.00  0.00    +0.000 OA
ATOM     22  N   UNL     1      -9.471   3.439  17.694  0.00  0.00    +0.000 N 
ATOM     23  H   UNL     1      -9.033   2.692  17.167  0.00  0.00    +0.000 HD
BRANCH  22  24
ATOM     24  O   UNL     1      -9.705   4.662  17.028  0.00  0.00    +0.000 OA
ATOM     25  H   UNL     1      -8.923   4.741  16.440  0.00  0.00    +0.000 HD
ENDBRANCH  22  24
ENDBRANCH  19  20
ENDBRANCH   3  18
TORSDOF 6
ENDMDL
MODEL 2
REMARK VINA RESULT:      -7.0      4.019      5.578
REMARK  Name = Belinostat.pdbqt.pdb
REMARK  6 active torsions:
REMARK  status: ('A' for Active; 'I' for Inactive)
REMARK    1  A    between atoms: C_1  and  S_7
REMARK    2  A    between atoms: C_3  and  C_18
REMARK    3  A    between atoms: S_7  and  N_10
REMARK    4  A    between atoms: N_10  and  C_12
REMARK    5  A    between atoms: C_19  and  C_20
REMARK    6  A    between atoms: N_22  and  O_24
REMARK                            x       y       z     vdW  Elec       q    Type
REMARK                         _______ _______ _______ _____ _____    ______ ____
ROOT
ATOM      1  C   UNL     1      -9.957  -4.203  23.363  0.00  0.00    +0.000 A 
ATOM      2  C   UNL     1     -10.865  -3.155  23.452  0.00  0.00    +0.000 A 
ATOM      3  C   UNL     1     -12.223  -3.425  23.318  0.00  0.00    +0.000 A 
ATOM      4  C   UNL     1     -10.378  -5.516  23.175  0.00  0.00    +0.000 A 
ATOM      5  C   UNL     1     -12.662  -4.733  23.114  0.00  0.00    +0.000 A 
ATOM      6  C   UNL     1     -11.739  -5.778  23.044  0.00  0.00    +0.000 A 
ENDROOT
BRANCH   1   7
ATOM      7  S   UNL     1      -8.244  -3.880  23.570  0.00  0.00    +0.000 S 
ATOM      8  O   UNL     1      -7.656  -5.064  24.158  0.00  0.00    +0.000 OA
ATOM      9  O   UNL     1      -8.101  -2.584  24.198  0.00  0.00    +0.000 OA
BRANCH   7  10
ATOM     10  N   UNL     1      -7.671  -3.797  21.998  0.00  0.00    +0.000 N 
ATOM     11  H   UNL     1      -6.807  -4.312  21.836  0.00  0.00    +0.000 HD
BRANCH  10  12
ATOM     12  C   UNL     1      -8.481  -3.419  20.891  0.00  0.00    +0.000 A 
ATOM     13  C   UNL     1      -8.989  -4.341  19.978  0.00  0.00    +0.000 A 
ATOM     14  C   UNL     1      -9.844  -3.927  18.959  0.00  0.00    +0.000 A 
ATOM     15  C   UNL     1     -10.217  -2.589  18.866  0.00  0.00    +0.000 A 
ATOM     16  C   UNL     1      -9.741  -1.669  19.796  0.00  0.00    +0.000 A 
ATOM     17  C   UNL     1      -8.886  -2.086  20.812  0.00  0.00    +0.000 A 
ENDBRANCH  10  12
ENDBRANCH   7  10
ENDBRANCH   1   7
BRANCH   3  18
ATOM     18  C   UNL     1     -13.169  -2.359  23.392  0.00  0.00    +0.000 C 
ATOM     19  C   UNL     1     -13.963  -1.461  23.453  0.00  0.00    +0.000 C 
BRANCH  19  20
ATOM     20  C   UNL     1     -14.916  -0.381  23.526  0.00  0.00    +0.000 C 
ATOM     21  O   UNL     1     -14.546   0.758  23.786  0.00  0.00    +0.000 OA
ATOM     22  N   UNL     1     -16.219  -0.716  23.281  0.00  0.00    +0.000 N 
ATOM     23  H   UNL     1     -16.533  -1.640  23.008  0.00  0.00    +0.000 HD
BRANCH  22  24
ATOM     24  O   UNL     1     -17.174   0.325  23.296  0.00  0.00    +0.000 OA
ATOM     25  H   UNL     1     -16.707   1.053  22.832  0.00  0.00    +0.000 HD
ENDBRANCH  22  24
ENDBRANCH  19  20
ENDBRANCH   3  18
TORSDOF 6
ENDMDL
MODEL 3
REMARK VINA RESULT:      -7.0      3.386      4.753
REMARK  Name = Belinostat.pdbqt.pdb
REMARK  6 active torsions:
REMARK  status: ('A' for Active; 'I' for Inactive)
REMARK    1  A    between atoms: C_1  and  S_7
REMARK    2  A    between atoms: C_3  and  C_18
REMARK    3  A    between atoms: S_7  and  N_10
REMARK    4  A    between atoms: N_10  and  C_12
REMARK    5  A    between atoms: C_19  and  C_20
REMARK    6  A    between atoms: N_22  and  O_24
REMARK                            x       y       z     vdW  Elec       q    Type
REMARK                         _______ _______ _______ _____ _____    ______ ____
ROOT
ATOM      1  C   UNL     1      -9.686  -2.153  21.460  0.00  0.00    +0.000 A 
ATOM      2  C   UNL     1      -8.466  -2.175  22.126  0.00  0.00    +0.000 A 
ATOM      3  C   UNL     1      -7.612  -1.084  22.005  0.00  0.00    +0.000 A 
ATOM      4  C   UNL     1     -10.082  -1.055  20.703  0.00  0.00    +0.000 A 
ATOM      5  C   UNL     1      -7.986   0.019  21.238  0.00  0.00    +0.000 A 
ATOM      6  C   UNL     1      -9.222   0.033  20.589  0.00  0.00    +0.000 A 
ENDROOT
BRANCH   1   7
ATOM      7  S   UNL     1     -10.790  -3.508  21.638  0.00  0.00    +0.000 S 
ATOM      8  O   UNL     1     -12.061  -2.966  22.068  0.00  0.00    +0.000 OA
ATOM      9  O   UNL     1     -10.120  -4.539  22.400  0.00  0.00    +0.000 OA
BRANCH   7  10
ATOM     10  N   UNL     1     -11.009  -4.039  20.065  0.00  0.00    +0.000 N 
ATOM     11  H   UNL     1     -11.857  -3.693  19.617  0.00  0.00    +0.000 HD
BRANCH  10  12
ATOM     12  C   UNL     1      -9.957  -4.567  19.264  0.00  0.00    +0.000 A 
ATOM     13  C   UNL     1      -9.022  -5.477  19.751  0.00  0.00    +0.000 A 
ATOM     14  C   UNL     1      -8.063  -6.025  18.903  0.00  0.00    +0.000 A 
ATOM     15  C   UNL     1      -8.053  -5.684  17.554  0.00  0.00    +0.000 A 
ATOM     16  C   UNL     1      -9.007  -4.803  17.053  0.00  0.00    +0.000 A 
ATOM     17  C   UNL     1      -9.964  -4.257  17.904  0.00  0.00    +0.000 A 
ENDBRANCH  10  12
ENDBRANCH   7  10
ENDBRANCH   1   7
BRANCH   3  18
ATOM     18  C   UNL     1      -6.349  -1.094  22.670  0.00  0.00    +0.000 C 
ATOM     19  C   UNL     1      -5.288  -1.103  23.232  0.00  0.00    +0.000 C 
BRANCH  19  20
ATOM     20  C   UNL     1      -4.015  -1.115  23.908  0.00  0.00    +0.000 C 
ATOM     21  O   UNL     1      -3.960  -1.126  25.132  0.00  0.00    +0.000 OA
ATOM     22  N   UNL     1      -2.911  -1.120  23.102  0.00  0.00    +0.000 N 
ATOM     23  H   UNL     1      -2.938  -1.169  22.090  0.00  0.00    +0.000 HD
BRANCH  22  24
ATOM     24  O   UNL     1      -1.646  -1.180  23.728  0.00  0.00    +0.000 OA
ATOM     25  H   UNL     1      -1.034  -0.933  23.001  0.00  0.00    +0.000 HD
ENDBRANCH  22  24
ENDBRANCH  19  20
ENDBRANCH   3  18
TORSDOF 6
ENDMDL
MODEL 4
REMARK VINA RESULT:      -6.6      2.292      3.486
REMARK  Name = Belinostat.pdbqt.pdb
REMARK  6 active torsions:
REMARK  status: ('A' for Active; 'I' for Inactive)
REMARK    1  A    between atoms: C_1  and  S_7
REMARK    2  A    between atoms: C_3  and  C_18
REMARK    3  A    between atoms: S_7  and  N_10
REMARK    4  A    between atoms: N_10  and  C_12
REMARK    5  A    between atoms: C_19  and  C_20
REMARK    6  A    between atoms: N_22  and  O_24
REMARK                            x       y       z     vdW  Elec       q    Type
REMARK                         _______ _______ _______ _____ _____    ______ ____
ROOT
ATOM      1  C   UNL     1      -9.014  -2.967  20.450  0.00  0.00    +0.000 A 
ATOM      2  C   UNL     1      -9.359  -1.650  20.170  0.00  0.00    +0.000 A 
ATOM      3  C   UNL     1      -8.720  -0.623  20.858  0.00  0.00    +0.000 A 
ATOM      4  C   UNL     1      -8.027  -3.277  21.380  0.00  0.00    +0.000 A 
ATOM      5  C   UNL     1      -7.739  -0.918  21.805  0.00  0.00    +0.000 A 
ATOM      6  C   UNL     1      -7.392  -2.244  22.063  0.00  0.00    +0.000 A 
ENDROOT
BRANCH   1   7
ATOM      7  S   UNL     1      -9.785  -4.268  19.558  0.00  0.00    +0.000 S 
ATOM      8  O   UNL     1      -8.975  -5.452  19.752  0.00  0.00    +0.000 OA
ATOM      9  O   UNL     1     -10.096  -3.785  18.231  0.00  0.00    +0.000 OA
BRANCH   7  10
ATOM     10  N   UNL     1     -11.210  -4.525  20.400  0.00  0.00    +0.000 N 
ATOM     11  H   UNL     1     -11.945  -4.977  19.858  0.00  0.00    +0.000 HD
BRANCH  10  12
ATOM     12  C   UNL     1     -11.291  -4.517  21.821  0.00  0.00    +0.000 A 
ATOM     13  C   UNL     1     -10.771  -5.538  22.613  0.00  0.00    +0.000 A 
ATOM     14  C   UNL     1     -10.803  -5.441  24.002  0.00  0.00    +0.000 A 
ATOM     15  C   UNL     1     -11.333  -4.305  24.606  0.00  0.00    +0.000 A 
ATOM     16  C   UNL     1     -11.821  -3.264  23.821  0.00  0.00    +0.000 A 
ATOM     17  C   UNL     1     -11.787  -3.365  22.432  0.00  0.00    +0.000 A 
ENDBRANCH  10  12
ENDBRANCH   7  10
ENDBRANCH   1   7
BRANCH   3  18
ATOM     18  C   UNL     1      -9.071   0.734  20.594  0.00  0.00    +0.000 C 
ATOM     19  C   UNL     1      -9.370   1.876  20.371  0.00  0.00    +0.000 C 
BRANCH  19  20
ATOM     20  C   UNL     1      -9.729   3.246  20.104  0.00  0.00    +0.000 C 
ATOM     21  O   UNL     1     -10.504   3.842  20.844  0.00  0.00    +0.000 OA
ATOM     22  N   UNL     1      -9.150   3.813  19.003  0.00  0.00    +0.000 N 
ATOM     23  H   UNL     1      -8.464   3.354  18.415  0.00  0.00    +0.000 HD
BRANCH  22  24
ATOM     24  O   UNL     1      -9.440   5.169  18.737  0.00  0.00    +0.000 OA
ATOM     25  H   UNL     1      -9.675   5.517  19.625  0.00  0.00    +0.000 HD
ENDBRANCH  22  24
ENDBRANCH  19  20
ENDBRANCH   3  18
TORSDOF 6
ENDMDL
MODEL 5
REMARK VINA RESULT:      -6.3      4.247      8.022
REMARK  Name = Belinostat.pdbqt.pdb
REMARK  6 active torsions:
REMARK  status: ('A' for Active; 'I' for Inactive)
REMARK    1  A    between atoms: C_1  and  S_7
REMARK    2  A    between atoms: C_3  and  C_18
REMARK    3  A    between atoms: S_7  and  N_10
REMARK    4  A    between atoms: N_10  and  C_12
REMARK    5  A    between atoms: C_19  and  C_20
REMARK    6  A    between atoms: N_22  and  O_24
REMARK                            x       y       z     vdW  Elec       q    Type
REMARK                         _______ _______ _______ _____ _____    ______ ____
ROOT
ATOM      1  C   UNL     1     -10.477  -2.772  23.335  0.00  0.00    +0.000 A 
ATOM      2  C   UNL     1     -10.016  -3.911  23.985  0.00  0.00    +0.000 A 
ATOM      3  C   UNL     1     -10.868  -5.002  24.122  0.00  0.00    +0.000 A 
ATOM      4  C   UNL     1     -11.758  -2.712  22.795  0.00  0.00    +0.000 A 
ATOM      5  C   UNL     1     -12.161  -4.953  23.600  0.00  0.00    +0.000 A 
ATOM      6  C   UNL     1     -12.604  -3.809  22.935  0.00  0.00    +0.000 A 
ENDROOT
BRANCH   1   7
ATOM      7  S   UNL     1      -9.397  -1.405  23.120  0.00  0.00    +0.000 S 
ATOM      8  O   UNL     1      -8.538  -1.356  24.284  0.00  0.00    +0.000 OA
ATOM      9  O   UNL     1     -10.189  -0.260  22.727  0.00  0.00    +0.000 OA
BRANCH   7  10
ATOM     10  N   UNL     1      -8.429  -1.872  21.836  0.00  0.00    +0.000 N 
ATOM     11  H   UNL     1      -7.433  -1.907  22.049  0.00  0.00    +0.000 HD
BRANCH  10  12
ATOM     12  C   UNL     1      -8.926  -2.557  20.691  0.00  0.00    +0.000 A 
ATOM     13  C   UNL     1      -8.740  -3.923  20.489  0.00  0.00    +0.000 A 
ATOM     14  C   UNL     1      -9.318  -4.559  19.393  0.00  0.00    +0.000 A 
ATOM     15  C   UNL     1     -10.109  -3.833  18.507  0.00  0.00    +0.000 A 
ATOM     16  C   UNL     1     -10.328  -2.476  18.723  0.00  0.00    +0.000 A 
ATOM     17  C   UNL     1      -9.748  -1.844  19.819  0.00  0.00    +0.000 A 
ENDBRANCH  10  12
ENDBRANCH   7  10
ENDBRANCH   1   7
BRANCH   3  18
ATOM     18  C   UNL     1     -10.417  -6.174  24.799  0.00  0.00    +0.000 C 
ATOM     19  C   UNL     1     -10.037  -7.159  25.371  0.00  0.00    +0.000 C 
BRANCH  19  20
ATOM     20  C   UNL     1      -9.580  -8.341  26.059  0.00  0.00    +0.000 C 
ATOM     21  O   UNL     1      -8.708  -8.264  26.917  0.00  0.00    +0.000 OA
ATOM     22  N   UNL     1     -10.183  -9.514  25.697  0.00  0.00    +0.000 N 
ATOM     23  H   UNL     1     -10.944  -9.587  25.032  0.00  0.00    +0.000 HD
BRANCH  22  24
ATOM     24  O   UNL     1      -9.796 -10.686  26.383  0.00  0.00    +0.000 OA
ATOM     25  H   UNL     1     -10.633 -10.974  26.807  0.00  0.00    +0.000 HD
ENDBRANCH  22  24
ENDBRANCH  19  20
ENDBRANCH   3  18
TORSDOF 6
ENDMDL
MODEL 6
REMARK VINA RESULT:      -6.2      2.873      4.302
REMARK  Name = Belinostat.pdbqt.pdb
REMARK  6 active torsions:
REMARK  status: ('A' for Active; 'I' for Inactive)
REMARK    1  A    between atoms: C_1  and  S_7
REMARK    2  A    between atoms: C_3  and  C_18
REMARK    3  A    between atoms: S_7  and  N_10
REMARK    4  A    between atoms: N_10  and  C_12
REMARK    5  A    between atoms: C_19  and  C_20
REMARK    6  A    between atoms: N_22  and  O_24
REMARK                            x       y       z     vdW  Elec       q    Type
REMARK                         _______ _______ _______ _____ _____    ______ ____
ROOT
ATOM      1  C   UNL     1      -8.592  -3.113  22.253  0.00  0.00    +0.000 A 
ATOM      2  C   UNL     1      -8.748  -1.771  21.927  0.00  0.00    +0.000 A 
ATOM      3  C   UNL     1      -9.195  -1.433  20.654  0.00  0.00    +0.000 A 
ATOM      4  C   UNL     1      -8.902  -4.122  21.347  0.00  0.00    +0.000 A 
ATOM      5  C   UNL     1      -9.496  -2.431  19.728  0.00  0.00    +0.000 A 
ATOM      6  C   UNL     1      -9.350  -3.775  20.075  0.00  0.00    +0.000 A 
ENDROOT
BRANCH   1   7
ATOM      7  S   UNL     1      -8.067  -3.552  23.870  0.00  0.00    +0.000 S 
ATOM      8  O   UNL     1      -7.135  -2.534  24.305  0.00  0.00    +0.000 OA
ATOM      9  O   UNL     1      -7.696  -4.951  23.861  0.00  0.00    +0.000 OA
BRANCH   7  10
ATOM     10  N   UNL     1      -9.450  -3.355  24.794  0.00  0.00    +0.000 N 
ATOM     11  H   UNL     1      -9.360  -2.676  25.549  0.00  0.00    +0.000 HD
BRANCH  10  12
ATOM     12  C   UNL     1     -10.745  -3.752  24.357  0.00  0.00    +0.000 A 
ATOM     13  C   UNL     1     -11.682  -2.850  23.858  0.00  0.00    +0.000 A 
ATOM     14  C   UNL     1     -12.905  -3.302  23.367  0.00  0.00    +0.000 A 
ATOM     15  C   UNL     1     -13.185  -4.665  23.349  0.00  0.00    +0.000 A 
ATOM     16  C   UNL     1     -12.239  -5.575  23.813  0.00  0.00    +0.000 A 
ATOM     17  C   UNL     1     -11.018  -5.119  24.304  0.00  0.00    +0.000 A 
ENDBRANCH  10  12
ENDBRANCH   7  10
ENDBRANCH   1   7
BRANCH   3  18
ATOM     18  C   UNL     1      -9.347  -0.060  20.296  0.00  0.00    +0.000 C 
ATOM     19  C   UNL     1      -9.478   1.095  19.996  0.00  0.00    +0.000 C 
BRANCH  19  20
ATOM     20  C   UNL     1      -9.636   2.482  19.635  0.00  0.00    +0.000 C 
ATOM     21  O   UNL     1      -9.910   3.319  20.487  0.00  0.00    +0.000 OA
ATOM     22  N   UNL     1      -9.453   2.781  18.314  0.00  0.00    +0.000 N 
ATOM     23  H   UNL     1      -9.169   2.111  17.607  0.00  0.00    +0.000 HD
BRANCH  22  24
ATOM     24  O   UNL     1      -9.552   4.137  17.931  0.00  0.00    +0.000 OA
ATOM     25  H   UNL     1      -8.676   4.498  18.188  0.00  0.00    +0.000 HD
ENDBRANCH  22  24
ENDBRANCH  19  20
ENDBRANCH   3  18
TORSDOF 6
ENDMDL
MODEL 7
REMARK VINA RESULT:      -6.1      4.644      8.262
REMARK  Name = Belinostat.pdbqt.pdb
REMARK  6 active torsions:
REMARK  status: ('A' for Active; 'I' for Inactive)
REMARK    1  A    between atoms: C_1  and  S_7
REMARK    2  A    between atoms: C_3  and  C_18
REMARK    3  A    between atoms: S_7  and  N_10
REMARK    4  A    between atoms: N_10  and  C_12
REMARK    5  A    between atoms: C_19  and  C_20
REMARK    6  A    between atoms: N_22  and  O_24
REMARK                            x       y       z     vdW  Elec       q    Type
REMARK                         _______ _______ _______ _____ _____    ______ ____
ROOT
ATOM      1  C   UNL     1      -9.830  -4.049  23.782  0.00  0.00    +0.000 A 
ATOM      2  C   UNL     1     -10.382  -5.301  24.025  0.00  0.00    +0.000 A 
ATOM      3  C   UNL     1     -11.101  -5.505  25.198  0.00  0.00    +0.000 A 
ATOM      4  C   UNL     1     -10.006  -2.992  24.669  0.00  0.00    +0.000 A 
ATOM      5  C   UNL     1     -11.274  -4.460  26.106  0.00  0.00    +0.000 A 
ATOM      6  C   UNL     1     -10.727  -3.204  25.840  0.00  0.00    +0.000 A 
ENDROOT
BRANCH   1   7
ATOM      7  S   UNL     1      -8.955  -3.768  22.285  0.00  0.00    +0.000 S 
ATOM      8  O   UNL     1      -7.606  -4.253  22.485  0.00  0.00    +0.000 OA
ATOM      9  O   UNL     1      -9.205  -2.407  21.863  0.00  0.00    +0.000 OA
BRANCH   7  10
ATOM     10  N   UNL     1      -9.683  -4.823  21.206  0.00  0.00    +0.000 N 
ATOM     11  H   UNL     1     -10.580  -5.193  21.518  0.00  0.00    +0.000 HD
BRANCH  10  12
ATOM     12  C   UNL     1      -9.334  -4.896  19.828  0.00  0.00    +0.000 A 
ATOM     13  C   UNL     1      -8.439  -5.837  19.325  0.00  0.00    +0.000 A 
ATOM     14  C   UNL     1      -8.195  -5.918  17.956  0.00  0.00    +0.000 A 
ATOM     15  C   UNL     1      -8.869  -5.073  17.080  0.00  0.00    +0.000 A 
ATOM     16  C   UNL     1      -9.792  -4.154  17.572  0.00  0.00    +0.000 A 
ATOM     17  C   UNL     1     -10.032  -4.076  18.942  0.00  0.00    +0.000 A 
ENDBRANCH  10  12
ENDBRANCH   7  10
ENDBRANCH   1   7
BRANCH   3  18
ATOM     18  C   UNL     1     -11.663  -6.788  25.472  0.00  0.00    +0.000 C 
ATOM     19  C   UNL     1     -12.133  -7.868  25.703  0.00  0.00    +0.000 C 
BRANCH  19  20
ATOM     20  C   UNL     1     -12.696  -9.166  25.980  0.00  0.00    +0.000 C 
ATOM     21  O   UNL     1     -12.397  -9.768  27.006  0.00  0.00    +0.000 OA
ATOM     22  N   UNL     1     -13.567  -9.652  25.046  0.00  0.00    +0.000 N 
ATOM     23  H   UNL     1     -13.869  -9.143  24.223  0.00  0.00    +0.000 HD
BRANCH  22  24
ATOM     24  O   UNL     1     -14.177 -10.899  25.307  0.00  0.00    +0.000 OA
ATOM     25  H   UNL     1     -14.280 -10.888  26.283  0.00  0.00    +0.000 HD
ENDBRANCH  22  24
ENDBRANCH  19  20
ENDBRANCH   3  18
TORSDOF 6
ENDMDL
MODEL 8
REMARK VINA RESULT:      -6.0     14.828     16.530
REMARK  Name = Belinostat.pdbqt.pdb
REMARK  6 active torsions:
REMARK  status: ('A' for Active; 'I' for Inactive)
REMARK    1  A    between atoms: C_1  and  S_7
REMARK    2  A    between atoms: C_3  and  C_18
REMARK    3  A    between atoms: S_7  and  N_10
REMARK    4  A    between atoms: N_10  and  C_12
REMARK    5  A    between atoms: C_19  and  C_20
REMARK    6  A    between atoms: N_22  and  O_24
REMARK                            x       y       z     vdW  Elec       q    Type
REMARK                         _______ _______ _______ _____ _____    ______ ____
ROOT
ATOM      1  C   UNL     1       6.154  -6.631  13.778  0.00  0.00    +0.000 A 
ATOM      2  C   UNL     1       5.715  -6.166  15.013  0.00  0.00    +0.000 A 
ATOM      3  C   UNL     1       5.290  -4.846  15.124  0.00  0.00    +0.000 A 
ATOM      4  C   UNL     1       6.149  -5.816  12.651  0.00  0.00    +0.000 A 
ATOM      5  C   UNL     1       5.293  -4.011  14.007  0.00  0.00    +0.000 A 
ATOM      6  C   UNL     1       5.721  -4.497  12.771  0.00  0.00    +0.000 A 
ENDROOT
BRANCH   1   7
ATOM      7  S   UNL     1       6.654  -8.306  13.617  0.00  0.00    +0.000 S 
ATOM      8  O   UNL     1       7.621  -8.563  14.662  0.00  0.00    +0.000 OA
ATOM      9  O   UNL     1       6.973  -8.551  12.227  0.00  0.00    +0.000 OA
BRANCH   7  10
ATOM     10  N   UNL     1       5.275  -9.165  14.025  0.00  0.00    +0.000 N 
ATOM     11  H   UNL     1       5.064  -9.176  15.022  0.00  0.00    +0.000 HD
BRANCH  10  12
ATOM     12  C   UNL     1       4.256  -9.498  13.089  0.00  0.00    +0.000 A 
ATOM     13  C   UNL     1       3.530  -8.536  12.389  0.00  0.00    +0.000 A 
ATOM     14  C   UNL     1       2.602  -8.918  11.423  0.00  0.00    +0.000 A 
ATOM     15  C   UNL     1       2.414 -10.266  11.134  0.00  0.00    +0.000 A 
ATOM     16  C   UNL     1       3.163 -11.231  11.804  0.00  0.00    +0.000 A 
ATOM     17  C   UNL     1       4.089 -10.845  12.769  0.00  0.00    +0.000 A 
ENDBRANCH  10  12
ENDBRANCH   7  10
ENDBRANCH   1   7
BRANCH   3  18
ATOM     18  C   UNL     1       4.849  -4.347  16.386  0.00  0.00    +0.000 C 
ATOM     19  C   UNL     1       4.478  -3.930  17.450  0.00  0.00    +0.000 C 
BRANCH  19  20
ATOM     20  C   UNL     1       4.033  -3.430  18.727  0.00  0.00    +0.000 C 
ATOM     21  O   UNL     1       2.848  -3.480  19.035  0.00  0.00    +0.000 OA
ATOM     22  N   UNL     1       5.005  -2.922  19.542  0.00  0.00    +0.000 N 
ATOM     23  H   UNL     1       5.996  -2.926  19.326  0.00  0.00    +0.000 HD
BRANCH  22  24
ATOM     24  O   UNL     1       4.614  -2.467  20.820  0.00  0.00    +0.000 OA
ATOM     25  H   UNL     1       3.682  -2.771  20.881  0.00  0.00    +0.000 HD
ENDBRANCH  22  24
ENDBRANCH  19  20
ENDBRANCH   3  18
TORSDOF 6
ENDMDL
MODEL 9
REMARK VINA RESULT:      -5.9     18.189     20.529
REMARK  Name = Belinostat.pdbqt.pdb
REMARK  6 active torsions:
REMARK  status: ('A' for Active; 'I' for Inactive)
REMARK    1  A    between atoms: C_1  and  S_7
REMARK    2  A    between atoms: C_3  and  C_18
REMARK    3  A    between atoms: S_7  and  N_10
REMARK    4  A    between atoms: N_10  and  C_12
REMARK    5  A    between atoms: C_19  and  C_20
REMARK    6  A    between atoms: N_22  and  O_24
REMARK                            x       y       z     vdW  Elec       q    Type
REMARK                         _______ _______ _______ _____ _____    ______ ____
ROOT
ATOM      1  C   UNL     1       4.766 -13.421  13.860  0.00  0.00    +0.000 A 
ATOM      2  C   UNL     1       4.399 -14.560  13.152  0.00  0.00    +0.000 A 
ATOM      3  C   UNL     1       3.371 -15.359  13.643  0.00  0.00    +0.000 A 
ATOM      4  C   UNL     1       4.109 -13.049  15.028  0.00  0.00    +0.000 A 
ATOM      5  C   UNL     1       2.713 -15.008  14.822  0.00  0.00    +0.000 A 
ATOM      6  C   UNL     1       3.081 -13.853  15.512  0.00  0.00    +0.000 A 
ENDROOT
BRANCH   1   7
ATOM      7  S   UNL     1       6.034 -12.384  13.227  0.00  0.00    +0.000 S 
ATOM      8  O   UNL     1       6.086 -12.602  11.798  0.00  0.00    +0.000 OA
ATOM      9  O   UNL     1       7.210 -12.554  14.053  0.00  0.00    +0.000 OA
BRANCH   7  10
ATOM     10  N   UNL     1       5.421 -10.842  13.450  0.00  0.00    +0.000 N 
ATOM     11  H   UNL     1       5.997 -10.239  14.037  0.00  0.00    +0.000 HD
BRANCH  10  12
ATOM     12  C   UNL     1       4.438 -10.261  12.601  0.00  0.00    +0.000 A 
ATOM     13  C   UNL     1       3.383 -10.992  12.058  0.00  0.00    +0.000 A 
ATOM     14  C   UNL     1       2.402 -10.358  11.300  0.00  0.00    +0.000 A 
ATOM     15  C   UNL     1       2.457  -8.981  11.105  0.00  0.00    +0.000 A 
ATOM     16  C   UNL     1       3.487  -8.239  11.675  0.00  0.00    +0.000 A 
ATOM     17  C   UNL     1       4.467  -8.877  12.432  0.00  0.00    +0.000 A 
ENDBRANCH  10  12
ENDBRANCH   7  10
ENDBRANCH   1   7
BRANCH   3  18
ATOM     18  C   UNL     1       2.990 -16.539  12.938  0.00  0.00    +0.000 C 
ATOM     19  C   UNL     1       2.669 -17.530  12.341  0.00  0.00    +0.000 C 
BRANCH  19  20
ATOM     20  C   UNL     1       2.283 -18.720  11.625  0.00  0.00    +0.000 C 
ATOM     21  O   UNL     1       3.092 -19.313  10.922  0.00  0.00    +0.000 OA
ATOM     22  N   UNL     1       0.989 -19.127  11.794  0.00  0.00    +0.000 N 
ATOM     23  H   UNL     1       0.324 -18.682  12.416  0.00  0.00    +0.000 HD
BRANCH  22  24
ATOM     24  O   UNL     1       0.587 -20.316  11.146  0.00  0.00    +0.000 OA
ATOM     25  H   UNL     1      -0.378 -20.344  11.325  0.00  0.00    +0.000 HD
ENDBRANCH  22  24
ENDBRANCH  19  20
ENDBRANCH   3  18
TORSDOF 6
ENDMDL
