MODEL 1
REMARK VINA RESULT:      -7.8      0.000      0.000
REMARK  Name = Benzo[a]pyrene.pdbqt.pdb
REMARK  0 active torsions:
REMARK  status: ('A' for Active; 'I' for Inactive)
REMARK                            x       y       z     vdW  Elec       q    Type
REMARK                         _______ _______ _______ _____ _____    ______ ____
ROOT
ATOM      1  C   UNL     1      -8.324  -1.347  21.177  0.00  0.00    +0.000 A 
ATOM      2  C   UNL     1      -9.041  -2.179  20.288  0.00  0.00    +0.000 A 
ATOM      3  C   UNL     1      -7.453  -1.910  22.137  0.00  0.00    +0.000 A 
ATOM      4  C   UNL     1      -8.489   0.052  21.093  0.00  0.00    +0.000 A 
ATOM      5  C   UNL     1      -6.746  -1.052  23.015  0.00  0.00    +0.000 A 
ATOM      6  C   UNL     1      -8.891  -3.578  20.355  0.00  0.00    +0.000 A 
ATOM      7  C   UNL     1      -9.910  -1.612  19.332  0.00  0.00    +0.000 A 
ATOM      8  C   UNL     1      -6.925   0.347  22.914  0.00  0.00    +0.000 A 
ATOM      9  C   UNL     1      -7.788   0.882  21.962  0.00  0.00    +0.000 A 
ATOM     10  C   UNL     1      -7.327  -3.309  22.175  0.00  0.00    +0.000 A 
ATOM     11  C   UNL     1      -9.351   0.597  20.142  0.00  0.00    +0.000 A 
ATOM     12  C   UNL     1      -8.033  -4.134  21.300  0.00  0.00    +0.000 A 
ATOM     13  C   UNL     1     -10.057  -0.227  19.268  0.00  0.00    +0.000 A 
ATOM     14  C   UNL     1      -9.603  -4.392  19.474  0.00  0.00    +0.000 A 
ATOM     15  C   UNL     1     -10.613  -2.443  18.460  0.00  0.00    +0.000 A 
ATOM     16  C   UNL     1      -5.862  -1.533  23.995  0.00  0.00    +0.000 A 
ATOM     17  C   UNL     1      -6.239   1.210  23.769  0.00  0.00    +0.000 A 
ATOM     18  C   UNL     1     -10.460  -3.827  18.531  0.00  0.00    +0.000 A 
ATOM     19  C   UNL     1      -5.180  -0.666  24.846  0.00  0.00    +0.000 A 
ATOM     20  C   UNL     1      -5.369   0.707  24.732  0.00  0.00    +0.000 A 
ENDROOT
TORSDOF 0
ENDMDL
MODEL 2
REMARK VINA RESULT:      -7.8      1.173      5.863
REMARK  Name = Benzo[a]pyrene.pdbqt.pdb
REMARK  0 active torsions:
REMARK  status: ('A' for Active; 'I' for Inactive)
REMARK                            x       y       z     vdW  Elec       q    Type
REMARK                         _______ _______ _______ _____ _____    ______ ____
ROOT
ATOM      1  C   UNL     1      -7.739  -0.547  21.603  0.00  0.00    +0.000 A 
ATOM      2  C   UNL     1      -7.438   0.806  21.879  0.00  0.00    +0.000 A 
ATOM      3  C   UNL     1      -8.788  -0.880  20.717  0.00  0.00    +0.000 A 
ATOM      4  C   UNL     1      -6.978  -1.560  22.224  0.00  0.00    +0.000 A 
ATOM      5  C   UNL     1      -9.068  -2.245  20.459  0.00  0.00    +0.000 A 
ATOM      6  C   UNL     1      -8.186   1.833  21.270  0.00  0.00    +0.000 A 
ATOM      7  C   UNL     1      -6.390   1.132  22.764  0.00  0.00    +0.000 A 
ATOM      8  C   UNL     1      -8.293  -3.244  21.091  0.00  0.00    +0.000 A 
ATOM      9  C   UNL     1      -7.264  -2.896  21.960  0.00  0.00    +0.000 A 
ATOM     10  C   UNL     1      -9.513   0.170  20.128  0.00  0.00    +0.000 A 
ATOM     11  C   UNL     1      -5.944  -1.222  23.096  0.00  0.00    +0.000 A 
ATOM     12  C   UNL     1      -9.220   1.507  20.397  0.00  0.00    +0.000 A 
ATOM     13  C   UNL     1      -5.651   0.114  23.366  0.00  0.00    +0.000 A 
ATOM     14  C   UNL     1      -7.882   3.165  21.548  0.00  0.00    +0.000 A 
ATOM     15  C   UNL     1      -6.102   2.471  23.029  0.00  0.00    +0.000 A 
ATOM     16  C   UNL     1     -10.093  -2.657  19.592  0.00  0.00    +0.000 A 
ATOM     17  C   UNL     1      -8.551  -4.594  20.851  0.00  0.00    +0.000 A 
ATOM     18  C   UNL     1      -6.845   3.483  22.424  0.00  0.00    +0.000 A 
ATOM     19  C   UNL     1     -10.346  -4.006  19.356  0.00  0.00    +0.000 A 
ATOM     20  C   UNL     1      -9.574  -4.975  19.986  0.00  0.00    +0.000 A 
ENDROOT
TORSDOF 0
ENDMDL
MODEL 3
REMARK VINA RESULT:      -7.7      0.646      2.944
REMARK  Name = Benzo[a]pyrene.pdbqt.pdb
REMARK  0 active torsions:
REMARK  status: ('A' for Active; 'I' for Inactive)
REMARK                            x       y       z     vdW  Elec       q    Type
REMARK                         _______ _______ _______ _____ _____    ______ ____
ROOT
ATOM      1  C   UNL     1      -8.231  -1.540  21.282  0.00  0.00    +0.000 A 
ATOM      2  C   UNL     1      -9.035  -2.150  20.293  0.00  0.00    +0.000 A 
ATOM      3  C   UNL     1      -8.215  -0.134  21.424  0.00  0.00    +0.000 A 
ATOM      4  C   UNL     1      -7.445  -2.353  22.125  0.00  0.00    +0.000 A 
ATOM      5  C   UNL     1      -7.400   0.450  22.424  0.00  0.00    +0.000 A 
ATOM      6  C   UNL     1      -9.827  -1.356  19.439  0.00  0.00    +0.000 A 
ATOM      7  C   UNL     1      -9.046  -3.554  20.155  0.00  0.00    +0.000 A 
ATOM      8  C   UNL     1      -6.620  -0.382  23.259  0.00  0.00    +0.000 A 
ATOM      9  C   UNL     1      -6.649  -1.766  23.103  0.00  0.00    +0.000 A 
ATOM     10  C   UNL     1      -9.018   0.626  20.556  0.00  0.00    +0.000 A 
ATOM     11  C   UNL     1      -7.467  -3.740  21.978  0.00  0.00    +0.000 A 
ATOM     12  C   UNL     1      -9.813   0.029  19.578  0.00  0.00    +0.000 A 
ATOM     13  C   UNL     1      -8.262  -4.337  21.000  0.00  0.00    +0.000 A 
ATOM     14  C   UNL     1     -10.618  -1.966  18.466  0.00  0.00    +0.000 A 
ATOM     15  C   UNL     1      -9.844  -4.145  19.175  0.00  0.00    +0.000 A 
ATOM     16  C   UNL     1      -7.330   1.838  22.629  0.00  0.00    +0.000 A 
ATOM     17  C   UNL     1      -5.811   0.171  24.250  0.00  0.00    +0.000 A 
ATOM     18  C   UNL     1     -10.626  -3.354  18.334  0.00  0.00    +0.000 A 
ATOM     19  C   UNL     1      -6.519   2.385  23.621  0.00  0.00    +0.000 A 
ATOM     20  C   UNL     1      -5.759   1.551  24.432  0.00  0.00    +0.000 A 
ENDROOT
TORSDOF 0
ENDMDL
MODEL 4
REMARK VINA RESULT:      -7.6      1.556      2.956
REMARK  Name = Benzo[a]pyrene.pdbqt.pdb
REMARK  0 active torsions:
REMARK  status: ('A' for Active; 'I' for Inactive)
REMARK                            x       y       z     vdW  Elec       q    Type
REMARK                         _______ _______ _______ _____ _____    ______ ____
ROOT
ATOM      1  C   UNL     1      -9.089  -1.159  20.227  0.00  0.00    +0.000 A 
ATOM      2  C   UNL     1      -9.118  -2.568  20.133  0.00  0.00    +0.000 A 
ATOM      3  C   UNL     1      -8.335  -0.525  21.240  0.00  0.00    +0.000 A 
ATOM      4  C   UNL     1      -9.822  -0.393  19.296  0.00  0.00    +0.000 A 
ATOM      5  C   UNL     1      -8.324   0.890  21.310  0.00  0.00    +0.000 A 
ATOM      6  C   UNL     1      -8.392  -3.352  21.053  0.00  0.00    +0.000 A 
ATOM      7  C   UNL     1      -9.872  -3.196  19.119  0.00  0.00    +0.000 A 
ATOM      8  C   UNL     1      -9.065   1.639  20.368  0.00  0.00    +0.000 A 
ATOM      9  C   UNL     1      -9.802   0.995  19.377  0.00  0.00    +0.000 A 
ATOM     10  C   UNL     1      -7.624  -1.337  22.140  0.00  0.00    +0.000 A 
ATOM     11  C   UNL     1     -10.563  -1.028  18.299  0.00  0.00    +0.000 A 
ATOM     12  C   UNL     1      -7.649  -2.728  22.051  0.00  0.00    +0.000 A 
ATOM     13  C   UNL     1     -10.589  -2.419  18.210  0.00  0.00    +0.000 A 
ATOM     14  C   UNL     1      -8.427  -4.742  20.953  0.00  0.00    +0.000 A 
ATOM     15  C   UNL     1      -9.893  -4.588  19.036  0.00  0.00    +0.000 A 
ATOM     16  C   UNL     1      -7.600   1.594  22.287  0.00  0.00    +0.000 A 
ATOM     17  C   UNL     1      -9.069   3.032  20.419  0.00  0.00    +0.000 A 
ATOM     18  C   UNL     1      -9.174  -5.357  19.949  0.00  0.00    +0.000 A 
ATOM     19  C   UNL     1      -7.608   2.987  22.333  0.00  0.00    +0.000 A 
ATOM     20  C   UNL     1      -8.343   3.706  21.397  0.00  0.00    +0.000 A 
ENDROOT
TORSDOF 0
ENDMDL
MODEL 5
REMARK VINA RESULT:      -7.5      1.059      5.328
REMARK  Name = Benzo[a]pyrene.pdbqt.pdb
REMARK  0 active torsions:
REMARK  status: ('A' for Active; 'I' for Inactive)
REMARK                            x       y       z     vdW  Elec       q    Type
REMARK                         _______ _______ _______ _____ _____    ______ ____
ROOT
ATOM      1  C   UNL     1      -7.905  -0.429  21.467  0.00  0.00    +0.000 A 
ATOM      2  C   UNL     1      -7.090   0.515  22.129  0.00  0.00    +0.000 A 
ATOM      3  C   UNL     1      -7.680  -1.813  21.639  0.00  0.00    +0.000 A 
ATOM      4  C   UNL     1      -8.946   0.028  20.631  0.00  0.00    +0.000 A 
ATOM      5  C   UNL     1      -8.513  -2.738  20.962  0.00  0.00    +0.000 A 
ATOM      6  C   UNL     1      -6.045   0.081  22.969  0.00  0.00    +0.000 A 
ATOM      7  C   UNL     1      -7.319   1.896  21.954  0.00  0.00    +0.000 A 
ATOM      8  C   UNL     1      -9.550  -2.260  20.130  0.00  0.00    +0.000 A 
ATOM      9  C   UNL     1      -9.755  -0.892  19.973  0.00  0.00    +0.000 A 
ATOM     10  C   UNL     1      -6.629  -2.212  22.484  0.00  0.00    +0.000 A 
ATOM     11  C   UNL     1      -9.160   1.396  20.467  0.00  0.00    +0.000 A 
ATOM     12  C   UNL     1      -5.823  -1.283  23.140  0.00  0.00    +0.000 A 
ATOM     13  C   UNL     1      -8.353   2.325  21.123  0.00  0.00    +0.000 A 
ATOM     14  C   UNL     1      -5.245   1.020  23.619  0.00  0.00    +0.000 A 
ATOM     15  C   UNL     1      -6.508   2.820  22.613  0.00  0.00    +0.000 A 
ATOM     16  C   UNL     1      -8.354  -4.129  21.082  0.00  0.00    +0.000 A 
ATOM     17  C   UNL     1     -10.382  -3.152  19.454  0.00  0.00    +0.000 A 
ATOM     18  C   UNL     1      -5.476   2.383  23.442  0.00  0.00    +0.000 A 
ATOM     19  C   UNL     1      -9.188  -5.016  20.404  0.00  0.00    +0.000 A 
ATOM     20  C   UNL     1     -10.202  -4.526  19.590  0.00  0.00    +0.000 A 
ENDROOT
TORSDOF 0
ENDMDL
MODEL 6
REMARK VINA RESULT:      -6.9      1.183      1.823
REMARK  Name = Benzo[a]pyrene.pdbqt.pdb
REMARK  0 active torsions:
REMARK  status: ('A' for Active; 'I' for Inactive)
REMARK                            x       y       z     vdW  Elec       q    Type
REMARK                         _______ _______ _______ _____ _____    ______ ____
ROOT
ATOM      1  C   UNL     1      -7.887  -0.343  21.472  0.00  0.00    +0.000 A 
ATOM      2  C   UNL     1      -8.449  -1.558  21.023  0.00  0.00    +0.000 A 
ATOM      3  C   UNL     1      -6.814  -0.348  22.391  0.00  0.00    +0.000 A 
ATOM      4  C   UNL     1      -8.412   0.876  20.991  0.00  0.00    +0.000 A 
ATOM      5  C   UNL     1      -6.269   0.887  22.824  0.00  0.00    +0.000 A 
ATOM      6  C   UNL     1      -7.941  -2.787  21.491  0.00  0.00    +0.000 A 
ATOM      7  C   UNL     1      -9.521  -1.548  20.106  0.00  0.00    +0.000 A 
ATOM      8  C   UNL     1      -6.809   2.096  22.330  0.00  0.00    +0.000 A 
ATOM      9  C   UNL     1      -7.867   2.080  21.425  0.00  0.00    +0.000 A 
ATOM     10  C   UNL     1      -6.332  -1.590  22.837  0.00  0.00    +0.000 A 
ATOM     11  C   UNL     1      -9.471   0.871  20.084  0.00  0.00    +0.000 A 
ATOM     12  C   UNL     1      -6.883  -2.793  22.396  0.00  0.00    +0.000 A 
ATOM     13  C   UNL     1     -10.023  -0.332  19.644  0.00  0.00    +0.000 A 
ATOM     14  C   UNL     1      -8.502  -3.982  21.043  0.00  0.00    +0.000 A 
ATOM     15  C   UNL     1     -10.068  -2.754  19.669  0.00  0.00    +0.000 A 
ATOM     16  C   UNL     1      -5.203   0.966  23.735  0.00  0.00    +0.000 A 
ATOM     17  C   UNL     1      -6.289   3.322  22.743  0.00  0.00    +0.000 A 
ATOM     18  C   UNL     1      -9.561  -3.966  20.136  0.00  0.00    +0.000 A 
ATOM     19  C   UNL     1      -4.687   2.194  24.144  0.00  0.00    +0.000 A 
ATOM     20  C   UNL     1      -5.231   3.373  23.647  0.00  0.00    +0.000 A 
ENDROOT
TORSDOF 0
ENDMDL
MODEL 7
REMARK VINA RESULT:      -6.7     17.553     20.721
REMARK  Name = Benzo[a]pyrene.pdbqt.pdb
REMARK  0 active torsions:
REMARK  status: ('A' for Active; 'I' for Inactive)
REMARK                            x       y       z     vdW  Elec       q    Type
REMARK                         _______ _______ _______ _____ _____    ______ ____
ROOT
ATOM      1  C   UNL     1     -12.647   6.889   4.130  0.00  0.00    +0.000 A 
ATOM      2  C   UNL     1     -13.522   7.556   5.016  0.00  0.00    +0.000 A 
ATOM      3  C   UNL     1     -12.318   7.465   2.882  0.00  0.00    +0.000 A 
ATOM      4  C   UNL     1     -12.107   5.642   4.507  0.00  0.00    +0.000 A 
ATOM      5  C   UNL     1     -11.438   6.774   2.013  0.00  0.00    +0.000 A 
ATOM      6  C   UNL     1     -14.074   8.803   4.658  0.00  0.00    +0.000 A 
ATOM      7  C   UNL     1     -13.847   6.977   6.260  0.00  0.00    +0.000 A 
ATOM      8  C   UNL     1     -10.907   5.525   2.410  0.00  0.00    +0.000 A 
ATOM      9  C   UNL     1     -11.244   4.975   3.644  0.00  0.00    +0.000 A 
ATOM     10  C   UNL     1     -12.886   8.709   2.558  0.00  0.00    +0.000 A 
ATOM     11  C   UNL     1     -12.437   5.082   5.741  0.00  0.00    +0.000 A 
ATOM     12  C   UNL     1     -13.750   9.371   3.429  0.00  0.00    +0.000 A 
ATOM     13  C   UNL     1     -13.301   5.744   6.612  0.00  0.00    +0.000 A 
ATOM     14  C   UNL     1     -14.936   9.454   5.539  0.00  0.00    +0.000 A 
ATOM     15  C   UNL     1     -14.712   7.644   7.127  0.00  0.00    +0.000 A 
ATOM     16  C   UNL     1     -11.063   7.279   0.756  0.00  0.00    +0.000 A 
ATOM     17  C   UNL     1     -10.039   4.828   1.570  0.00  0.00    +0.000 A 
ATOM     18  C   UNL     1     -15.254   8.878   6.768  0.00  0.00    +0.000 A 
ATOM     19  C   UNL     1     -10.195   6.577  -0.078  0.00  0.00    +0.000 A 
ATOM     20  C   UNL     1      -9.683   5.351   0.330  0.00  0.00    +0.000 A 
ENDROOT
TORSDOF 0
ENDMDL
MODEL 8
REMARK VINA RESULT:      -6.7     17.581     20.588
REMARK  Name = Benzo[a]pyrene.pdbqt.pdb
REMARK  0 active torsions:
REMARK  status: ('A' for Active; 'I' for Inactive)
REMARK                            x       y       z     vdW  Elec       q    Type
REMARK                         _______ _______ _______ _____ _____    ______ ____
ROOT
ATOM      1  C   UNL     1     -12.530   7.099   3.759  0.00  0.00    +0.000 A 
ATOM      2  C   UNL     1     -13.196   7.232   4.997  0.00  0.00    +0.000 A 
ATOM      3  C   UNL     1     -11.725   5.968   3.498  0.00  0.00    +0.000 A 
ATOM      4  C   UNL     1     -12.679   8.111   2.786  0.00  0.00    +0.000 A 
ATOM      5  C   UNL     1     -11.068   5.860   2.247  0.00  0.00    +0.000 A 
ATOM      6  C   UNL     1     -13.061   6.233   5.982  0.00  0.00    +0.000 A 
ATOM      7  C   UNL     1     -13.999   8.364   5.252  0.00  0.00    +0.000 A 
ATOM      8  C   UNL     1     -11.231   6.885   1.286  0.00  0.00    +0.000 A 
ATOM      9  C   UNL     1     -12.028   7.992   1.563  0.00  0.00    +0.000 A 
ATOM     10  C   UNL     1     -11.613   4.991   4.502  0.00  0.00    +0.000 A 
ATOM     11  C   UNL     1     -13.476   9.224   3.053  0.00  0.00    +0.000 A 
ATOM     12  C   UNL     1     -12.268   5.118   5.726  0.00  0.00    +0.000 A 
ATOM     13  C   UNL     1     -14.131   9.351   4.277  0.00  0.00    +0.000 A 
ATOM     14  C   UNL     1     -13.722   6.373   7.202  0.00  0.00    +0.000 A 
ATOM     15  C   UNL     1     -14.652   8.485   6.479  0.00  0.00    +0.000 A 
ATOM     16  C   UNL     1     -10.252   4.768   1.911  0.00  0.00    +0.000 A 
ATOM     17  C   UNL     1     -10.594   6.800   0.049  0.00  0.00    +0.000 A 
ATOM     18  C   UNL     1     -14.514   7.493   7.449  0.00  0.00    +0.000 A 
ATOM     19  C   UNL     1      -9.618   4.689   0.673  0.00  0.00    +0.000 A 
ATOM     20  C   UNL     1      -9.789   5.706  -0.259  0.00  0.00    +0.000 A 
ENDROOT
TORSDOF 0
ENDMDL
MODEL 9
REMARK VINA RESULT:      -6.6     19.206     21.405
REMARK  Name = Benzo[a]pyrene.pdbqt.pdb
REMARK  0 active torsions:
REMARK  status: ('A' for Active; 'I' for Inactive)
REMARK                            x       y       z     vdW  Elec       q    Type
REMARK                         _______ _______ _______ _____ _____    ______ ____
ROOT
ATOM      1  C   UNL     1      -2.246  -5.369   1.199  0.00  0.00    +0.000 A 
ATOM      2  C   UNL     1      -2.416  -6.460   0.318  0.00  0.00    +0.000 A 
ATOM      3  C   UNL     1      -3.369  -4.663   1.687  0.00  0.00    +0.000 A 
ATOM      4  C   UNL     1      -0.942  -4.992   1.583  0.00  0.00    +0.000 A 
ATOM      5  C   UNL     1      -3.170  -3.573   2.569  0.00  0.00    +0.000 A 
ATOM      6  C   UNL     1      -3.710  -6.853  -0.079  0.00  0.00    +0.000 A 
ATOM      7  C   UNL     1      -1.291  -7.160  -0.167  0.00  0.00    +0.000 A 
ATOM      8  C   UNL     1      -1.855  -3.212   2.942  0.00  0.00    +0.000 A 
ATOM      9  C   UNL     1      -0.762  -3.919   2.450  0.00  0.00    +0.000 A 
ATOM     10  C   UNL     1      -4.645  -5.082   1.271  0.00  0.00    +0.000 A 
ATOM     11  C   UNL     1       0.160  -5.694   1.096  0.00  0.00    +0.000 A 
ATOM     12  C   UNL     1      -4.817  -6.159   0.402  0.00  0.00    +0.000 A 
ATOM     13  C   UNL     1      -0.012  -6.771   0.227  0.00  0.00    +0.000 A 
ATOM     14  C   UNL     1      -3.868  -7.931  -0.948  0.00  0.00    +0.000 A 
ATOM     15  C   UNL     1      -1.470  -8.237  -1.036  0.00  0.00    +0.000 A 
ATOM     16  C   UNL     1      -4.233  -2.822   3.098  0.00  0.00    +0.000 A 
ATOM     17  C   UNL     1      -1.635  -2.142   3.809  0.00  0.00    +0.000 A 
ATOM     18  C   UNL     1      -2.753  -8.620  -1.425  0.00  0.00    +0.000 A 
ATOM     19  C   UNL     1      -4.007  -1.754   3.964  0.00  0.00    +0.000 A 
ATOM     20  C   UNL     1      -2.708  -1.414   4.319  0.00  0.00    +0.000 A 
ENDROOT
TORSDOF 0
ENDMDL
