MODEL 1
REMARK VINA RESULT:      -7.0      0.000      0.000
REMARK  Name = Bicalutamide.pdbqt.pdb
REMARK  8 active torsions:
REMARK  status: ('A' for Active; 'I' for Inactive)
REMARK    1  A    between atoms: C_2  and  N_13
REMARK    2  A    between atoms: C_5  and  C_9
REMARK    3  A    between atoms: C_6  and  C_8
REMARK    4  A    between atoms: C_14  and  C_17
REMARK    5  A    between atoms: C_17  and  O_19
REMARK    6  A    between atoms: C_17  and  C_21
REMARK    7  A    between atoms: C_21  and  S_22
REMARK    8  A    between atoms: S_22  and  C_25
REMARK                            x       y       z     vdW  Elec       q    Type
REMARK                         _______ _______ _______ _____ _____    ______ ____
ROOT
ATOM      1  N   UNL     1      -8.868  -5.163  24.848  0.00  0.00    +0.000 N 
ATOM      2  C   UNL     1      -9.302  -4.914  23.548  0.00  0.00    +0.000 C 
ATOM      3  O   UNL     1      -9.898  -5.730  22.838  0.00  0.00    +0.000 OA
ATOM      4  H   UNL     1      -8.479  -4.369  25.358  0.00  0.00    +0.000 HD
ENDROOT
BRANCH   1   5
ATOM      5  C   UNL     1      -8.994  -6.378  25.541  0.00  0.00    +0.000 A 
ATOM      6  C   UNL     1     -10.244  -6.997  25.545  0.00  0.00    +0.000 A 
ATOM      7  C   UNL     1      -7.939  -6.972  26.225  0.00  0.00    +0.000 A 
ATOM      8  C   UNL     1     -10.454  -8.205  26.220  0.00  0.00    +0.000 A 
ATOM      9  C   UNL     1      -9.380  -8.795  26.904  0.00  0.00    +0.000 A 
ATOM     10  C   UNL     1      -8.129  -8.174  26.903  0.00  0.00    +0.000 A 
BRANCH   8  11
ATOM     11  C   UNL     1     -11.818  -8.830  26.192  0.00  0.00    +0.000 C 
ATOM     12  F   UNL     1     -12.369  -8.974  27.429  0.00  0.00    +0.000 F 
ATOM     13  F   UNL     1     -12.708  -8.095  25.473  0.00  0.00    +0.000 F 
ATOM     14  F   UNL     1     -11.809 -10.073  25.643  0.00  0.00    +0.000 F 
ENDBRANCH   8  11
BRANCH   9  16
ATOM     15  N   UNL     1      -9.630 -11.032  28.186  0.00  0.00    +0.000 NA
ATOM     16  C   UNL     1      -9.513 -10.028  27.618  0.00  0.00    +0.000 C 
ENDBRANCH   9  16
ENDBRANCH   1   5
BRANCH   2  17
ATOM     17  C   UNL     1      -8.942  -3.482  22.979  0.00  0.00    +0.000 C 
ATOM     18  C   UNL     1      -7.404  -3.302  22.833  0.00  0.00    +0.000 C 
BRANCH  17  19
ATOM     19  O   UNL     1      -9.399  -2.472  23.864  0.00  0.00    +0.000 OA
ATOM     20  H   UNL     1     -10.099  -2.007  23.367  0.00  0.00    +0.000 HD
ENDBRANCH  17  19
BRANCH  17  21
ATOM     21  C   UNL     1      -9.599  -3.326  21.718  0.00  0.00    +0.000 C 
BRANCH  21  22
ATOM     22  S   UNL     1     -10.222  -3.005  20.142  0.00  0.00    +0.000 S 
ATOM     23  O   UNL     1      -9.677  -1.681  19.979  0.00  0.00    +0.000 OA
ATOM     24  O   UNL     1     -11.599  -3.317  20.441  0.00  0.00    +0.000 OA
BRANCH  22  25
ATOM     25  C   UNL     1      -9.536  -4.129  19.018  0.00  0.00    +0.000 A 
ATOM     26  C   UNL     1      -9.929  -4.047  17.686  0.00  0.00    +0.000 A 
ATOM     27  C   UNL     1      -9.409  -4.954  16.767  0.00  0.00    +0.000 A 
ATOM     28  C   UNL     1      -8.511  -5.926  17.199  0.00  0.00    +0.000 A 
ATOM     29  F   UNL     1      -8.011  -6.799  16.314  0.00  0.00    +0.000 F 
ATOM     30  C   UNL     1      -8.126  -6.009  18.535  0.00  0.00    +0.000 A 
ATOM     31  C   UNL     1      -8.645  -5.104  19.454  0.00  0.00    +0.000 A 
ENDBRANCH  22  25
ENDBRANCH  21  22
ENDBRANCH  17  21
ENDBRANCH   2  17
TORSDOF 8
ENDMDL
MODEL 2
REMARK VINA RESULT:      -7.0      6.188      8.664
REMARK  Name = Bicalutamide.pdbqt.pdb
REMARK  8 active torsions:
REMARK  status: ('A' for Active; 'I' for Inactive)
REMARK    1  A    between atoms: C_2  and  N_13
REMARK    2  A    between atoms: C_5  and  C_9
REMARK    3  A    between atoms: C_6  and  C_8
REMARK    4  A    between atoms: C_14  and  C_17
REMARK    5  A    between atoms: C_17  and  O_19
REMARK    6  A    between atoms: C_17  and  C_21
REMARK    7  A    between atoms: C_21  and  S_22
REMARK    8  A    between atoms: S_22  and  C_25
REMARK                            x       y       z     vdW  Elec       q    Type
REMARK                         _______ _______ _______ _____ _____    ______ ____
ROOT
ATOM      1  N   UNL     1      -9.186   0.939  20.949  0.00  0.00    +0.000 N 
ATOM      2  C   UNL     1     -10.127   1.586  21.747  0.00  0.00    +0.000 C 
ATOM      3  O   UNL     1     -10.991   1.013  22.419  0.00  0.00    +0.000 OA
ATOM      4  H   UNL     1      -8.466   1.527  20.527  0.00  0.00    +0.000 HD
ENDROOT
BRANCH   1   5
ATOM      5  C   UNL     1      -9.091  -0.447  20.743  0.00  0.00    +0.000 A 
ATOM      6  C   UNL     1      -9.844  -1.003  19.709  0.00  0.00    +0.000 A 
ATOM      7  C   UNL     1      -8.297  -1.276  21.528  0.00  0.00    +0.000 A 
ATOM      8  C   UNL     1      -9.812  -2.377  19.445  0.00  0.00    +0.000 A 
ATOM      9  C   UNL     1      -9.005  -3.202  20.243  0.00  0.00    +0.000 A 
ATOM     10  C   UNL     1      -8.253  -2.646  21.280  0.00  0.00    +0.000 A 
BRANCH   8  11
ATOM     11  C   UNL     1     -10.641  -2.924  18.320  0.00  0.00    +0.000 C 
ATOM     12  F   UNL     1     -11.608  -3.788  18.735  0.00  0.00    +0.000 F 
ATOM     13  F   UNL     1     -11.288  -1.946  17.633  0.00  0.00    +0.000 F 
ATOM     14  F   UNL     1      -9.897  -3.608  17.412  0.00  0.00    +0.000 F 
ENDBRANCH   8  11
BRANCH   9  16
ATOM     15  N   UNL     1      -8.834  -5.759  19.864  0.00  0.00    +0.000 NA
ATOM     16  C   UNL     1      -8.917  -4.616  20.037  0.00  0.00    +0.000 C 
ENDBRANCH   9  16
ENDBRANCH   1   5
BRANCH   2  17
ATOM     17  C   UNL     1     -10.063   3.167  21.719  0.00  0.00    +0.000 C 
ATOM     18  C   UNL     1      -9.156   3.716  22.856  0.00  0.00    +0.000 C 
BRANCH  17  19
ATOM     19  O   UNL     1     -11.357   3.715  21.914  0.00  0.00    +0.000 OA
ATOM     20  H   UNL     1     -11.955   2.943  21.909  0.00  0.00    +0.000 HD
ENDBRANCH  17  19
BRANCH  17  21
ATOM     21  C   UNL     1      -9.578   3.569  20.435  0.00  0.00    +0.000 C 
BRANCH  21  22
ATOM     22  S   UNL     1      -9.105   4.243  18.919  0.00  0.00    +0.000 S 
ATOM     23  O   UNL     1      -9.478   5.610  19.185  0.00  0.00    +0.000 OA
ATOM     24  O   UNL     1      -9.838   3.319  18.089  0.00  0.00    +0.000 OA
BRANCH  22  25
ATOM     25  C   UNL     1      -7.394   4.067  18.725  0.00  0.00    +0.000 A 
ATOM     26  C   UNL     1      -6.876   4.075  17.434  0.00  0.00    +0.000 A 
ATOM     27  C   UNL     1      -5.506   3.912  17.250  0.00  0.00    +0.000 A 
ATOM     28  C   UNL     1      -4.683   3.739  18.360  0.00  0.00    +0.000 A 
ATOM     29  F   UNL     1      -3.364   3.582  18.183  0.00  0.00    +0.000 F 
ATOM     30  C   UNL     1      -5.207   3.725  19.650  0.00  0.00    +0.000 A 
ATOM     31  C   UNL     1      -6.576   3.887  19.836  0.00  0.00    +0.000 A 
ENDBRANCH  22  25
ENDBRANCH  21  22
ENDBRANCH  17  21
ENDBRANCH   2  17
TORSDOF 8
ENDMDL
MODEL 3
REMARK VINA RESULT:      -6.7      5.873      9.458
REMARK  Name = Bicalutamide.pdbqt.pdb
REMARK  8 active torsions:
REMARK  status: ('A' for Active; 'I' for Inactive)
REMARK    1  A    between atoms: C_2  and  N_13
REMARK    2  A    between atoms: C_5  and  C_9
REMARK    3  A    between atoms: C_6  and  C_8
REMARK    4  A    between atoms: C_14  and  C_17
REMARK    5  A    between atoms: C_17  and  O_19
REMARK    6  A    between atoms: C_17  and  C_21
REMARK    7  A    between atoms: C_21  and  S_22
REMARK    8  A    between atoms: S_22  and  C_25
REMARK                            x       y       z     vdW  Elec       q    Type
REMARK                         _______ _______ _______ _____ _____    ______ ____
ROOT
ATOM      1  N   UNL     1      -9.141   0.631  22.112  0.00  0.00    +0.000 N 
ATOM      2  C   UNL     1      -8.769  -0.709  22.047  0.00  0.00    +0.000 C 
ATOM      3  O   UNL     1      -7.968  -1.176  21.231  0.00  0.00    +0.000 OA
ATOM      4  H   UNL     1      -9.734   0.901  22.899  0.00  0.00    +0.000 HD
ENDROOT
BRANCH   1   5
ATOM      5  C   UNL     1      -8.710   1.651  21.249  0.00  0.00    +0.000 A 
ATOM      6  C   UNL     1      -9.259   1.693  19.968  0.00  0.00    +0.000 A 
ATOM      7  C   UNL     1      -7.760   2.600  21.613  0.00  0.00    +0.000 A 
ATOM      8  C   UNL     1      -8.875   2.672  19.044  0.00  0.00    +0.000 A 
ATOM      9  C   UNL     1      -7.917   3.624  19.425  0.00  0.00    +0.000 A 
ATOM     10  C   UNL     1      -7.365   3.582  20.707  0.00  0.00    +0.000 A 
BRANCH   8  11
ATOM     11  C   UNL     1      -9.497   2.672  17.679  0.00  0.00    +0.000 C 
ATOM     12  F   UNL     1     -10.368   3.701  17.485  0.00  0.00    +0.000 F 
ATOM     13  F   UNL     1      -8.572   2.778  16.689  0.00  0.00    +0.000 F 
ATOM     14  F   UNL     1     -10.203   1.537  17.430  0.00  0.00    +0.000 F 
ENDBRANCH   8  11
BRANCH   9  16
ATOM     15  N   UNL     1      -7.108   5.502  17.834  0.00  0.00    +0.000 NA
ATOM     16  C   UNL     1      -7.472   4.657  18.540  0.00  0.00    +0.000 C 
ENDBRANCH   9  16
ENDBRANCH   1   5
BRANCH   2  17
ATOM     17  C   UNL     1      -9.486  -1.661  23.088  0.00  0.00    +0.000 C 
ATOM     18  C   UNL     1     -10.669  -0.938  23.793  0.00  0.00    +0.000 C 
BRANCH  17  19
ATOM     19  O   UNL     1      -8.575  -2.057  24.100  0.00  0.00    +0.000 OA
ATOM     20  H   UNL     1      -8.838  -2.970  24.325  0.00  0.00    +0.000 HD
ENDBRANCH  17  19
BRANCH  17  21
ATOM     21  C   UNL     1      -9.938  -2.824  22.389  0.00  0.00    +0.000 C 
BRANCH  21  22
ATOM     22  S   UNL     1     -10.620  -4.259  21.718  0.00  0.00    +0.000 S 
ATOM     23  O   UNL     1     -11.984  -3.804  21.621  0.00  0.00    +0.000 OA
ATOM     24  O   UNL     1     -10.107  -5.168  22.714  0.00  0.00    +0.000 OA
BRANCH  22  25
ATOM     25  C   UNL     1      -9.924  -4.548  20.160  0.00  0.00    +0.000 A 
ATOM     26  C   UNL     1     -10.406  -3.816  19.080  0.00  0.00    +0.000 A 
ATOM     27  C   UNL     1      -9.878  -4.046  17.813  0.00  0.00    +0.000 A 
ATOM     28  C   UNL     1      -8.883  -5.007  17.651  0.00  0.00    +0.000 A 
ATOM     29  F   UNL     1      -8.375  -5.228  16.431  0.00  0.00    +0.000 F 
ATOM     30  C   UNL     1      -8.408  -5.742  18.734  0.00  0.00    +0.000 A 
ATOM     31  C   UNL     1      -8.935  -5.514  20.001  0.00  0.00    +0.000 A 
ENDBRANCH  22  25
ENDBRANCH  21  22
ENDBRANCH  17  21
ENDBRANCH   2  17
TORSDOF 8
ENDMDL
MODEL 4
REMARK VINA RESULT:      -6.7      1.741      2.329
REMARK  Name = Bicalutamide.pdbqt.pdb
REMARK  8 active torsions:
REMARK  status: ('A' for Active; 'I' for Inactive)
REMARK    1  A    between atoms: C_2  and  N_13
REMARK    2  A    between atoms: C_5  and  C_9
REMARK    3  A    between atoms: C_6  and  C_8
REMARK    4  A    between atoms: C_14  and  C_17
REMARK    5  A    between atoms: C_17  and  O_19
REMARK    6  A    between atoms: C_17  and  C_21
REMARK    7  A    between atoms: C_21  and  S_22
REMARK    8  A    between atoms: S_22  and  C_25
REMARK                            x       y       z     vdW  Elec       q    Type
REMARK                         _______ _______ _______ _____ _____    ______ ____
ROOT
ATOM      1  N   UNL     1     -11.367  -5.403  25.116  0.00  0.00    +0.000 N 
ATOM      2  C   UNL     1     -11.660  -5.053  23.800  0.00  0.00    +0.000 C 
ATOM      3  O   UNL     1     -11.656  -5.839  22.847  0.00  0.00    +0.000 OA
ATOM      4  H   UNL     1     -11.505  -4.678  25.821  0.00  0.00    +0.000 HD
ENDROOT
BRANCH   1   5
ATOM      5  C   UNL     1     -10.981  -6.677  25.565  0.00  0.00    +0.000 A 
ATOM      6  C   UNL     1     -11.988  -7.603  25.835  0.00  0.00    +0.000 A 
ATOM      7  C   UNL     1      -9.653  -7.041  25.760  0.00  0.00    +0.000 A 
ATOM      8  C   UNL     1     -11.688  -8.890  26.294  0.00  0.00    +0.000 A 
ATOM      9  C   UNL     1     -10.344  -9.245  26.485  0.00  0.00    +0.000 A 
ATOM     10  C   UNL     1      -9.335  -8.317  26.218  0.00  0.00    +0.000 A 
BRANCH   8  11
ATOM     11  C   UNL     1     -12.810  -9.848  26.568  0.00  0.00    +0.000 C 
ATOM     12  F   UNL     1     -12.667 -11.042  25.929  0.00  0.00    +0.000 F 
ATOM     13  F   UNL     1     -12.924 -10.147  27.889  0.00  0.00    +0.000 F 
ATOM     14  F   UNL     1     -14.016  -9.360  26.176  0.00  0.00    +0.000 F 
ENDBRANCH   8  11
BRANCH   9  16
ATOM     15  N   UNL     1      -9.637 -11.585  27.344  0.00  0.00    +0.000 NA
ATOM     16  C   UNL     1      -9.954 -10.541  26.952  0.00  0.00    +0.000 C 
ENDBRANCH   9  16
ENDBRANCH   1   5
BRANCH   2  17
ATOM     17  C   UNL     1     -11.971  -3.520  23.563  0.00  0.00    +0.000 C 
ATOM     18  C   UNL     1     -11.991  -2.733  24.904  0.00  0.00    +0.000 C 
BRANCH  17  19
ATOM     19  O   UNL     1     -13.248  -3.364  22.967  0.00  0.00    +0.000 OA
ATOM     20  H   UNL     1     -13.105  -3.561  22.021  0.00  0.00    +0.000 HD
ENDBRANCH  17  19
BRANCH  17  21
ATOM     21  C   UNL     1     -10.978  -2.998  22.676  0.00  0.00    +0.000 C 
BRANCH  21  22
ATOM     22  S   UNL     1      -9.634  -2.406  21.770  0.00  0.00    +0.000 S 
ATOM     23  O   UNL     1      -8.587  -2.863  22.648  0.00  0.00    +0.000 OA
ATOM     24  O   UNL     1     -10.098  -1.045  21.653  0.00  0.00    +0.000 OA
BRANCH  22  25
ATOM     25  C   UNL     1      -9.585  -3.205  20.235  0.00  0.00    +0.000 A 
ATOM     26  C   UNL     1     -10.340  -2.674  19.195  0.00  0.00    +0.000 A 
ATOM     27  C   UNL     1     -10.334  -3.311  17.957  0.00  0.00    +0.000 A 
ATOM     28  C   UNL     1      -9.579  -4.468  17.787  0.00  0.00    +0.000 A 
ATOM     29  F   UNL     1      -9.574  -5.082  16.596  0.00  0.00    +0.000 F 
ATOM     30  C   UNL     1      -8.830  -5.001  18.834  0.00  0.00    +0.000 A 
ATOM     31  C   UNL     1      -8.834  -4.365  20.071  0.00  0.00    +0.000 A 
ENDBRANCH  22  25
ENDBRANCH  21  22
ENDBRANCH  17  21
ENDBRANCH   2  17
TORSDOF 8
ENDMDL
MODEL 5
REMARK VINA RESULT:      -6.3     14.174     15.630
REMARK  Name = Bicalutamide.pdbqt.pdb
REMARK  8 active torsions:
REMARK  status: ('A' for Active; 'I' for Inactive)
REMARK    1  A    between atoms: C_2  and  N_13
REMARK    2  A    between atoms: C_5  and  C_9
REMARK    3  A    between atoms: C_6  and  C_8
REMARK    4  A    between atoms: C_14  and  C_17
REMARK    5  A    between atoms: C_17  and  O_19
REMARK    6  A    between atoms: C_17  and  C_21
REMARK    7  A    between atoms: C_21  and  S_22
REMARK    8  A    between atoms: S_22  and  C_25
REMARK                            x       y       z     vdW  Elec       q    Type
REMARK                         _______ _______ _______ _____ _____    ______ ____
ROOT
ATOM      1  N   UNL     1       2.986 -13.536  17.968  0.00  0.00    +0.000 N 
ATOM      2  C   UNL     1       3.283 -13.016  16.711  0.00  0.00    +0.000 C 
ATOM      3  O   UNL     1       2.592 -13.184  15.700  0.00  0.00    +0.000 OA
ATOM      4  H   UNL     1       3.586 -13.237  18.737  0.00  0.00    +0.000 HD
ENDROOT
BRANCH   1   5
ATOM      5  C   UNL     1       1.895 -14.362  18.283  0.00  0.00    +0.000 A 
ATOM      6  C   UNL     1       0.828 -13.792  18.977  0.00  0.00    +0.000 A 
ATOM      7  C   UNL     1       1.843 -15.710  17.945  0.00  0.00    +0.000 A 
ATOM      8  C   UNL     1      -0.293 -14.550  19.336  0.00  0.00    +0.000 A 
ATOM      9  C   UNL     1      -0.333 -15.908  18.987  0.00  0.00    +0.000 A 
ATOM     10  C   UNL     1       0.736 -16.480  18.294  0.00  0.00    +0.000 A 
BRANCH   8  11
ATOM     11  C   UNL     1      -1.414 -13.886  20.082  0.00  0.00    +0.000 C 
ATOM     12  F   UNL     1      -1.687 -14.478  21.278  0.00  0.00    +0.000 F 
ATOM     13  F   UNL     1      -1.147 -12.584  20.365  0.00  0.00    +0.000 F 
ATOM     14  F   UNL     1      -2.581 -13.900  19.386  0.00  0.00    +0.000 F 
ENDBRANCH   8  11
BRANCH   9  16
ATOM     15  N   UNL     1      -2.350 -17.419  19.587  0.00  0.00    +0.000 NA
ATOM     16  C   UNL     1      -1.442 -16.749  19.318  0.00  0.00    +0.000 C 
ENDBRANCH   9  16
ENDBRANCH   1   5
BRANCH   2  17
ATOM     17  C   UNL     1       4.633 -12.195  16.621  0.00  0.00    +0.000 C 
ATOM     18  C   UNL     1       5.779 -12.905  17.396  0.00  0.00    +0.000 C 
BRANCH  17  19
ATOM     19  O   UNL     1       4.467 -10.911  17.202  0.00  0.00    +0.000 OA
ATOM     20  H   UNL     1       3.561 -10.644  16.956  0.00  0.00    +0.000 HD
ENDBRANCH  17  19
BRANCH  17  21
ATOM     21  C   UNL     1       4.967 -12.039  15.239  0.00  0.00    +0.000 C 
BRANCH  21  22
ATOM     22  S   UNL     1       5.513 -12.021  13.603  0.00  0.00    +0.000 S 
ATOM     23  O   UNL     1       5.261 -13.406  13.294  0.00  0.00    +0.000 OA
ATOM     24  O   UNL     1       6.807 -11.440  13.865  0.00  0.00    +0.000 OA
BRANCH  22  25
ATOM     25  C   UNL     1       4.505 -10.960  12.677  0.00  0.00    +0.000 A 
ATOM     26  C   UNL     1       4.893  -9.629  12.555  0.00  0.00    +0.000 A 
ATOM     27  C   UNL     1       4.087  -8.751  11.835  0.00  0.00    +0.000 A 
ATOM     28  C   UNL     1       2.911  -9.220  11.258  0.00  0.00    +0.000 A 
ATOM     29  F   UNL     1       2.136  -8.374  10.565  0.00  0.00    +0.000 F 
ATOM     30  C   UNL     1       2.523 -10.551  11.388  0.00  0.00    +0.000 A 
ATOM     31  C   UNL     1       3.326 -11.430  12.107  0.00  0.00    +0.000 A 
ENDBRANCH  22  25
ENDBRANCH  21  22
ENDBRANCH  17  21
ENDBRANCH   2  17
TORSDOF 8
ENDMDL
MODEL 6
REMARK VINA RESULT:      -6.2      2.453      2.992
REMARK  Name = Bicalutamide.pdbqt.pdb
REMARK  8 active torsions:
REMARK  status: ('A' for Active; 'I' for Inactive)
REMARK    1  A    between atoms: C_2  and  N_13
REMARK    2  A    between atoms: C_5  and  C_9
REMARK    3  A    between atoms: C_6  and  C_8
REMARK    4  A    between atoms: C_14  and  C_17
REMARK    5  A    between atoms: C_17  and  O_19
REMARK    6  A    between atoms: C_17  and  C_21
REMARK    7  A    between atoms: C_21  and  S_22
REMARK    8  A    between atoms: S_22  and  C_25
REMARK                            x       y       z     vdW  Elec       q    Type
REMARK                         _______ _______ _______ _____ _____    ______ ____
ROOT
ATOM      1  N   UNL     1     -11.005  -5.722  25.587  0.00  0.00    +0.000 N 
ATOM      2  C   UNL     1     -10.440  -5.522  24.330  0.00  0.00    +0.000 C 
ATOM      3  O   UNL     1      -9.227  -5.542  24.094  0.00  0.00    +0.000 OA
ATOM      4  H   UNL     1     -12.024  -5.780  25.624  0.00  0.00    +0.000 HD
ENDROOT
BRANCH   1   5
ATOM      5  C   UNL     1     -10.302  -5.933  26.784  0.00  0.00    +0.000 A 
ATOM      6  C   UNL     1      -9.961  -7.244  27.115  0.00  0.00    +0.000 A 
ATOM      7  C   UNL     1      -9.950  -4.900  27.647  0.00  0.00    +0.000 A 
ATOM      8  C   UNL     1      -9.268  -7.539  28.295  0.00  0.00    +0.000 A 
ATOM      9  C   UNL     1      -8.917  -6.488  29.155  0.00  0.00    +0.000 A 
ATOM     10  C   UNL     1      -9.261  -5.175  28.826  0.00  0.00    +0.000 A 
BRANCH   8  11
ATOM     11  C   UNL     1      -8.925  -8.967  28.602  0.00  0.00    +0.000 C 
ATOM     12  F   UNL     1      -9.559  -9.447  29.708  0.00  0.00    +0.000 F 
ATOM     13  F   UNL     1      -9.259  -9.809  27.589  0.00  0.00    +0.000 F 
ATOM     14  F   UNL     1      -7.597  -9.145  28.831  0.00  0.00    +0.000 F 
ENDBRANCH   8  11
BRANCH   9  16
ATOM     15  N   UNL     1      -7.624  -6.891  31.364  0.00  0.00    +0.000 NA
ATOM     16  C   UNL     1      -8.208  -6.707  30.380  0.00  0.00    +0.000 C 
ENDBRANCH   9  16
ENDBRANCH   1   5
BRANCH   2  17
ATOM     17  C   UNL     1     -11.469  -5.209  23.169  0.00  0.00    +0.000 C 
ATOM     18  C   UNL     1     -12.707  -4.436  23.704  0.00  0.00    +0.000 C 
BRANCH  17  19
ATOM     19  O   UNL     1     -11.944  -6.416  22.596  0.00  0.00    +0.000 OA
ATOM     20  H   UNL     1     -11.138  -6.926  22.390  0.00  0.00    +0.000 HD
ENDBRANCH  17  19
BRANCH  17  21
ATOM     21  C   UNL     1     -10.787  -4.455  22.163  0.00  0.00    +0.000 C 
BRANCH  21  22
ATOM     22  S   UNL     1     -10.049  -3.364  21.049  0.00  0.00    +0.000 S 
ATOM     23  O   UNL     1      -8.978  -2.907  21.899  0.00  0.00    +0.000 OA
ATOM     24  O   UNL     1     -11.243  -2.620  20.729  0.00  0.00    +0.000 OA
BRANCH  22  25
ATOM     25  C   UNL     1      -9.458  -4.253  19.686  0.00  0.00    +0.000 A 
ATOM     26  C   UNL     1      -9.944  -3.921  18.426  0.00  0.00    +0.000 A 
ATOM     27  C   UNL     1      -9.501  -4.637  17.317  0.00  0.00    +0.000 A 
ATOM     28  C   UNL     1      -8.586  -5.672  17.492  0.00  0.00    +0.000 A 
ATOM     29  F   UNL     1      -8.161  -6.360  16.424  0.00  0.00    +0.000 F 
ATOM     30  C   UNL     1      -8.108  -6.005  18.756  0.00  0.00    +0.000 A 
ATOM     31  C   UNL     1      -8.549  -5.291  19.865  0.00  0.00    +0.000 A 
ENDBRANCH  22  25
ENDBRANCH  21  22
ENDBRANCH  17  21
ENDBRANCH   2  17
TORSDOF 8
ENDMDL
MODEL 7
REMARK VINA RESULT:      -6.1      4.409      5.950
REMARK  Name = Bicalutamide.pdbqt.pdb
REMARK  8 active torsions:
REMARK  status: ('A' for Active; 'I' for Inactive)
REMARK    1  A    between atoms: C_2  and  N_13
REMARK    2  A    between atoms: C_5  and  C_9
REMARK    3  A    between atoms: C_6  and  C_8
REMARK    4  A    between atoms: C_14  and  C_17
REMARK    5  A    between atoms: C_17  and  O_19
REMARK    6  A    between atoms: C_17  and  C_21
REMARK    7  A    between atoms: C_21  and  S_22
REMARK    8  A    between atoms: S_22  and  C_25
REMARK                            x       y       z     vdW  Elec       q    Type
REMARK                         _______ _______ _______ _____ _____    ______ ____
ROOT
ATOM      1  N   UNL     1     -11.007  -2.701  24.152  0.00  0.00    +0.000 N 
ATOM      2  C   UNL     1      -9.764  -3.223  24.504  0.00  0.00    +0.000 C 
ATOM      3  O   UNL     1      -9.115  -2.883  25.498  0.00  0.00    +0.000 OA
ATOM      4  H   UNL     1     -11.478  -3.143  23.362  0.00  0.00    +0.000 HD
ENDROOT
BRANCH   1   5
ATOM      5  C   UNL     1     -11.699  -1.688  24.834  0.00  0.00    +0.000 A 
ATOM      6  C   UNL     1     -12.899  -2.026  25.457  0.00  0.00    +0.000 A 
ATOM      7  C   UNL     1     -11.246  -0.374  24.900  0.00  0.00    +0.000 A 
ATOM      8  C   UNL     1     -13.654  -1.071  26.149  0.00  0.00    +0.000 A 
ATOM      9  C   UNL     1     -13.184   0.249  26.210  0.00  0.00    +0.000 A 
ATOM     10  C   UNL     1     -11.983   0.590  25.584  0.00  0.00    +0.000 A 
BRANCH   8  11
ATOM     11  C   UNL     1     -14.938  -1.490  26.802  0.00  0.00    +0.000 C 
ATOM     12  F   UNL     1     -14.974  -1.226  28.138  0.00  0.00    +0.000 F 
ATOM     13  F   UNL     1     -16.018  -0.858  26.271  0.00  0.00    +0.000 F 
ATOM     14  F   UNL     1     -15.172  -2.823  26.682  0.00  0.00    +0.000 F 
ENDBRANCH   8  11
BRANCH   9  16
ATOM     15  N   UNL     1     -14.485   2.111  27.457  0.00  0.00    +0.000 NA
ATOM     16  C   UNL     1     -13.896   1.283  26.897  0.00  0.00    +0.000 C 
ENDBRANCH   9  16
ENDBRANCH   1   5
BRANCH   2  17
ATOM     17  C   UNL     1      -9.172  -4.292  23.498  0.00  0.00    +0.000 C 
ATOM     18  C   UNL     1      -9.731  -5.713  23.790  0.00  0.00    +0.000 C 
BRANCH  17  19
ATOM     19  O   UNL     1      -7.761  -4.362  23.629  0.00  0.00    +0.000 OA
ATOM     20  H   UNL     1      -7.541  -5.292  23.433  0.00  0.00    +0.000 HD
ENDBRANCH  17  19
BRANCH  17  21
ATOM     21  C   UNL     1      -9.494  -3.876  22.168  0.00  0.00    +0.000 C 
BRANCH  21  22
ATOM     22  S   UNL     1      -9.978  -3.196  20.658  0.00  0.00    +0.000 S 
ATOM     23  O   UNL     1      -9.220  -1.973  20.740  0.00  0.00    +0.000 OA
ATOM     24  O   UNL     1     -11.400  -3.319  20.868  0.00  0.00    +0.000 OA
BRANCH  22  25
ATOM     25  C   UNL     1      -9.425  -4.214  19.371  0.00  0.00    +0.000 A 
ATOM     26  C   UNL     1      -9.885  -3.952  18.084  0.00  0.00    +0.000 A 
ATOM     27  C   UNL     1      -9.473  -4.770  17.036  0.00  0.00    +0.000 A 
ATOM     28  C   UNL     1      -8.615  -5.835  17.297  0.00  0.00    +0.000 A 
ATOM     29  F   UNL     1      -8.219  -6.622  16.287  0.00  0.00    +0.000 F 
ATOM     30  C   UNL     1      -8.163  -6.098  18.587  0.00  0.00    +0.000 A 
ATOM     31  C   UNL     1      -8.574  -5.282  19.636  0.00  0.00    +0.000 A 
ENDBRANCH  22  25
ENDBRANCH  21  22
ENDBRANCH  17  21
ENDBRANCH   2  17
TORSDOF 8
ENDMDL
MODEL 8
REMARK VINA RESULT:      -6.1     17.459     19.459
REMARK  Name = Bicalutamide.pdbqt.pdb
REMARK  8 active torsions:
REMARK  status: ('A' for Active; 'I' for Inactive)
REMARK    1  A    between atoms: C_2  and  N_13
REMARK    2  A    between atoms: C_5  and  C_9
REMARK    3  A    between atoms: C_6  and  C_8
REMARK    4  A    between atoms: C_14  and  C_17
REMARK    5  A    between atoms: C_17  and  O_19
REMARK    6  A    between atoms: C_17  and  C_21
REMARK    7  A    between atoms: C_21  and  S_22
REMARK    8  A    between atoms: S_22  and  C_25
REMARK                            x       y       z     vdW  Elec       q    Type
REMARK                         _______ _______ _______ _____ _____    ______ ____
ROOT
ATOM      1  N   UNL     1       2.781 -15.633  14.305  0.00  0.00    +0.000 N 
ATOM      2  C   UNL     1       3.665 -14.558  14.350  0.00  0.00    +0.000 C 
ATOM      3  O   UNL     1       4.499 -14.297  13.478  0.00  0.00    +0.000 OA
ATOM      4  H   UNL     1       2.076 -15.674  15.042  0.00  0.00    +0.000 HD
ENDROOT
BRANCH   1   5
ATOM      5  C   UNL     1       2.721 -16.610  13.299  0.00  0.00    +0.000 A 
ATOM      6  C   UNL     1       3.502 -17.754  13.456  0.00  0.00    +0.000 A 
ATOM      7  C   UNL     1       1.932 -16.477  12.160  0.00  0.00    +0.000 A 
ATOM      8  C   UNL     1       3.505 -18.770  12.493  0.00  0.00    +0.000 A 
ATOM      9  C   UNL     1       2.704 -18.624  11.351  0.00  0.00    +0.000 A 
ATOM     10  C   UNL     1       1.923 -17.477  11.191  0.00  0.00    +0.000 A 
BRANCH   8  11
ATOM     11  C   UNL     1       4.365 -19.981  12.712  0.00  0.00    +0.000 C 
ATOM     12  F   UNL     1       5.063 -19.939  13.881  0.00  0.00    +0.000 F 
ATOM     13  F   UNL     1       3.640 -21.129  12.754  0.00  0.00    +0.000 F 
ATOM     14  F   UNL     1       5.292 -20.144  11.732  0.00  0.00    +0.000 F 
ENDBRANCH   8  11
BRANCH   9  16
ATOM     15  N   UNL     1       2.618 -20.430   9.496  0.00  0.00    +0.000 NA
ATOM     16  C   UNL     1       2.652 -19.617  10.322  0.00  0.00    +0.000 C 
ENDBRANCH   9  16
ENDBRANCH   1   5
BRANCH   2  17
ATOM     17  C   UNL     1       3.577 -13.666  15.655  0.00  0.00    +0.000 C 
ATOM     18  C   UNL     1       4.192 -14.396  16.882  0.00  0.00    +0.000 C 
BRANCH  17  19
ATOM     19  O   UNL     1       2.222 -13.388  15.970  0.00  0.00    +0.000 OA
ATOM     20  H   UNL     1       2.149 -12.416  15.909  0.00  0.00    +0.000 HD
ENDBRANCH  17  19
BRANCH  17  21
ATOM     21  C   UNL     1       4.255 -12.433  15.396  0.00  0.00    +0.000 C 
BRANCH  21  22
ATOM     22  S   UNL     1       5.143 -11.042  14.895  0.00  0.00    +0.000 S 
ATOM     23  O   UNL     1       6.366 -11.709  14.527  0.00  0.00    +0.000 OA
ATOM     24  O   UNL     1       4.934 -10.269  16.095  0.00  0.00    +0.000 OA
BRANCH  22  25
ATOM     25  C   UNL     1       4.359 -10.330  13.524  0.00  0.00    +0.000 A 
ATOM     26  C   UNL     1       3.611 -11.157  12.694  0.00  0.00    +0.000 A 
ATOM     27  C   UNL     1       2.990 -10.612  11.573  0.00  0.00    +0.000 A 
ATOM     28  C   UNL     1       3.135  -9.254  11.304  0.00  0.00    +0.000 A 
ATOM     29  F   UNL     1       2.538  -8.729  10.225  0.00  0.00    +0.000 F 
ATOM     30  C   UNL     1       3.892  -8.431  12.134  0.00  0.00    +0.000 A 
ATOM     31  C   UNL     1       4.512  -8.973  13.254  0.00  0.00    +0.000 A 
ENDBRANCH  22  25
ENDBRANCH  21  22
ENDBRANCH  17  21
ENDBRANCH   2  17
TORSDOF 8
ENDMDL
MODEL 9
REMARK VINA RESULT:      -5.9      6.337      8.848
REMARK  Name = Bicalutamide.pdbqt.pdb
REMARK  8 active torsions:
REMARK  status: ('A' for Active; 'I' for Inactive)
REMARK    1  A    between atoms: C_2  and  N_13
REMARK    2  A    between atoms: C_5  and  C_9
REMARK    3  A    between atoms: C_6  and  C_8
REMARK    4  A    between atoms: C_14  and  C_17
REMARK    5  A    between atoms: C_17  and  O_19
REMARK    6  A    between atoms: C_17  and  C_21
REMARK    7  A    between atoms: C_21  and  S_22
REMARK    8  A    between atoms: S_22  and  C_25
REMARK                            x       y       z     vdW  Elec       q    Type
REMARK                         _______ _______ _______ _____ _____    ______ ____
ROOT
ATOM      1  N   UNL     1     -12.884  -2.872  23.956  0.00  0.00    +0.000 N 
ATOM      2  C   UNL     1     -12.739  -2.853  25.341  0.00  0.00    +0.000 C 
ATOM      3  O   UNL     1     -11.794  -3.357  25.956  0.00  0.00    +0.000 OA
ATOM      4  H   UNL     1     -13.659  -2.331  23.572  0.00  0.00    +0.000 HD
ENDROOT
BRANCH   1   5
ATOM      5  C   UNL     1     -12.016  -3.495  23.044  0.00  0.00    +0.000 A 
ATOM      6  C   UNL     1     -11.222  -2.678  22.241  0.00  0.00    +0.000 A 
ATOM      7  C   UNL     1     -11.929  -4.877  22.905  0.00  0.00    +0.000 A 
ATOM      8  C   UNL     1     -10.338  -3.222  21.301  0.00  0.00    +0.000 A 
ATOM      9  C   UNL     1     -10.259  -4.617  21.173  0.00  0.00    +0.000 A 
ATOM     10  C   UNL     1     -11.056  -5.435  21.975  0.00  0.00    +0.000 A 
BRANCH   8  11
ATOM     11  C   UNL     1      -9.506  -2.297  20.462  0.00  0.00    +0.000 C 
ATOM     12  F   UNL     1      -9.698  -2.465  19.124  0.00  0.00    +0.000 F 
ATOM     13  F   UNL     1      -9.774  -0.988  20.713  0.00  0.00    +0.000 F 
ATOM     14  F   UNL     1      -8.173  -2.465  20.669  0.00  0.00    +0.000 F 
ENDBRANCH   8  11
BRANCH   9  16
ATOM     15  N   UNL     1      -8.676  -5.755  19.466  0.00  0.00    +0.000 NA
ATOM     16  C   UNL     1      -9.381  -5.249  20.236  0.00  0.00    +0.000 C 
ENDBRANCH   9  16
ENDBRANCH   1   5
BRANCH   2  17
ATOM     17  C   UNL     1     -13.921  -2.160  26.133  0.00  0.00    +0.000 C 
ATOM     18  C   UNL     1     -13.551  -1.946  27.628  0.00  0.00    +0.000 C 
BRANCH  17  19
ATOM     19  O   UNL     1     -15.080  -2.976  26.101  0.00  0.00    +0.000 OA
ATOM     20  H   UNL     1     -14.806  -3.775  25.610  0.00  0.00    +0.000 HD
ENDBRANCH  17  19
BRANCH  17  21
ATOM     21  C   UNL     1     -14.213  -0.914  25.493  0.00  0.00    +0.000 C 
BRANCH  21  22
ATOM     22  S   UNL     1     -14.424   0.523  24.562  0.00  0.00    +0.000 S 
ATOM     23  O   UNL     1     -13.662   0.123  23.406  0.00  0.00    +0.000 OA
ATOM     24  O   UNL     1     -13.985   1.447  25.580  0.00  0.00    +0.000 OA
BRANCH  22  25
ATOM     25  C   UNL     1     -16.104   0.721  24.191  0.00  0.00    +0.000 A 
ATOM     26  C   UNL     1     -16.543   0.354  22.924  0.00  0.00    +0.000 A 
ATOM     27  C   UNL     1     -17.884   0.525  22.594  0.00  0.00    +0.000 A 
ATOM     28  C   UNL     1     -18.757   1.065  23.536  0.00  0.00    +0.000 A 
ATOM     29  F   UNL     1     -20.048   1.229  23.218  0.00  0.00    +0.000 F 
ATOM     30  C   UNL     1     -18.311   1.437  24.801  0.00  0.00    +0.000 A 
ATOM     31  C   UNL     1     -16.971   1.267  25.132  0.00  0.00    +0.000 A 
ENDBRANCH  22  25
ENDBRANCH  21  22
ENDBRANCH  17  21
ENDBRANCH   2  17
TORSDOF 8
ENDMDL
