MODEL 1
REMARK VINA RESULT:      -7.1      0.000      0.000
REMARK  Name = Bisphenol_A.pdbqt.pdb
REMARK  4 active torsions:
REMARK  status: ('A' for Active; 'I' for Inactive)
REMARK    1  A    between atoms: C_1  and  C_4
REMARK    2  A    between atoms: C_1  and  C_12
REMARK    3  A    between atoms: C_7  and  O_10
REMARK    4  A    between atoms: C_15  and  O_18
REMARK                            x       y       z     vdW  Elec       q    Type
REMARK                         _______ _______ _______ _____ _____    ______ ____
ROOT
ATOM      1  C   UNL     1      -9.136  -3.509  20.983  0.00  0.00    +0.000 C 
ATOM      2  C   UNL     1      -7.882  -3.974  21.805  0.00  0.00    +0.000 C 
ATOM      3  C   UNL     1      -9.065  -1.948  20.829  0.00  0.00    +0.000 C 
ENDROOT
BRANCH   1   4
ATOM      4  C   UNL     1      -9.065  -4.218  19.623  0.00  0.00    +0.000 A 
ATOM      5  C   UNL     1      -9.817  -3.734  18.538  0.00  0.00    +0.000 A 
ATOM      6  C   UNL     1      -9.790  -4.363  17.295  0.00  0.00    +0.000 A 
ATOM      7  C   UNL     1      -9.007  -5.499  17.126  0.00  0.00    +0.000 A 
ATOM      8  C   UNL     1      -8.257  -6.010  18.178  0.00  0.00    +0.000 A 
ATOM      9  C   UNL     1      -8.295  -5.372  19.417  0.00  0.00    +0.000 A 
BRANCH   7  10
ATOM     10  O   UNL     1      -8.954  -6.137  15.922  0.00  0.00    +0.000 OA
ATOM     11  H   UNL     1      -9.557  -6.900  15.949  0.00  0.00    +0.000 HD
ENDBRANCH   7  10
ENDBRANCH   1   4
BRANCH   1  12
ATOM     12  C   UNL     1     -10.448  -3.823  21.716  0.00  0.00    +0.000 A 
ATOM     13  C   UNL     1     -11.284  -2.775  22.142  0.00  0.00    +0.000 A 
ATOM     14  C   UNL     1     -12.472  -3.025  22.825  0.00  0.00    +0.000 A 
ATOM     15  C   UNL     1     -12.838  -4.338  23.095  0.00  0.00    +0.000 A 
ATOM     16  C   UNL     1     -12.033  -5.398  22.695  0.00  0.00    +0.000 A 
ATOM     17  C   UNL     1     -10.845  -5.135  22.015  0.00  0.00    +0.000 A 
BRANCH  15  18
ATOM     18  O   UNL     1     -13.997  -4.618  23.756  0.00  0.00    +0.000 OA
ATOM     19  H   UNL     1     -13.775  -5.039  24.605  0.00  0.00    +0.000 HD
ENDBRANCH  15  18
ENDBRANCH   1  12
TORSDOF 4
ENDMDL
MODEL 2
REMARK VINA RESULT:      -7.0      0.026      5.507
REMARK  Name = Bisphenol_A.pdbqt.pdb
REMARK  4 active torsions:
REMARK  status: ('A' for Active; 'I' for Inactive)
REMARK    1  A    between atoms: C_1  and  C_4
REMARK    2  A    between atoms: C_1  and  C_12
REMARK    3  A    between atoms: C_7  and  O_10
REMARK    4  A    between atoms: C_15  and  O_18
REMARK                            x       y       z     vdW  Elec       q    Type
REMARK                         _______ _______ _______ _____ _____    ______ ____
ROOT
ATOM      1  C   UNL     1      -9.142  -3.515  20.961  0.00  0.00    +0.000 C 
ATOM      2  C   UNL     1      -9.072  -1.955  20.798  0.00  0.00    +0.000 C 
ATOM      3  C   UNL     1      -7.889  -3.975  21.787  0.00  0.00    +0.000 C 
ENDROOT
BRANCH   1   4
ATOM      4  C   UNL     1     -10.454  -3.827  21.695  0.00  0.00    +0.000 A 
ATOM      5  C   UNL     1     -11.289  -2.777  22.118  0.00  0.00    +0.000 A 
ATOM      6  C   UNL     1     -12.477  -3.024  22.803  0.00  0.00    +0.000 A 
ATOM      7  C   UNL     1     -12.842  -4.336  23.079  0.00  0.00    +0.000 A 
ATOM      8  C   UNL     1     -12.037  -5.397  22.684  0.00  0.00    +0.000 A 
ATOM      9  C   UNL     1     -10.850  -5.137  22.002  0.00  0.00    +0.000 A 
BRANCH   7  10
ATOM     10  O   UNL     1     -14.000  -4.613  23.744  0.00  0.00    +0.000 OA
ATOM     11  H   UNL     1     -14.445  -3.774  23.955  0.00  0.00    +0.000 HD
ENDBRANCH   7  10
ENDBRANCH   1   4
BRANCH   1  12
ATOM     12  C   UNL     1      -9.068  -4.234  19.606  0.00  0.00    +0.000 A 
ATOM     13  C   UNL     1      -9.815  -3.754  18.514  0.00  0.00    +0.000 A 
ATOM     14  C   UNL     1      -9.785  -4.392  17.277  0.00  0.00    +0.000 A 
ATOM     15  C   UNL     1      -9.004  -5.531  17.118  0.00  0.00    +0.000 A 
ATOM     16  C   UNL     1      -8.259  -6.036  18.176  0.00  0.00    +0.000 A 
ATOM     17  C   UNL     1      -8.299  -5.391  19.410  0.00  0.00    +0.000 A 
BRANCH  15  18
ATOM     18  O   UNL     1      -8.947  -6.177  15.918  0.00  0.00    +0.000 OA
ATOM     19  H   UNL     1      -9.690  -6.803  15.868  0.00  0.00    +0.000 HD
ENDBRANCH  15  18
ENDBRANCH   1  12
TORSDOF 4
ENDMDL
MODEL 3
REMARK VINA RESULT:      -6.7      2.633      5.690
REMARK  Name = Bisphenol_A.pdbqt.pdb
REMARK  4 active torsions:
REMARK  status: ('A' for Active; 'I' for Inactive)
REMARK    1  A    between atoms: C_1  and  C_4
REMARK    2  A    between atoms: C_1  and  C_12
REMARK    3  A    between atoms: C_7  and  O_10
REMARK    4  A    between atoms: C_15  and  O_18
REMARK                            x       y       z     vdW  Elec       q    Type
REMARK                         _______ _______ _______ _____ _____    ______ ____
ROOT
ATOM      1  C   UNL     1      -9.640  -3.824  20.991  0.00  0.00    +0.000 C 
ATOM      2  C   UNL     1      -9.436  -4.832  22.177  0.00  0.00    +0.000 C 
ATOM      3  C   UNL     1     -11.168  -3.471  20.908  0.00  0.00    +0.000 C 
ENDROOT
BRANCH   1   4
ATOM      4  C   UNL     1      -8.787  -2.586  21.308  0.00  0.00    +0.000 A 
ATOM      5  C   UNL     1      -7.614  -2.719  22.073  0.00  0.00    +0.000 A 
ATOM      6  C   UNL     1      -6.826  -1.615  22.394  0.00  0.00    +0.000 A 
ATOM      7  C   UNL     1      -7.212  -0.355  21.954  0.00  0.00    +0.000 A 
ATOM      8  C   UNL     1      -8.369  -0.185  21.203  0.00  0.00    +0.000 A 
ATOM      9  C   UNL     1      -9.149  -1.297  20.891  0.00  0.00    +0.000 A 
BRANCH   7  10
ATOM     10  O   UNL     1      -6.462   0.746  22.246  0.00  0.00    +0.000 OA
ATOM     11  H   UNL     1      -6.031   0.608  23.107  0.00  0.00    +0.000 HD
ENDBRANCH   7  10
ENDBRANCH   1   4
BRANCH   1  12
ATOM     12  C   UNL     1      -9.254  -4.445  19.641  0.00  0.00    +0.000 A 
ATOM     13  C   UNL     1      -9.843  -3.972  18.455  0.00  0.00    +0.000 A 
ATOM     14  C   UNL     1      -9.529  -4.524  17.216  0.00  0.00    +0.000 A 
ATOM     15  C   UNL     1      -8.616  -5.570  17.151  0.00  0.00    +0.000 A 
ATOM     16  C   UNL     1      -8.019  -6.067  18.303  0.00  0.00    +0.000 A 
ATOM     17  C   UNL     1      -8.344  -5.508  19.537  0.00  0.00    +0.000 A 
BRANCH  15  18
ATOM     18  O   UNL     1      -8.281  -6.130  15.953  0.00  0.00    +0.000 OA
ATOM     19  H   UNL     1      -7.901  -7.011  16.119  0.00  0.00    +0.000 HD
ENDBRANCH  15  18
ENDBRANCH   1  12
TORSDOF 4
ENDMDL
MODEL 4
REMARK VINA RESULT:      -6.7      2.606      3.888
REMARK  Name = Bisphenol_A.pdbqt.pdb
REMARK  4 active torsions:
REMARK  status: ('A' for Active; 'I' for Inactive)
REMARK    1  A    between atoms: C_1  and  C_4
REMARK    2  A    between atoms: C_1  and  C_12
REMARK    3  A    between atoms: C_7  and  O_10
REMARK    4  A    between atoms: C_15  and  O_18
REMARK                            x       y       z     vdW  Elec       q    Type
REMARK                         _______ _______ _______ _____ _____    ______ ____
ROOT
ATOM      1  C   UNL     1      -9.697  -3.842  21.017  0.00  0.00    +0.000 C 
ATOM      2  C   UNL     1     -11.197  -3.387  20.935  0.00  0.00    +0.000 C 
ATOM      3  C   UNL     1      -9.576  -4.919  22.153  0.00  0.00    +0.000 C 
ENDROOT
BRANCH   1   4
ATOM      4  C   UNL     1      -9.333  -4.423  19.642  0.00  0.00    +0.000 A 
ATOM      5  C   UNL     1      -9.939  -3.910  18.481  0.00  0.00    +0.000 A 
ATOM      6  C   UNL     1      -9.646  -4.425  17.220  0.00  0.00    +0.000 A 
ATOM      7  C   UNL     1      -8.740  -5.472  17.108  0.00  0.00    +0.000 A 
ATOM      8  C   UNL     1      -8.128  -6.009  18.234  0.00  0.00    +0.000 A 
ATOM      9  C   UNL     1      -8.432  -5.487  19.490  0.00  0.00    +0.000 A 
BRANCH   7  10
ATOM     10  O   UNL     1      -8.427  -5.997  15.889  0.00  0.00    +0.000 OA
ATOM     11  H   UNL     1      -9.093  -5.704  15.244  0.00  0.00    +0.000 HD
ENDBRANCH   7  10
ENDBRANCH   1   4
BRANCH   1  12
ATOM     12  C   UNL     1      -8.769  -2.682  21.403  0.00  0.00    +0.000 A 
ATOM     13  C   UNL     1      -9.096  -1.366  21.029  0.00  0.00    +0.000 A 
ATOM     14  C   UNL     1      -8.268  -0.293  21.348  0.00  0.00    +0.000 A 
ATOM     15  C   UNL     1      -7.090  -0.528  22.048  0.00  0.00    +0.000 A 
ATOM     16  C   UNL     1      -6.732  -1.816  22.428  0.00  0.00    +0.000 A 
ATOM     17  C   UNL     1      -7.568  -2.881  22.100  0.00  0.00    +0.000 A 
BRANCH  15  18
ATOM     18  O   UNL     1      -6.259   0.501  22.382  0.00  0.00    +0.000 OA
ATOM     19  H   UNL     1      -6.082   1.027  21.583  0.00  0.00    +0.000 HD
ENDBRANCH  15  18
ENDBRANCH   1  12
TORSDOF 4
ENDMDL
MODEL 5
REMARK VINA RESULT:      -6.2      1.903      2.294
REMARK  Name = Bisphenol_A.pdbqt.pdb
REMARK  4 active torsions:
REMARK  status: ('A' for Active; 'I' for Inactive)
REMARK    1  A    between atoms: C_1  and  C_4
REMARK    2  A    between atoms: C_1  and  C_12
REMARK    3  A    between atoms: C_7  and  O_10
REMARK    4  A    between atoms: C_15  and  O_18
REMARK                            x       y       z     vdW  Elec       q    Type
REMARK                         _______ _______ _______ _____ _____    ______ ____
ROOT
ATOM      1  C   UNL     1      -9.165  -3.080  21.541  0.00  0.00    +0.000 C 
ATOM      2  C   UNL     1      -7.771  -2.371  21.677  0.00  0.00    +0.000 C 
ATOM      3  C   UNL     1     -10.284  -1.988  21.692  0.00  0.00    +0.000 C 
ENDROOT
BRANCH   1   4
ATOM      4  C   UNL     1      -9.196  -3.738  20.153  0.00  0.00    +0.000 A 
ATOM      5  C   UNL     1      -9.991  -3.186  19.132  0.00  0.00    +0.000 A 
ATOM      6  C   UNL     1     -10.056  -3.768  17.868  0.00  0.00    +0.000 A 
ATOM      7  C   UNL     1      -9.324  -4.920  17.612  0.00  0.00    +0.000 A 
ATOM      8  C   UNL     1      -8.534  -5.497  18.599  0.00  0.00    +0.000 A 
ATOM      9  C   UNL     1      -8.480  -4.908  19.860  0.00  0.00    +0.000 A 
BRANCH   7  10
ATOM     10  O   UNL     1      -9.362  -5.513  16.384  0.00  0.00    +0.000 OA
ATOM     11  H   UNL     1      -9.155  -6.458  16.489  0.00  0.00    +0.000 HD
ENDBRANCH   7  10
ENDBRANCH   1   4
BRANCH   1  12
ATOM     12  C   UNL     1      -9.394  -4.108  22.658  0.00  0.00    +0.000 A 
ATOM     13  C   UNL     1     -10.631  -4.770  22.762  0.00  0.00    +0.000 A 
ATOM     14  C   UNL     1     -10.878  -5.694  23.774  0.00  0.00    +0.000 A 
ATOM     15  C   UNL     1      -9.882  -5.966  24.704  0.00  0.00    +0.000 A 
ATOM     16  C   UNL     1      -8.651  -5.326  24.636  0.00  0.00    +0.000 A 
ATOM     17  C   UNL     1      -8.417  -4.401  23.621  0.00  0.00    +0.000 A 
BRANCH  15  18
ATOM     18  O   UNL     1     -10.089  -6.870  25.703  0.00  0.00    +0.000 OA
ATOM     19  H   UNL     1      -9.928  -7.763  25.351  0.00  0.00    +0.000 HD
ENDBRANCH  15  18
ENDBRANCH   1  12
TORSDOF 4
ENDMDL
MODEL 6
REMARK VINA RESULT:      -5.1     14.727     16.511
REMARK  Name = Bisphenol_A.pdbqt.pdb
REMARK  4 active torsions:
REMARK  status: ('A' for Active; 'I' for Inactive)
REMARK    1  A    between atoms: C_1  and  C_4
REMARK    2  A    between atoms: C_1  and  C_12
REMARK    3  A    between atoms: C_7  and  O_10
REMARK    4  A    between atoms: C_15  and  O_18
REMARK                            x       y       z     vdW  Elec       q    Type
REMARK                         _______ _______ _______ _____ _____    ______ ____
ROOT
ATOM      1  C   UNL     1     -22.813  -1.149  10.071  0.00  0.00    +0.000 C 
ATOM      2  C   UNL     1     -23.592  -1.397  11.411  0.00  0.00    +0.000 C 
ATOM      3  C   UNL     1     -23.857  -0.749   8.968  0.00  0.00    +0.000 C 
ENDROOT
BRANCH   1   4
ATOM      4  C   UNL     1     -21.810  -0.018  10.342  0.00  0.00    +0.000 A 
ATOM      5  C   UNL     1     -21.245   0.127  11.622  0.00  0.00    +0.000 A 
ATOM      6  C   UNL     1     -20.346   1.152  11.908  0.00  0.00    +0.000 A 
ATOM      7  C   UNL     1     -20.004   2.054  10.907  0.00  0.00    +0.000 A 
ATOM      8  C   UNL     1     -20.548   1.945   9.634  0.00  0.00    +0.000 A 
ATOM      9  C   UNL     1     -21.449   0.917   9.361  0.00  0.00    +0.000 A 
BRANCH   7  10
ATOM     10  O   UNL     1     -19.124   3.067  11.151  0.00  0.00    +0.000 OA
ATOM     11  H   UNL     1     -19.504   3.652  11.829  0.00  0.00    +0.000 HD
ENDBRANCH   7  10
ENDBRANCH   1   4
BRANCH   1  12
ATOM     12  C   UNL     1     -22.110  -2.421   9.576  0.00  0.00    +0.000 A 
ATOM     13  C   UNL     1     -21.809  -3.455  10.481  0.00  0.00    +0.000 A 
ATOM     14  C   UNL     1     -21.156  -4.614  10.069  0.00  0.00    +0.000 A 
ATOM     15  C   UNL     1     -20.791  -4.751   8.736  0.00  0.00    +0.000 A 
ATOM     16  C   UNL     1     -21.067  -3.747   7.815  0.00  0.00    +0.000 A 
ATOM     17  C   UNL     1     -21.717  -2.591   8.240  0.00  0.00    +0.000 A 
BRANCH  15  18
ATOM     18  O   UNL     1     -20.156  -5.876   8.297  0.00  0.00    +0.000 OA
ATOM     19  H   UNL     1     -20.772  -6.626   8.367  0.00  0.00    +0.000 HD
ENDBRANCH  15  18
ENDBRANCH   1  12
TORSDOF 4
ENDMDL
MODEL 7
REMARK VINA RESULT:      -5.1     14.728     16.196
REMARK  Name = Bisphenol_A.pdbqt.pdb
REMARK  4 active torsions:
REMARK  status: ('A' for Active; 'I' for Inactive)
REMARK    1  A    between atoms: C_1  and  C_4
REMARK    2  A    between atoms: C_1  and  C_12
REMARK    3  A    between atoms: C_7  and  O_10
REMARK    4  A    between atoms: C_15  and  O_18
REMARK                            x       y       z     vdW  Elec       q    Type
REMARK                         _______ _______ _______ _____ _____    ______ ____
ROOT
ATOM      1  C   UNL     1     -22.802  -1.146  10.087  0.00  0.00    +0.000 C 
ATOM      2  C   UNL     1     -23.835  -0.762   8.969  0.00  0.00    +0.000 C 
ATOM      3  C   UNL     1     -23.593  -1.379  11.422  0.00  0.00    +0.000 C 
ENDROOT
BRANCH   1   4
ATOM      4  C   UNL     1     -22.091  -2.423   9.615  0.00  0.00    +0.000 A 
ATOM      5  C   UNL     1     -21.742  -2.574   8.261  0.00  0.00    +0.000 A 
ATOM      6  C   UNL     1     -21.113  -3.727   7.796  0.00  0.00    +0.000 A 
ATOM      7  C   UNL     1     -20.830  -4.753   8.689  0.00  0.00    +0.000 A 
ATOM      8  C   UNL     1     -21.168  -4.642  10.032  0.00  0.00    +0.000 A 
ATOM      9  C   UNL     1     -21.799  -3.485  10.484  0.00  0.00    +0.000 A 
BRANCH   7  10
ATOM     10  O   UNL     1     -20.212  -5.893   8.268  0.00  0.00    +0.000 OA
ATOM     11  H   UNL     1     -20.749  -6.296   7.565  0.00  0.00    +0.000 HD
ENDBRANCH   7  10
ENDBRANCH   1   4
BRANCH   1  12
ATOM     12  C   UNL     1     -21.803  -0.011  10.355  0.00  0.00    +0.000 A 
ATOM     13  C   UNL     1     -21.229   0.134  11.631  0.00  0.00    +0.000 A 
ATOM     14  C   UNL     1     -20.334   1.162  11.913  0.00  0.00    +0.000 A 
ATOM     15  C   UNL     1     -20.003   2.069  10.913  0.00  0.00    +0.000 A 
ATOM     16  C   UNL     1     -20.556   1.961   9.643  0.00  0.00    +0.000 A 
ATOM     17  C   UNL     1     -21.453   0.929   9.373  0.00  0.00    +0.000 A 
BRANCH  15  18
ATOM     18  O   UNL     1     -19.125   3.084  11.153  0.00  0.00    +0.000 OA
ATOM     19  H   UNL     1     -18.894   3.501  10.304  0.00  0.00    +0.000 HD
ENDBRANCH  15  18
ENDBRANCH   1  12
TORSDOF 4
ENDMDL
MODEL 8
REMARK VINA RESULT:      -5.1     15.613     17.813
REMARK  Name = Bisphenol_A.pdbqt.pdb
REMARK  4 active torsions:
REMARK  status: ('A' for Active; 'I' for Inactive)
REMARK    1  A    between atoms: C_1  and  C_4
REMARK    2  A    between atoms: C_1  and  C_12
REMARK    3  A    between atoms: C_7  and  O_10
REMARK    4  A    between atoms: C_15  and  O_18
REMARK                            x       y       z     vdW  Elec       q    Type
REMARK                         _______ _______ _______ _____ _____    ______ ____
ROOT
ATOM      1  C   UNL     1     -20.902  -4.977   7.351  0.00  0.00    +0.000 C 
ATOM      2  C   UNL     1     -19.374  -4.638   7.477  0.00  0.00    +0.000 C 
ATOM      3  C   UNL     1     -21.067  -6.073   6.239  0.00  0.00    +0.000 C 
ENDROOT
BRANCH   1   4
ATOM      4  C   UNL     1     -21.359  -5.488   8.726  0.00  0.00    +0.000 A 
ATOM      5  C   UNL     1     -22.407  -6.422   8.815  0.00  0.00    +0.000 A 
ATOM      6  C   UNL     1     -22.858  -6.893  10.046  0.00  0.00    +0.000 A 
ATOM      7  C   UNL     1     -22.265  -6.425  11.211  0.00  0.00    +0.000 A 
ATOM      8  C   UNL     1     -21.233  -5.496  11.162  0.00  0.00    +0.000 A 
ATOM      9  C   UNL     1     -20.792  -5.031   9.924  0.00  0.00    +0.000 A 
BRANCH   7  10
ATOM     10  O   UNL     1     -22.679  -6.867  12.433  0.00  0.00    +0.000 OA
ATOM     11  H   UNL     1     -23.124  -6.135  12.894  0.00  0.00    +0.000 HD
ENDBRANCH   7  10
ENDBRANCH   1   4
BRANCH   1  12
ATOM     12  C   UNL     1     -21.722  -3.760   6.900  0.00  0.00    +0.000 A 
ATOM     13  C   UNL     1     -22.546  -3.849   5.763  0.00  0.00    +0.000 A 
ATOM     14  C   UNL     1     -23.289  -2.759   5.317  0.00  0.00    +0.000 A 
ATOM     15  C   UNL     1     -23.211  -1.556   6.007  0.00  0.00    +0.000 A 
ATOM     16  C   UNL     1     -22.403  -1.429   7.130  0.00  0.00    +0.000 A 
ATOM     17  C   UNL     1     -21.661  -2.526   7.565  0.00  0.00    +0.000 A 
BRANCH  15  18
ATOM     18  O   UNL     1     -23.930  -0.470   5.600  0.00  0.00    +0.000 OA
ATOM     19  H   UNL     1     -23.313   0.195   5.248  0.00  0.00    +0.000 HD
ENDBRANCH  15  18
ENDBRANCH   1  12
TORSDOF 4
ENDMDL
MODEL 9
REMARK VINA RESULT:      -5.0     16.879     18.384
REMARK  Name = Bisphenol_A.pdbqt.pdb
REMARK  4 active torsions:
REMARK  status: ('A' for Active; 'I' for Inactive)
REMARK    1  A    between atoms: C_1  and  C_4
REMARK    2  A    between atoms: C_1  and  C_12
REMARK    3  A    between atoms: C_7  and  O_10
REMARK    4  A    between atoms: C_15  and  O_18
REMARK                            x       y       z     vdW  Elec       q    Type
REMARK                         _______ _______ _______ _____ _____    ______ ____
ROOT
ATOM      1  C   UNL     1       5.374 -12.399  13.057  0.00  0.00    +0.000 C 
ATOM      2  C   UNL     1       6.465 -11.798  14.011  0.00  0.00    +0.000 C 
ATOM      3  C   UNL     1       6.107 -13.185  11.912  0.00  0.00    +0.000 C 
ENDROOT
BRANCH   1   4
ATOM      4  C   UNL     1       4.497 -13.326  13.912  0.00  0.00    +0.000 A 
ATOM      5  C   UNL     1       4.370 -14.684  13.570  0.00  0.00    +0.000 A 
ATOM      6  C   UNL     1       3.569 -15.549  14.313  0.00  0.00    +0.000 A 
ATOM      7  C   UNL     1       2.875 -15.057  15.412  0.00  0.00    +0.000 A 
ATOM      8  C   UNL     1       2.971 -13.719  15.773  0.00  0.00    +0.000 A 
ATOM      9  C   UNL     1       3.773 -12.864  15.021  0.00  0.00    +0.000 A 
BRANCH   7  10
ATOM     10  O   UNL     1       2.086 -15.877  16.163  0.00  0.00    +0.000 OA
ATOM     11  H   UNL     1       2.605 -16.198  16.921  0.00  0.00    +0.000 HD
ENDBRANCH   7  10
ENDBRANCH   1   4
BRANCH   1  12
ATOM     12  C   UNL     1       4.541 -11.301  12.379  0.00  0.00    +0.000 A 
ATOM     13  C   UNL     1       5.051  -9.994  12.277  0.00  0.00    +0.000 A 
ATOM     14  C   UNL     1       4.316  -8.971  11.684  0.00  0.00    +0.000 A 
ATOM     15  C   UNL     1       3.048  -9.246  11.186  0.00  0.00    +0.000 A 
ATOM     16  C   UNL     1       2.510 -10.524  11.275  0.00  0.00    +0.000 A 
ATOM     17  C   UNL     1       3.254 -11.539  11.873  0.00  0.00    +0.000 A 
BRANCH  15  18
ATOM     18  O   UNL     1       2.303  -8.269  10.594  0.00  0.00    +0.000 OA
ATOM     19  H   UNL     1       2.211  -7.529  11.219  0.00  0.00    +0.000 HD
ENDBRANCH  15  18
ENDBRANCH   1  12
TORSDOF 4
ENDMDL
