MODEL 1
REMARK VINA RESULT:      -5.8      0.000      0.000
REMARK  Name = BX795.pdbqt.pdb
REMARK  7 active torsions:
REMARK  status: ('A' for Active; 'I' for Inactive)
REMARK    1  A    between atoms: C_4  and  N_25
REMARK    2  A    between atoms: N_8  and  C_10
REMARK    3  A    between atoms: C_12  and  N_16
REMARK    4  A    between atoms: N_25  and  C_27
REMARK    5  A    between atoms: C_27  and  C_28
REMARK    6  A    between atoms: C_29  and  N_30
REMARK    7  A    between atoms: C_31  and  C_34
REMARK                            x       y       z     vdW  Elec       q    Type
REMARK                         _______ _______ _______ _____ _____    ______ ____
ROOT
ATOM      1  I   UNL     1       5.112 -16.626  16.342  0.00  0.00    +0.000 I 
ATOM      2  N   UNL     1       4.512 -13.049  13.987  0.00  0.00    +0.000 NA
ATOM      3  N   UNL     1       3.523 -14.824  12.800  0.00  0.00    +0.000 NA
ATOM      4  C   UNL     1       4.921 -13.886  14.964  0.00  0.00    +0.000 A 
ATOM      5  C   UNL     1       3.832 -13.533  12.937  0.00  0.00    +0.000 A 
ATOM      6  C   UNL     1       4.597 -15.227  14.919  0.00  0.00    +0.000 A 
ATOM      7  C   UNL     1       3.902 -15.634  13.806  0.00  0.00    +0.000 A 
ATOM      8  N   UNL     1       3.451 -12.690  11.898  0.00  0.00    +0.000 N 
ATOM      9  H   UNL     1       3.016 -13.204  11.147  0.00  0.00    +0.000 HD
ENDROOT
BRANCH   8  10
ATOM     10  C   UNL     1       3.408 -11.293  11.839  0.00  0.00    +0.000 A 
ATOM     11  C   UNL     1       4.538 -10.498  12.056  0.00  0.00    +0.000 A 
ATOM     12  C   UNL     1       4.508  -9.113  11.899  0.00  0.00    +0.000 A 
ATOM     13  C   UNL     1       3.329  -8.502  11.487  0.00  0.00    +0.000 A 
ATOM     14  C   UNL     1       2.192  -9.271  11.253  0.00  0.00    +0.000 A 
ATOM     15  C   UNL     1       2.235 -10.655  11.426  0.00  0.00    +0.000 A 
BRANCH  12  16
ATOM     16  N   UNL     1       5.679  -8.399  12.214  0.00  0.00    +0.000 N 
ATOM     17  C   UNL     1       5.743  -7.212  12.921  0.00  0.00    +0.000 C 
ATOM     18  O   UNL     1       4.760  -6.550  13.251  0.00  0.00    +0.000 OA
ATOM     19  N   UNL     1       7.045  -6.804  13.211  0.00  0.00    +0.000 N 
ATOM     20  C   UNL     1       8.263  -7.347  12.931  0.00  0.00    +0.000 A 
ATOM     21  C   UNL     1       7.460  -5.691  13.878  0.00  0.00    +0.000 A 
ATOM     22  C   UNL     1       9.549  -6.640  13.372  0.00  0.00    +0.000 A 
ATOM     23  C   UNL     1       8.954  -5.411  14.075  0.00  0.00    +0.000 A 
ATOM     24  H   UNL     1       6.543  -8.753  11.822  0.00  0.00    +0.000 HD
ENDBRANCH  12  16
ENDBRANCH   8  10
BRANCH   4  25
ATOM     25  N   UNL     1       5.628 -13.347  16.070  0.00  0.00    +0.000 N 
ATOM     26  H   UNL     1       6.575 -13.721  16.087  0.00  0.00    +0.000 HD
BRANCH  25  27
ATOM     27  C   UNL     1       5.551 -11.898  16.232  0.00  0.00    +0.000 C 
BRANCH  27  28
ATOM     28  C   UNL     1       5.363 -10.384  16.379  0.00  0.00    +0.000 C 
ATOM     29  C   UNL     1       5.143  -8.887  16.612  0.00  0.00    +0.000 C 
BRANCH  29  30
ATOM     30  N   UNL     1       4.956  -7.573  16.873  0.00  0.00    +0.000 N 
ATOM     31  C   UNL     1       5.611  -6.767  17.794  0.00  0.00    +0.000 C 
ATOM     32  O   UNL     1       6.518  -7.212  18.496  0.00  0.00    +0.000 OA
ATOM     33  H   UNL     1       4.188  -7.164  16.354  0.00  0.00    +0.000 HD
BRANCH  31  34
ATOM     34  C   UNL     1       5.126  -5.399  17.863  0.00  0.00    +0.000 A 
ATOM     35  S   UNL     1       5.033  -4.447  16.432  0.00  0.00    +0.000 S 
ATOM     36  C   UNL     1       4.449  -3.110  17.295  0.00  0.00    +0.000 A 
ATOM     37  C   UNL     1       4.315  -3.350  18.634  0.00  0.00    +0.000 A 
ATOM     38  C   UNL     1       4.705  -4.669  18.956  0.00  0.00    +0.000 A 
ENDBRANCH  31  34
ENDBRANCH  29  30
ENDBRANCH  27  28
ENDBRANCH  25  27
ENDBRANCH   4  25
TORSDOF 7
ENDMDL
MODEL 2
REMARK VINA RESULT:      -5.5     16.957     19.892
REMARK  Name = BX795.pdbqt.pdb
REMARK  7 active torsions:
REMARK  status: ('A' for Active; 'I' for Inactive)
REMARK    1  A    between atoms: C_4  and  N_25
REMARK    2  A    between atoms: N_8  and  C_10
REMARK    3  A    between atoms: C_12  and  N_16
REMARK    4  A    between atoms: N_25  and  C_27
REMARK    5  A    between atoms: C_27  and  C_28
REMARK    6  A    between atoms: C_29  and  N_30
REMARK    7  A    between atoms: C_31  and  C_34
REMARK                            x       y       z     vdW  Elec       q    Type
REMARK                         _______ _______ _______ _____ _____    ______ ____
ROOT
ATOM      1  I   UNL     1      -7.493  -3.048  31.938  0.00  0.00    +0.000 I 
ATOM      2  N   UNL     1      -9.453  -4.470  28.355  0.00  0.00    +0.000 NA
ATOM      3  N   UNL     1      -8.308  -6.304  29.284  0.00  0.00    +0.000 NA
ATOM      4  C   UNL     1      -9.004  -3.653  29.331  0.00  0.00    +0.000 A 
ATOM      5  C   UNL     1      -9.096  -5.762  28.352  0.00  0.00    +0.000 A 
ATOM      6  C   UNL     1      -8.226  -4.149  30.358  0.00  0.00    +0.000 A 
ATOM      7  C   UNL     1      -7.908  -5.483  30.272  0.00  0.00    +0.000 A 
ATOM      8  N   UNL     1      -9.508  -6.602  27.322  0.00  0.00    +0.000 N 
ATOM      9  H   UNL     1      -9.103  -7.522  27.413  0.00  0.00    +0.000 HD
ENDROOT
BRANCH   8  10
ATOM     10  C   UNL     1     -10.500  -6.421  26.352  0.00  0.00    +0.000 A 
ATOM     11  C   UNL     1     -10.199  -6.177  25.009  0.00  0.00    +0.000 A 
ATOM     12  C   UNL     1     -11.190  -6.096  24.032  0.00  0.00    +0.000 A 
ATOM     13  C   UNL     1     -12.518  -6.291  24.396  0.00  0.00    +0.000 A 
ATOM     14  C   UNL     1     -12.845  -6.547  25.725  0.00  0.00    +0.000 A 
ATOM     15  C   UNL     1     -11.841  -6.613  26.692  0.00  0.00    +0.000 A 
BRANCH  12  16
ATOM     16  N   UNL     1     -10.788  -5.773  22.724  0.00  0.00    +0.000 N 
ATOM     17  C   UNL     1     -11.293  -4.746  21.946  0.00  0.00    +0.000 C 
ATOM     18  O   UNL     1     -12.269  -4.062  22.254  0.00  0.00    +0.000 OA
ATOM     19  N   UNL     1     -10.608  -4.566  20.745  0.00  0.00    +0.000 N 
ATOM     20  C   UNL     1      -9.540  -5.206  20.189  0.00  0.00    +0.000 A 
ATOM     21  C   UNL     1     -10.847  -3.660  19.756  0.00  0.00    +0.000 A 
ATOM     22  C   UNL     1      -9.013  -4.786  18.813  0.00  0.00    +0.000 A 
ATOM     23  C   UNL     1      -9.982  -3.639  18.491  0.00  0.00    +0.000 A 
ATOM     24  H   UNL     1     -10.118  -6.397  22.290  0.00  0.00    +0.000 HD
ENDBRANCH  12  16
ENDBRANCH   8  10
BRANCH   4  25
ATOM     25  N   UNL     1      -9.406  -2.292  29.318  0.00  0.00    +0.000 N 
ATOM     26  H   UNL     1      -8.802  -1.750  29.933  0.00  0.00    +0.000 HD
BRANCH  25  27
ATOM     27  C   UNL     1      -9.609  -1.699  27.999  0.00  0.00    +0.000 C 
BRANCH  27  28
ATOM     28  C   UNL     1      -9.739  -1.137  26.579  0.00  0.00    +0.000 C 
ATOM     29  C   UNL     1      -9.781  -0.540  25.170  0.00  0.00    +0.000 C 
BRANCH  29  30
ATOM     30  N   UNL     1      -9.764  -0.017  23.923  0.00  0.00    +0.000 N 
ATOM     31  C   UNL     1      -9.428  -0.633  22.726  0.00  0.00    +0.000 C 
ATOM     32  O   UNL     1      -9.116  -1.822  22.689  0.00  0.00    +0.000 OA
ATOM     33  H   UNL     1      -9.969   0.975  23.898  0.00  0.00    +0.000 HD
BRANCH  31  34
ATOM     34  C   UNL     1      -9.458   0.236  21.561  0.00  0.00    +0.000 A 
ATOM     35  S   UNL     1      -9.305   1.939  21.756  0.00  0.00    +0.000 S 
ATOM     36  C   UNL     1      -9.448   2.197  20.087  0.00  0.00    +0.000 A 
ATOM     37  C   UNL     1      -9.605   1.041  19.375  0.00  0.00    +0.000 A 
ATOM     38  C   UNL     1      -9.611  -0.086  20.228  0.00  0.00    +0.000 A 
ENDBRANCH  31  34
ENDBRANCH  29  30
ENDBRANCH  27  28
ENDBRANCH  25  27
ENDBRANCH   4  25
TORSDOF 7
ENDMDL
MODEL 3
REMARK VINA RESULT:      -5.3      3.168      3.551
REMARK  Name = BX795.pdbqt.pdb
REMARK  7 active torsions:
REMARK  status: ('A' for Active; 'I' for Inactive)
REMARK    1  A    between atoms: C_4  and  N_25
REMARK    2  A    between atoms: N_8  and  C_10
REMARK    3  A    between atoms: C_12  and  N_16
REMARK    4  A    between atoms: N_25  and  C_27
REMARK    5  A    between atoms: C_27  and  C_28
REMARK    6  A    between atoms: C_29  and  N_30
REMARK    7  A    between atoms: C_31  and  C_34
REMARK                            x       y       z     vdW  Elec       q    Type
REMARK                         _______ _______ _______ _____ _____    ______ ____
ROOT
ATOM      1  I   UNL     1       5.194 -17.253  15.555  0.00  0.00    +0.000 I 
ATOM      2  N   UNL     1       4.637 -13.389  13.695  0.00  0.00    +0.000 NA
ATOM      3  N   UNL     1       3.071 -14.850  12.720  0.00  0.00    +0.000 NA
ATOM      4  C   UNL     1       5.135 -14.381  14.463  0.00  0.00    +0.000 A 
ATOM      5  C   UNL     1       3.629 -13.645  12.848  0.00  0.00    +0.000 A 
ATOM      6  C   UNL     1       4.578 -15.644  14.424  0.00  0.00    +0.000 A 
ATOM      7  C   UNL     1       3.553 -15.815  13.527  0.00  0.00    +0.000 A 
ATOM      8  N   UNL     1       3.143 -12.644  12.013  0.00  0.00    +0.000 N 
ATOM      9  H   UNL     1       2.440 -13.000  11.382  0.00  0.00    +0.000 HD
ENDROOT
BRANCH   8  10
ATOM     10  C   UNL     1       3.335 -11.259  12.058  0.00  0.00    +0.000 A 
ATOM     11  C   UNL     1       4.420 -10.673  12.717  0.00  0.00    +0.000 A 
ATOM     12  C   UNL     1       4.657  -9.300  12.673  0.00  0.00    +0.000 A 
ATOM     13  C   UNL     1       3.806  -8.488  11.931  0.00  0.00    +0.000 A 
ATOM     14  C   UNL     1       2.724  -9.046  11.256  0.00  0.00    +0.000 A 
ATOM     15  C   UNL     1       2.495 -10.421  11.319  0.00  0.00    +0.000 A 
BRANCH  12  16
ATOM     16  N   UNL     1       5.733  -8.803  13.431  0.00  0.00    +0.000 N 
ATOM     17  C   UNL     1       7.041  -8.671  12.999  0.00  0.00    +0.000 C 
ATOM     18  O   UNL     1       7.462  -9.107  11.929  0.00  0.00    +0.000 OA
ATOM     19  N   UNL     1       7.867  -8.015  13.911  0.00  0.00    +0.000 N 
ATOM     20  C   UNL     1       7.635  -7.481  15.144  0.00  0.00    +0.000 A 
ATOM     21  C   UNL     1       9.195  -7.730  13.805  0.00  0.00    +0.000 A 
ATOM     22  C   UNL     1       8.774  -6.827  15.934  0.00  0.00    +0.000 A 
ATOM     23  C   UNL     1       9.932  -7.012  14.941  0.00  0.00    +0.000 A 
ATOM     24  H   UNL     1       5.541  -8.591  14.402  0.00  0.00    +0.000 HD
ENDBRANCH  12  16
ENDBRANCH   8  10
BRANCH   4  25
ATOM     25  N   UNL     1       6.193 -14.082  15.359  0.00  0.00    +0.000 N 
ATOM     26  H   UNL     1       6.935 -13.592  14.863  0.00  0.00    +0.000 HD
BRANCH  25  27
ATOM     27  C   UNL     1       5.804 -13.464  16.624  0.00  0.00    +0.000 C 
BRANCH  27  28
ATOM     28  C   UNL     1       5.491 -12.765  17.951  0.00  0.00    +0.000 C 
ATOM     29  C   UNL     1       5.200 -11.985  19.236  0.00  0.00    +0.000 C 
BRANCH  29  30
ATOM     30  N   UNL     1       4.929 -11.251  20.339  0.00  0.00    +0.000 N 
ATOM     31  C   UNL     1       3.771 -10.557  20.660  0.00  0.00    +0.000 C 
ATOM     32  O   UNL     1       2.794 -10.571  19.913  0.00  0.00    +0.000 OA
ATOM     33  H   UNL     1       5.717 -11.167  20.971  0.00  0.00    +0.000 HD
BRANCH  31  34
ATOM     34  C   UNL     1       3.828  -9.817  21.909  0.00  0.00    +0.000 A 
ATOM     35  S   UNL     1       5.302  -9.078  22.405  0.00  0.00    +0.000 S 
ATOM     36  C   UNL     1       4.593  -8.496  23.830  0.00  0.00    +0.000 A 
ATOM     37  C   UNL     1       3.274  -8.833  23.953  0.00  0.00    +0.000 A 
ATOM     38  C   UNL     1       2.838  -9.593  22.845  0.00  0.00    +0.000 A 
ENDBRANCH  31  34
ENDBRANCH  29  30
ENDBRANCH  27  28
ENDBRANCH  25  27
ENDBRANCH   4  25
TORSDOF 7
ENDMDL
MODEL 4
REMARK VINA RESULT:      -5.2      6.044      8.447
REMARK  Name = BX795.pdbqt.pdb
REMARK  7 active torsions:
REMARK  status: ('A' for Active; 'I' for Inactive)
REMARK    1  A    between atoms: C_4  and  N_25
REMARK    2  A    between atoms: N_8  and  C_10
REMARK    3  A    between atoms: C_12  and  N_16
REMARK    4  A    between atoms: N_25  and  C_27
REMARK    5  A    between atoms: C_27  and  C_28
REMARK    6  A    between atoms: C_29  and  N_30
REMARK    7  A    between atoms: C_31  and  C_34
REMARK                            x       y       z     vdW  Elec       q    Type
REMARK                         _______ _______ _______ _____ _____    ______ ____
ROOT
ATOM      1  I   UNL     1       4.258 -18.621  15.112  0.00  0.00    +0.000 I 
ATOM      2  N   UNL     1       4.636 -14.643  13.460  0.00  0.00    +0.000 NA
ATOM      3  N   UNL     1       2.530 -15.460  12.802  0.00  0.00    +0.000 NA
ATOM      4  C   UNL     1       4.923 -15.798  14.096  0.00  0.00    +0.000 A 
ATOM      5  C   UNL     1       3.460 -14.503  12.831  0.00  0.00    +0.000 A 
ATOM      6  C   UNL     1       3.992 -16.816  14.153  0.00  0.00    +0.000 A 
ATOM      7  C   UNL     1       2.817 -16.587  13.480  0.00  0.00    +0.000 A 
ATOM      8  N   UNL     1       3.174 -13.338  12.126  0.00  0.00    +0.000 N 
ATOM      9  H   UNL     1       2.289 -13.406  11.646  0.00  0.00    +0.000 HD
ENDROOT
BRANCH   8  10
ATOM     10  C   UNL     1       3.806 -12.090  12.152  0.00  0.00    +0.000 A 
ATOM     11  C   UNL     1       5.175 -11.948  12.397  0.00  0.00    +0.000 A 
ATOM     12  C   UNL     1       5.815 -10.711  12.323  0.00  0.00    +0.000 A 
ATOM     13  C   UNL     1       5.077  -9.587  11.968  0.00  0.00    +0.000 A 
ATOM     14  C   UNL     1       3.715  -9.702  11.708  0.00  0.00    +0.000 A 
ATOM     15  C   UNL     1       3.088 -10.945  11.797  0.00  0.00    +0.000 A 
BRANCH  12  16
ATOM     16  N   UNL     1       7.180 -10.665  12.660  0.00  0.00    +0.000 N 
ATOM     17  C   UNL     1       8.236 -10.589  11.770  0.00  0.00    +0.000 C 
ATOM     18  O   UNL     1       8.120 -10.691  10.549  0.00  0.00    +0.000 OA
ATOM     19  N   UNL     1       9.474 -10.410  12.387  0.00  0.00    +0.000 N 
ATOM     20  C   UNL     1       9.844 -10.300  13.694  0.00  0.00    +0.000 A 
ATOM     21  C   UNL     1      10.705 -10.305  11.811  0.00  0.00    +0.000 A 
ATOM     22  C   UNL     1      11.318 -10.128  14.072  0.00  0.00    +0.000 A 
ATOM     23  C   UNL     1      11.958 -10.132  12.676  0.00  0.00    +0.000 A 
ATOM     24  H   UNL     1       7.406 -10.771  13.641  0.00  0.00    +0.000 HD
ENDBRANCH  12  16
ENDBRANCH   8  10
BRANCH   4  25
ATOM     25  N   UNL     1       6.169 -15.916  14.764  0.00  0.00    +0.000 N 
ATOM     26  H   UNL     1       6.098 -16.613  15.502  0.00  0.00    +0.000 HD
BRANCH  25  27
ATOM     27  C   UNL     1       7.341 -16.065  13.905  0.00  0.00    +0.000 C 
BRANCH  27  28
ATOM     28  C   UNL     1       8.607 -16.298  13.073  0.00  0.00    +0.000 C 
ATOM     29  C   UNL     1       9.820 -16.511  12.164  0.00  0.00    +0.000 C 
BRANCH  29  30
ATOM     30  N   UNL     1      10.871 -16.662  11.326  0.00  0.00    +0.000 N 
ATOM     31  C   UNL     1      11.852 -15.743  10.985  0.00  0.00    +0.000 C 
ATOM     32  O   UNL     1      11.868 -14.617  11.482  0.00  0.00    +0.000 OA
ATOM     33  H   UNL     1      10.882 -17.558  10.852  0.00  0.00    +0.000 HD
BRANCH  31  34
ATOM     34  C   UNL     1      12.814 -16.211  10.002  0.00  0.00    +0.000 A 
ATOM     35  S   UNL     1      12.331 -17.340   8.796  0.00  0.00    +0.000 S 
ATOM     36  C   UNL     1      13.890 -17.380   8.132  0.00  0.00    +0.000 A 
ATOM     37  C   UNL     1      14.774 -16.567   8.784  0.00  0.00    +0.000 A 
ATOM     38  C   UNL     1      14.150 -15.896   9.860  0.00  0.00    +0.000 A 
ENDBRANCH  31  34
ENDBRANCH  29  30
ENDBRANCH  27  28
ENDBRANCH  25  27
ENDBRANCH   4  25
TORSDOF 7
ENDMDL
MODEL 5
REMARK VINA RESULT:      -5.1      8.866     13.513
REMARK  Name = BX795.pdbqt.pdb
REMARK  7 active torsions:
REMARK  status: ('A' for Active; 'I' for Inactive)
REMARK    1  A    between atoms: C_4  and  N_25
REMARK    2  A    between atoms: N_8  and  C_10
REMARK    3  A    between atoms: C_12  and  N_16
REMARK    4  A    between atoms: N_25  and  C_27
REMARK    5  A    between atoms: C_27  and  C_28
REMARK    6  A    between atoms: C_29  and  N_30
REMARK    7  A    between atoms: C_31  and  C_34
REMARK                            x       y       z     vdW  Elec       q    Type
REMARK                         _______ _______ _______ _____ _____    ______ ____
ROOT
ATOM      1  I   UNL     1      -4.770 -23.831   9.880  0.00  0.00    +0.000 I 
ATOM      2  N   UNL     1      -1.195 -21.565  10.766  0.00  0.00    +0.000 NA
ATOM      3  N   UNL     1      -1.864 -22.599  12.771  0.00  0.00    +0.000 NA
ATOM      4  C   UNL     1      -2.252 -22.083  10.106  0.00  0.00    +0.000 A 
ATOM      5  C   UNL     1      -1.029 -21.829  12.070  0.00  0.00    +0.000 A 
ATOM      6  C   UNL     1      -3.133 -22.929  10.750  0.00  0.00    +0.000 A 
ATOM      7  C   UNL     1      -2.887 -23.142  12.084  0.00  0.00    +0.000 A 
ATOM      8  N   UNL     1       0.026 -21.257  12.774  0.00  0.00    +0.000 N 
ATOM      9  H   UNL     1      -0.019 -21.485  13.756  0.00  0.00    +0.000 HD
ENDROOT
BRANCH   8  10
ATOM     10  C   UNL     1       1.180 -20.617  12.308  0.00  0.00    +0.000 A 
ATOM     11  C   UNL     1       1.675 -19.446  12.889  0.00  0.00    +0.000 A 
ATOM     12  C   UNL     1       2.878 -18.870  12.483  0.00  0.00    +0.000 A 
ATOM     13  C   UNL     1       3.625 -19.492  11.488  0.00  0.00    +0.000 A 
ATOM     14  C   UNL     1       3.161 -20.665  10.900  0.00  0.00    +0.000 A 
ATOM     15  C   UNL     1       1.950 -21.222  11.310  0.00  0.00    +0.000 A 
BRANCH  12  16
ATOM     16  N   UNL     1       3.249 -17.653  13.081  0.00  0.00    +0.000 N 
ATOM     17  C   UNL     1       2.524 -16.475  13.048  0.00  0.00    +0.000 C 
ATOM     18  O   UNL     1       1.515 -16.304  12.366  0.00  0.00    +0.000 OA
ATOM     19  N   UNL     1       3.060 -15.466  13.848  0.00  0.00    +0.000 N 
ATOM     20  C   UNL     1       4.159 -15.416  14.653  0.00  0.00    +0.000 A 
ATOM     21  C   UNL     1       2.605 -14.196  14.036  0.00  0.00    +0.000 A 
ATOM     22  C   UNL     1       4.512 -14.130  15.407  0.00  0.00    +0.000 A 
ATOM     23  C   UNL     1       3.359 -13.224  14.950  0.00  0.00    +0.000 A 
ATOM     24  H   UNL     1       4.165 -17.622  13.512  0.00  0.00    +0.000 HD
ENDBRANCH  12  16
ENDBRANCH   8  10
BRANCH   4  25
ATOM     25  N   UNL     1      -2.399 -21.798   8.724  0.00  0.00    +0.000 N 
ATOM     26  H   UNL     1      -3.210 -21.200   8.582  0.00  0.00    +0.000 HD
BRANCH  25  27
ATOM     27  C   UNL     1      -1.192 -21.351   8.033  0.00  0.00    +0.000 C 
BRANCH  27  28
ATOM     28  C   UNL     1       0.011 -20.813   7.251  0.00  0.00    +0.000 C 
ATOM     29  C   UNL     1       1.208 -20.197   6.522  0.00  0.00    +0.000 C 
BRANCH  29  30
ATOM     30  N   UNL     1       2.277 -19.624   5.924  0.00  0.00    +0.000 N 
ATOM     31  C   UNL     1       2.575 -19.538   4.571  0.00  0.00    +0.000 C 
ATOM     32  O   UNL     1       1.810 -19.992   3.722  0.00  0.00    +0.000 OA
ATOM     33  H   UNL     1       2.965 -19.272   6.579  0.00  0.00    +0.000 HD
BRANCH  31  34
ATOM     34  C   UNL     1       3.844 -18.900   4.264  0.00  0.00    +0.000 A 
ATOM     35  S   UNL     1       4.163 -18.348   2.665  0.00  0.00    +0.000 S 
ATOM     36  C   UNL     1       5.707 -17.805   3.104  0.00  0.00    +0.000 A 
ATOM     37  C   UNL     1       6.000 -18.019   4.422  0.00  0.00    +0.000 A 
ATOM     38  C   UNL     1       4.924 -18.650   5.086  0.00  0.00    +0.000 A 
ENDBRANCH  31  34
ENDBRANCH  29  30
ENDBRANCH  27  28
ENDBRANCH  25  27
ENDBRANCH   4  25
TORSDOF 7
ENDMDL
MODEL 6
REMARK VINA RESULT:      -5.1     19.115     22.228
REMARK  Name = BX795.pdbqt.pdb
REMARK  7 active torsions:
REMARK  status: ('A' for Active; 'I' for Inactive)
REMARK    1  A    between atoms: C_4  and  N_25
REMARK    2  A    between atoms: N_8  and  C_10
REMARK    3  A    between atoms: C_12  and  N_16
REMARK    4  A    between atoms: N_25  and  C_27
REMARK    5  A    between atoms: C_27  and  C_28
REMARK    6  A    between atoms: C_29  and  N_30
REMARK    7  A    between atoms: C_31  and  C_34
REMARK                            x       y       z     vdW  Elec       q    Type
REMARK                         _______ _______ _______ _____ _____    ______ ____
ROOT
ATOM      1  I   UNL     1      -8.838   2.201  -3.290  0.00  0.00    +0.000 I 
ATOM      2  N   UNL     1      -9.418   3.729   0.714  0.00  0.00    +0.000 NA
ATOM      3  N   UNL     1      -9.437   5.582  -0.736  0.00  0.00    +0.000 NA
ATOM      4  C   UNL     1      -9.194   2.884  -0.315  0.00  0.00    +0.000 A 
ATOM      5  C   UNL     1      -9.529   5.045   0.482  0.00  0.00    +0.000 A 
ATOM      6  C   UNL     1      -9.135   3.358  -1.610  0.00  0.00    +0.000 A 
ATOM      7  C   UNL     1      -9.257   4.718  -1.753  0.00  0.00    +0.000 A 
ATOM      8  N   UNL     1      -9.707   5.932   1.539  0.00  0.00    +0.000 N 
ATOM      9  H   UNL     1      -9.699   6.890   1.223  0.00  0.00    +0.000 HD
ENDROOT
BRANCH   8  10
ATOM     10  C   UNL     1     -10.072   5.690   2.869  0.00  0.00    +0.000 A 
ATOM     11  C   UNL     1      -9.191   5.887   3.936  0.00  0.00    +0.000 A 
ATOM     12  C   UNL     1      -9.592   5.739   5.263  0.00  0.00    +0.000 A 
ATOM     13  C   UNL     1     -10.915   5.412   5.538  0.00  0.00    +0.000 A 
ATOM     14  C   UNL     1     -11.817   5.220   4.495  0.00  0.00    +0.000 A 
ATOM     15  C   UNL     1     -11.396   5.362   3.172  0.00  0.00    +0.000 A 
BRANCH  12  16
ATOM     16  N   UNL     1      -8.610   5.887   6.259  0.00  0.00    +0.000 N 
ATOM     17  C   UNL     1      -8.430   6.996   7.067  0.00  0.00    +0.000 C 
ATOM     18  O   UNL     1      -9.028   8.061   6.921  0.00  0.00    +0.000 OA
ATOM     19  N   UNL     1      -7.473   6.811   8.064  0.00  0.00    +0.000 N 
ATOM     20  C   UNL     1      -6.681   5.752   8.394  0.00  0.00    +0.000 A 
ATOM     21  C   UNL     1      -7.052   7.693   9.013  0.00  0.00    +0.000 A 
ATOM     22  C   UNL     1      -5.687   5.858   9.556  0.00  0.00    +0.000 A 
ATOM     23  C   UNL     1      -5.962   7.298  10.016  0.00  0.00    +0.000 A 
ATOM     24  H   UNL     1      -7.930   5.141   6.337  0.00  0.00    +0.000 HD
ENDBRANCH  12  16
ENDBRANCH   8  10
BRANCH   4  25
ATOM     25  N   UNL     1      -9.091   1.495  -0.044  0.00  0.00    +0.000 N 
ATOM     26  H   UNL     1      -9.429   0.964  -0.844  0.00  0.00    +0.000 HD
BRANCH  25  27
ATOM     27  C   UNL     1      -7.806   1.041   0.480  0.00  0.00    +0.000 C 
BRANCH  27  28
ATOM     28  C   UNL     1      -6.484   0.611   1.125  0.00  0.00    +0.000 C 
ATOM     29  C   UNL     1      -5.149   0.125   1.696  0.00  0.00    +0.000 C 
BRANCH  29  30
ATOM     30  N   UNL     1      -3.952  -0.314   2.148  0.00  0.00    +0.000 N 
ATOM     31  C   UNL     1      -3.681  -1.354   3.026  0.00  0.00    +0.000 C 
ATOM     32  O   UNL     1      -4.587  -2.046   3.489  0.00  0.00    +0.000 OA
ATOM     33  H   UNL     1      -3.171   0.249   1.833  0.00  0.00    +0.000 HD
BRANCH  31  34
ATOM     34  C   UNL     1      -2.276  -1.529   3.352  0.00  0.00    +0.000 A 
ATOM     35  S   UNL     1      -1.583  -0.654   4.662  0.00  0.00    +0.000 S 
ATOM     36  C   UNL     1      -0.059  -1.343   4.386  0.00  0.00    +0.000 A 
ATOM     37  C   UNL     1      -0.046  -2.219   3.337  0.00  0.00    +0.000 A 
ATOM     38  C   UNL     1      -1.325  -2.323   2.744  0.00  0.00    +0.000 A 
ENDBRANCH  31  34
ENDBRANCH  29  30
ENDBRANCH  27  28
ENDBRANCH  25  27
ENDBRANCH   4  25
TORSDOF 7
ENDMDL
MODEL 7
REMARK VINA RESULT:      -4.9      8.394     12.447
REMARK  Name = BX795.pdbqt.pdb
REMARK  7 active torsions:
REMARK  status: ('A' for Active; 'I' for Inactive)
REMARK    1  A    between atoms: C_4  and  N_25
REMARK    2  A    between atoms: N_8  and  C_10
REMARK    3  A    between atoms: C_12  and  N_16
REMARK    4  A    between atoms: N_25  and  C_27
REMARK    5  A    between atoms: C_27  and  C_28
REMARK    6  A    between atoms: C_29  and  N_30
REMARK    7  A    between atoms: C_31  and  C_34
REMARK                            x       y       z     vdW  Elec       q    Type
REMARK                         _______ _______ _______ _____ _____    ______ ____
ROOT
ATOM      1  I   UNL     1       2.155 -19.203  12.838  0.00  0.00    +0.000 I 
ATOM      2  N   UNL     1       2.665 -16.104  15.812  0.00  0.00    +0.000 NA
ATOM      3  N   UNL     1       2.695 -15.047  13.710  0.00  0.00    +0.000 NA
ATOM      4  C   UNL     1       2.525 -17.318  15.237  0.00  0.00    +0.000 A 
ATOM      5  C   UNL     1       2.750 -15.009  15.043  0.00  0.00    +0.000 A 
ATOM      6  C   UNL     1       2.411 -17.434  13.866  0.00  0.00    +0.000 A 
ATOM      7  C   UNL     1       2.510 -16.262  13.159  0.00  0.00    +0.000 A 
ATOM      8  N   UNL     1       2.948 -13.759  15.620  0.00  0.00    +0.000 N 
ATOM      9  H   UNL     1       3.066 -13.043  14.918  0.00  0.00    +0.000 HD
ENDROOT
BRANCH   8  10
ATOM     10  C   UNL     1       2.816 -13.348  16.951  0.00  0.00    +0.000 A 
ATOM     11  C   UNL     1       1.933 -13.967  17.842  0.00  0.00    +0.000 A 
ATOM     12  C   UNL     1       1.879 -13.617  19.191  0.00  0.00    +0.000 A 
ATOM     13  C   UNL     1       2.746 -12.643  19.674  0.00  0.00    +0.000 A 
ATOM     14  C   UNL     1       3.642 -12.019  18.811  0.00  0.00    +0.000 A 
ATOM     15  C   UNL     1       3.676 -12.373  17.462  0.00  0.00    +0.000 A 
BRANCH  12  16
ATOM     16  N   UNL     1       0.905 -14.247  19.986  0.00  0.00    +0.000 N 
ATOM     17  C   UNL     1      -0.393 -13.809  20.184  0.00  0.00    +0.000 C 
ATOM     18  O   UNL     1      -0.823 -12.725  19.794  0.00  0.00    +0.000 OA
ATOM     19  N   UNL     1      -1.181 -14.708  20.903  0.00  0.00    +0.000 N 
ATOM     20  C   UNL     1      -0.920 -15.929  21.449  0.00  0.00    +0.000 A 
ATOM     21  C   UNL     1      -2.486 -14.585  21.276  0.00  0.00    +0.000 A 
ATOM     22  C   UNL     1      -2.009 -16.684  22.218  0.00  0.00    +0.000 A 
ATOM     23  C   UNL     1      -3.171 -15.688  22.090  0.00  0.00    +0.000 A 
ATOM     24  H   UNL     1       1.208 -15.055  20.517  0.00  0.00    +0.000 HD
ENDBRANCH  12  16
ENDBRANCH   8  10
BRANCH   4  25
ATOM     25  N   UNL     1       2.427 -18.459  16.074  0.00  0.00    +0.000 N 
ATOM     26  H   UNL     1       3.106 -18.390  16.829  0.00  0.00    +0.000 HD
BRANCH  25  27
ATOM     27  C   UNL     1       1.079 -18.820  16.506  0.00  0.00    +0.000 C 
BRANCH  27  28
ATOM     28  C   UNL     1      -0.304 -19.176  17.061  0.00  0.00    +0.000 C 
ATOM     29  C   UNL     1      -1.665 -19.622  17.603  0.00  0.00    +0.000 C 
BRANCH  29  30
ATOM     30  N   UNL     1      -2.843 -20.064  18.098  0.00  0.00    +0.000 N 
ATOM     31  C   UNL     1      -4.080 -20.131  17.472  0.00  0.00    +0.000 C 
ATOM     32  O   UNL     1      -4.217 -19.788  16.298  0.00  0.00    +0.000 OA
ATOM     33  H   UNL     1      -2.799 -20.317  19.078  0.00  0.00    +0.000 HD
BRANCH  31  34
ATOM     34  C   UNL     1      -5.166 -20.607  18.312  0.00  0.00    +0.000 A 
ATOM     35  S   UNL     1      -5.498 -19.828  19.810  0.00  0.00    +0.000 S 
ATOM     36  C   UNL     1      -6.768 -20.899  20.147  0.00  0.00    +0.000 A 
ATOM     37  C   UNL     1      -6.961 -21.831  19.166  0.00  0.00    +0.000 A 
ATOM     38  C   UNL     1      -6.036 -21.659  18.111  0.00  0.00    +0.000 A 
ENDBRANCH  31  34
ENDBRANCH  29  30
ENDBRANCH  27  28
ENDBRANCH  25  27
ENDBRANCH   4  25
TORSDOF 7
ENDMDL
MODEL 8
REMARK VINA RESULT:      -4.9     18.904     22.133
REMARK  Name = BX795.pdbqt.pdb
REMARK  7 active torsions:
REMARK  status: ('A' for Active; 'I' for Inactive)
REMARK    1  A    between atoms: C_4  and  N_25
REMARK    2  A    between atoms: N_8  and  C_10
REMARK    3  A    between atoms: C_12  and  N_16
REMARK    4  A    between atoms: N_25  and  C_27
REMARK    5  A    between atoms: C_27  and  C_28
REMARK    6  A    between atoms: C_29  and  N_30
REMARK    7  A    between atoms: C_31  and  C_34
REMARK                            x       y       z     vdW  Elec       q    Type
REMARK                         _______ _______ _______ _____ _____    ______ ____
ROOT
ATOM      1  I   UNL     1      -9.217   0.440  -3.481  0.00  0.00    +0.000 I 
ATOM      2  N   UNL     1      -9.305   2.680   0.217  0.00  0.00    +0.000 NA
ATOM      3  N   UNL     1      -9.093   4.245  -1.527  0.00  0.00    +0.000 NA
ATOM      4  C   UNL     1      -9.285   1.652  -0.658  0.00  0.00    +0.000 A 
ATOM      5  C   UNL     1      -9.206   3.940  -0.233  0.00  0.00    +0.000 A 
ATOM      6  C   UNL     1      -9.220   1.890  -2.016  0.00  0.00    +0.000 A 
ATOM      7  C   UNL     1      -9.119   3.209  -2.386  0.00  0.00    +0.000 A 
ATOM      8  N   UNL     1      -9.172   5.004   0.661  0.00  0.00    +0.000 N 
ATOM      9  H   UNL     1      -9.021   5.881   0.186  0.00  0.00    +0.000 HD
ENDROOT
BRANCH   8  10
ATOM     10  C   UNL     1      -9.498   5.051   2.022  0.00  0.00    +0.000 A 
ATOM     11  C   UNL     1      -8.528   5.177   3.021  0.00  0.00    +0.000 A 
ATOM     12  C   UNL     1      -8.866   5.321   4.366  0.00  0.00    +0.000 A 
ATOM     13  C   UNL     1     -10.208   5.371   4.725  0.00  0.00    +0.000 A 
ATOM     14  C   UNL     1     -11.195   5.259   3.749  0.00  0.00    +0.000 A 
ATOM     15  C   UNL     1     -10.839   5.103   2.409  0.00  0.00    +0.000 A 
BRANCH  12  16
ATOM     16  N   UNL     1      -7.814   5.365   5.298  0.00  0.00    +0.000 N 
ATOM     17  C   UNL     1      -7.376   6.487   5.980  0.00  0.00    +0.000 C 
ATOM     18  O   UNL     1      -7.767   7.631   5.751  0.00  0.00    +0.000 OA
ATOM     19  N   UNL     1      -6.413   6.211   6.950  0.00  0.00    +0.000 N 
ATOM     20  C   UNL     1      -5.820   5.052   7.354  0.00  0.00    +0.000 A 
ATOM     21  C   UNL     1      -5.773   7.076   7.785  0.00  0.00    +0.000 A 
ATOM     22  C   UNL     1      -4.755   5.067   8.455  0.00  0.00    +0.000 A 
ATOM     23  C   UNL     1      -4.719   6.569   8.776  0.00  0.00    +0.000 A 
ATOM     24  H   UNL     1      -7.287   4.510   5.425  0.00  0.00    +0.000 HD
ENDBRANCH  12  16
ENDBRANCH   8  10
BRANCH   4  25
ATOM     25  N   UNL     1      -9.402   0.330  -0.157  0.00  0.00    +0.000 N 
ATOM     26  H   UNL     1     -10.150  -0.157  -0.646  0.00  0.00    +0.000 HD
BRANCH  25  27
ATOM     27  C   UNL     1      -8.157  -0.426  -0.055  0.00  0.00    +0.000 C 
BRANCH  27  28
ATOM     28  C   UNL     1      -6.829  -1.164   0.143  0.00  0.00    +0.000 C 
ATOM     29  C   UNL     1      -5.511  -1.888   0.433  0.00  0.00    +0.000 C 
BRANCH  29  30
ATOM     30  N   UNL     1      -4.368  -2.542   0.739  0.00  0.00    +0.000 N 
ATOM     31  C   UNL     1      -4.126  -3.909   0.759  0.00  0.00    +0.000 C 
ATOM     32  O   UNL     1      -5.002  -4.714   0.445  0.00  0.00    +0.000 OA
ATOM     33  H   UNL     1      -3.623  -1.930   1.049  0.00  0.00    +0.000 HD
BRANCH  31  34
ATOM     34  C   UNL     1      -2.791  -4.287   1.192  0.00  0.00    +0.000 A 
ATOM     35  S   UNL     1      -2.212  -5.881   0.896  0.00  0.00    +0.000 S 
ATOM     36  C   UNL     1      -0.735  -5.543   1.654  0.00  0.00    +0.000 A 
ATOM     37  C   UNL     1      -0.652  -4.262   2.126  0.00  0.00    +0.000 A 
ATOM     38  C   UNL     1      -1.839  -3.543   1.857  0.00  0.00    +0.000 A 
ENDBRANCH  31  34
ENDBRANCH  29  30
ENDBRANCH  27  28
ENDBRANCH  25  27
ENDBRANCH   4  25
TORSDOF 7
ENDMDL
MODEL 9
REMARK VINA RESULT:      -4.9     21.087     24.330
REMARK  Name = BX795.pdbqt.pdb
REMARK  7 active torsions:
REMARK  status: ('A' for Active; 'I' for Inactive)
REMARK    1  A    between atoms: C_4  and  N_25
REMARK    2  A    between atoms: N_8  and  C_10
REMARK    3  A    between atoms: C_12  and  N_16
REMARK    4  A    between atoms: N_25  and  C_27
REMARK    5  A    between atoms: C_27  and  C_28
REMARK    6  A    between atoms: C_29  and  N_30
REMARK    7  A    between atoms: C_31  and  C_34
REMARK                            x       y       z     vdW  Elec       q    Type
REMARK                         _______ _______ _______ _____ _____    ______ ____
ROOT
ATOM      1  I   UNL     1     -23.113 -18.133   7.404  0.00  0.00    +0.000 I 
ATOM      2  N   UNL     1     -19.811 -15.593   6.244  0.00  0.00    +0.000 NA
ATOM      3  N   UNL     1     -21.778 -14.548   5.485  0.00  0.00    +0.000 NA
ATOM      4  C   UNL     1     -20.514 -16.634   6.738  0.00  0.00    +0.000 A 
ATOM      5  C   UNL     1     -20.452 -14.586   5.633  0.00  0.00    +0.000 A 
ATOM      6  C   UNL     1     -21.893 -16.643   6.668  0.00  0.00    +0.000 A 
ATOM      7  C   UNL     1     -22.464 -15.573   6.023  0.00  0.00    +0.000 A 
ATOM      8  N   UNL     1     -19.734 -13.534   5.073  0.00  0.00    +0.000 N 
ATOM      9  H   UNL     1     -20.341 -12.893   4.584  0.00  0.00    +0.000 HD
ENDROOT
BRANCH   8  10
ATOM     10  C   UNL     1     -18.398 -13.157   5.250  0.00  0.00    +0.000 A 
ATOM     11  C   UNL     1     -17.550 -12.875   4.176  0.00  0.00    +0.000 A 
ATOM     12  C   UNL     1     -16.251 -12.405   4.364  0.00  0.00    +0.000 A 
ATOM     13  C   UNL     1     -15.790 -12.183   5.657  0.00  0.00    +0.000 A 
ATOM     14  C   UNL     1     -16.619 -12.445   6.745  0.00  0.00    +0.000 A 
ATOM     15  C   UNL     1     -17.912 -12.926   6.540  0.00  0.00    +0.000 A 
BRANCH  12  16
ATOM     16  N   UNL     1     -15.454 -12.223   3.218  0.00  0.00    +0.000 N 
ATOM     17  C   UNL     1     -14.450 -13.068   2.781  0.00  0.00    +0.000 C 
ATOM     18  O   UNL     1     -14.029 -14.029   3.423  0.00  0.00    +0.000 OA
ATOM     19  N   UNL     1     -13.925 -12.716   1.538  0.00  0.00    +0.000 N 
ATOM     20  C   UNL     1     -14.208 -11.701   0.674  0.00  0.00    +0.000 A 
ATOM     21  C   UNL     1     -12.932 -13.323   0.831  0.00  0.00    +0.000 A 
ATOM     22  C   UNL     1     -13.429 -11.557  -0.637  0.00  0.00    +0.000 A 
ATOM     23  C   UNL     1     -12.481 -12.761  -0.522  0.00  0.00    +0.000 A 
ATOM     24  H   UNL     1     -15.584 -11.355   2.712  0.00  0.00    +0.000 HD
ENDBRANCH  12  16
ENDBRANCH   8  10
BRANCH   4  25
ATOM     25  N   UNL     1     -19.813 -17.681   7.391  0.00  0.00    +0.000 N 
ATOM     26  H   UNL     1     -19.860 -18.527   6.828  0.00  0.00    +0.000 HD
BRANCH  25  27
ATOM     27  C   UNL     1     -18.475 -17.350   7.871  0.00  0.00    +0.000 C 
BRANCH  27  28
ATOM     28  C   UNL     1     -17.035 -17.093   8.328  0.00  0.00    +0.000 C 
ATOM     29  C   UNL     1     -15.568 -16.903   8.723  0.00  0.00    +0.000 C 
BRANCH  29  30
ATOM     30  N   UNL     1     -14.257 -16.751   9.021  0.00  0.00    +0.000 N 
ATOM     31  C   UNL     1     -13.149 -16.995   8.222  0.00  0.00    +0.000 C 
ATOM     32  O   UNL     1     -13.276 -17.380   7.060  0.00  0.00    +0.000 OA
ATOM     33  H   UNL     1     -14.091 -16.478   9.982  0.00  0.00    +0.000 HD
BRANCH  31  34
ATOM     34  C   UNL     1     -11.867 -16.781   8.872  0.00  0.00    +0.000 A 
ATOM     35  S   UNL     1     -10.437 -17.458   8.194  0.00  0.00    +0.000 S 
ATOM     36  C   UNL     1      -9.482 -16.825   9.443  0.00  0.00    +0.000 A 
ATOM     37  C   UNL     1     -10.200 -16.111  10.361  0.00  0.00    +0.000 A 
ATOM     38  C   UNL     1     -11.572 -16.088  10.028  0.00  0.00    +0.000 A 
ENDBRANCH  31  34
ENDBRANCH  29  30
ENDBRANCH  27  28
ENDBRANCH  25  27
ENDBRANCH   4  25
TORSDOF 7
ENDMDL
