MODEL 1
REMARK VINA RESULT:      -2.5      0.000      0.000
REMARK  Name = CadmiumAcetate.pdbqt.pdb
REMARK  1 active torsions:
REMARK  status: ('A' for Active; 'I' for Inactive)
REMARK    1  A    between atoms: C_3  and  O_4
REMARK                            x       y       z     vdW  Elec       q    Type
REMARK                         _______ _______ _______ _____ _____    ______ ____
ROOT
ATOM      1  O   UNL     1      -7.563  -5.746  16.741  0.00  0.00    +0.000 OA
ATOM      2  C   UNL     1      -9.541  -6.051  15.609  0.00  0.00    +0.000 C 
ATOM      3  C   UNL     1      -8.744  -5.470  16.707  0.00  0.00    +0.000 C 
ENDROOT
BRANCH   3   4
ATOM      4  O   UNL     1      -9.404  -4.691  17.562  0.00  0.00    +0.000 OA
ATOM      5  H   UNL     1      -8.694  -4.136  17.935  0.00  0.00    +0.000 HD
ENDBRANCH   3   4
TORSDOF 1
ENDMDL
MODEL 2
REMARK VINA RESULT:      -2.4      1.673      2.075
REMARK  Name = CadmiumAcetate.pdbqt.pdb
REMARK  1 active torsions:
REMARK  status: ('A' for Active; 'I' for Inactive)
REMARK    1  A    between atoms: C_3  and  O_4
REMARK                            x       y       z     vdW  Elec       q    Type
REMARK                         _______ _______ _______ _____ _____    ______ ____
ROOT
ATOM      1  O   UNL     1      -9.419  -4.601  17.780  0.00  0.00    +0.000 OA
ATOM      2  C   UNL     1      -7.722  -5.684  16.667  0.00  0.00    +0.000 C 
ATOM      3  C   UNL     1      -8.539  -5.432  17.870  0.00  0.00    +0.000 C 
ENDROOT
BRANCH   3   4
ATOM      4  O   UNL     1      -8.230  -6.149  18.950  0.00  0.00    +0.000 OA
ATOM      5  H   UNL     1      -7.397  -5.737  19.247  0.00  0.00    +0.000 HD
ENDBRANCH   3   4
TORSDOF 1
ENDMDL
MODEL 3
REMARK VINA RESULT:      -2.4     13.274     13.782
REMARK  Name = CadmiumAcetate.pdbqt.pdb
REMARK  1 active torsions:
REMARK  status: ('A' for Active; 'I' for Inactive)
REMARK    1  A    between atoms: C_3  and  O_4
REMARK                            x       y       z     vdW  Elec       q    Type
REMARK                         _______ _______ _______ _____ _____    ______ ____
ROOT
ATOM      1  O   UNL     1     -19.926  -5.458   9.104  0.00  0.00    +0.000 OA
ATOM      2  C   UNL     1     -20.271  -4.300   7.147  0.00  0.00    +0.000 C 
ATOM      3  C   UNL     1     -19.399  -4.996   8.113  0.00  0.00    +0.000 C 
ENDROOT
BRANCH   3   4
ATOM      4  O   UNL     1     -18.106  -5.052   7.801  0.00  0.00    +0.000 OA
ATOM      5  H   UNL     1     -17.778  -5.765   8.379  0.00  0.00    +0.000 HD
ENDBRANCH   3   4
TORSDOF 1
ENDMDL
MODEL 4
REMARK VINA RESULT:      -2.4      1.286      1.860
REMARK  Name = CadmiumAcetate.pdbqt.pdb
REMARK  1 active torsions:
REMARK  status: ('A' for Active; 'I' for Inactive)
REMARK    1  A    between atoms: C_3  and  O_4
REMARK                            x       y       z     vdW  Elec       q    Type
REMARK                         _______ _______ _______ _____ _____    ______ ____
ROOT
ATOM      1  O   UNL     1      -7.531  -5.769  16.840  0.00  0.00    +0.000 OA
ATOM      2  C   UNL     1      -8.332  -5.999  18.983  0.00  0.00    +0.000 C 
ATOM      3  C   UNL     1      -8.418  -5.466  17.610  0.00  0.00    +0.000 C 
ENDROOT
BRANCH   3   4
ATOM      4  O   UNL     1      -9.473  -4.696  17.345  0.00  0.00    +0.000 OA
ATOM      5  H   UNL     1      -9.930  -4.659  18.205  0.00  0.00    +0.000 HD
ENDBRANCH   3   4
TORSDOF 1
ENDMDL
MODEL 5
REMARK VINA RESULT:      -2.4     13.100     13.382
REMARK  Name = CadmiumAcetate.pdbqt.pdb
REMARK  1 active torsions:
REMARK  status: ('A' for Active; 'I' for Inactive)
REMARK    1  A    between atoms: C_3  and  O_4
REMARK                            x       y       z     vdW  Elec       q    Type
REMARK                         _______ _______ _______ _____ _____    ______ ____
ROOT
ATOM      1  O   UNL     1     -21.517  -7.089  13.965  0.00  0.00    +0.000 OA
ATOM      2  C   UNL     1     -22.625  -5.075  14.047  0.00  0.00    +0.000 C 
ATOM      3  C   UNL     1     -21.632  -5.993  13.456  0.00  0.00    +0.000 C 
ENDROOT
BRANCH   3   4
ATOM      4  O   UNL     1     -20.951  -5.527  12.410  0.00  0.00    +0.000 OA
ATOM      5  H   UNL     1     -21.475  -5.851  11.654  0.00  0.00    +0.000 HD
ENDBRANCH   3   4
TORSDOF 1
ENDMDL
MODEL 6
REMARK VINA RESULT:      -2.4      3.017      3.861
REMARK  Name = CadmiumAcetate.pdbqt.pdb
REMARK  1 active torsions:
REMARK  status: ('A' for Active; 'I' for Inactive)
REMARK    1  A    between atoms: C_3  and  O_4
REMARK                            x       y       z     vdW  Elec       q    Type
REMARK                         _______ _______ _______ _____ _____    ______ ____
ROOT
ATOM      1  O   UNL     1     -11.458  -3.645  19.384  0.00  0.00    +0.000 OA
ATOM      2  C   UNL     1     -10.718  -2.136  17.814  0.00  0.00    +0.000 C 
ATOM      3  C   UNL     1     -10.655  -3.442  18.497  0.00  0.00    +0.000 C 
ENDROOT
BRANCH   3   4
ATOM      4  O   UNL     1      -9.715  -4.283  18.069  0.00  0.00    +0.000 OA
ATOM      5  H   UNL     1     -10.228  -4.932  17.554  0.00  0.00    +0.000 HD
ENDBRANCH   3   4
TORSDOF 1
ENDMDL
MODEL 7
REMARK VINA RESULT:      -2.3     13.212     13.703
REMARK  Name = CadmiumAcetate.pdbqt.pdb
REMARK  1 active torsions:
REMARK  status: ('A' for Active; 'I' for Inactive)
REMARK    1  A    between atoms: C_3  and  O_4
REMARK                            x       y       z     vdW  Elec       q    Type
REMARK                         _______ _______ _______ _____ _____    ______ ____
ROOT
ATOM      1  O   UNL     1       4.129 -10.325  11.765  0.00  0.00    +0.000 OA
ATOM      2  C   UNL     1       2.375  -8.846  11.617  0.00  0.00    +0.000 C 
ATOM      3  C   UNL     1       2.953 -10.197  11.493  0.00  0.00    +0.000 C 
ENDROOT
BRANCH   3   4
ATOM      4  O   UNL     1       2.121 -11.157  11.090  0.00  0.00    +0.000 OA
ATOM      5  H   UNL     1       2.625 -11.969  11.283  0.00  0.00    +0.000 HD
ENDBRANCH   3   4
TORSDOF 1
ENDMDL
MODEL 8
REMARK VINA RESULT:      -2.3     13.500     13.906
REMARK  Name = CadmiumAcetate.pdbqt.pdb
REMARK  1 active torsions:
REMARK  status: ('A' for Active; 'I' for Inactive)
REMARK    1  A    between atoms: C_3  and  O_4
REMARK                            x       y       z     vdW  Elec       q    Type
REMARK                         _______ _______ _______ _____ _____    ______ ____
ROOT
ATOM      1  O   UNL     1     -16.579 -11.712   6.109  0.00  0.00    +0.000 OA
ATOM      2  C   UNL     1     -15.077 -13.451   6.175  0.00  0.00    +0.000 C 
ATOM      3  C   UNL     1     -15.550 -12.122   6.604  0.00  0.00    +0.000 C 
ENDROOT
BRANCH   3   4
ATOM      4  O   UNL     1     -14.794 -11.492   7.503  0.00  0.00    +0.000 OA
ATOM      5  H   UNL     1     -14.134 -12.170   7.737  0.00  0.00    +0.000 HD
ENDBRANCH   3   4
TORSDOF 1
ENDMDL
MODEL 9
REMARK VINA RESULT:      -2.1     12.395     12.771
REMARK  Name = CadmiumAcetate.pdbqt.pdb
REMARK  1 active torsions:
REMARK  status: ('A' for Active; 'I' for Inactive)
REMARK    1  A    between atoms: C_3  and  O_4
REMARK                            x       y       z     vdW  Elec       q    Type
REMARK                         _______ _______ _______ _____ _____    ______ ____
ROOT
ATOM      1  O   UNL     1       2.893  -3.146  18.150  0.00  0.00    +0.000 OA
ATOM      2  C   UNL     1       4.253  -3.323  16.304  0.00  0.00    +0.000 C 
ATOM      3  C   UNL     1       3.469  -2.535  17.273  0.00  0.00    +0.000 C 
ENDROOT
BRANCH   3   4
ATOM      4  O   UNL     1       3.468  -1.215  17.093  0.00  0.00    +0.000 OA
ATOM      5  H   UNL     1       3.792  -0.883  17.950  0.00  0.00    +0.000 HD
ENDBRANCH   3   4
TORSDOF 1
ENDMDL
