MODEL 1
REMARK VINA RESULT:      -6.5      0.000      0.000
REMARK  Name = Calcitriol.pdbqt.pdb
REMARK  9 active torsions:
REMARK  status: ('A' for Active; 'I' for Inactive)
REMARK    1  A    between atoms: C_2  and  C_24
REMARK    2  A    between atoms: C_7  and  C_11
REMARK    3  A    between atoms: C_12  and  C_13
REMARK    4  A    between atoms: C_16  and  O_20
REMARK    5  A    between atoms: C_18  and  O_22
REMARK    6  A    between atoms: C_24  and  C_26
REMARK    7  A    between atoms: C_27  and  C_28
REMARK    8  A    between atoms: C_28  and  C_29
REMARK    9  A    between atoms: C_29  and  O_32
REMARK                            x       y       z     vdW  Elec       q    Type
REMARK                         _______ _______ _______ _____ _____    ______ ____
ROOT
ATOM      1  C   UNL     1      -9.266  -3.477  21.747  0.00  0.00    +0.000 C 
ATOM      2  C   UNL     1     -10.076  -3.733  23.014  0.00  0.00    +0.000 C 
ATOM      3  C   UNL     1      -9.356  -1.865  21.577  0.00  0.00    +0.000 C 
ATOM      4  C   UNL     1     -10.450  -2.489  23.604  0.00  0.00    +0.000 C 
ATOM      5  C   UNL     1      -9.990  -1.342  22.747  0.00  0.00    +0.000 C 
ATOM      6  C   UNL     1      -9.844  -4.061  20.526  0.00  0.00    +0.000 C 
ATOM      7  C   UNL     1      -9.583  -1.258  20.260  0.00  0.00    +0.000 C 
ATOM      8  C   UNL     1      -7.765  -3.820  21.967  0.00  0.00    +0.000 C 
ATOM      9  C   UNL     1     -10.273  -3.643  19.131  0.00  0.00    +0.000 C 
ATOM     10  C   UNL     1     -10.012  -2.156  19.246  0.00  0.00    +0.000 C 
ENDROOT
BRANCH   7  11
ATOM     11  C   UNL     1      -9.549   0.016  20.024  0.00  0.00    +0.000 C 
ATOM     12  C   UNL     1      -9.498   1.521  19.735  0.00  0.00    +0.000 C 
BRANCH  12  13
ATOM     13  C   UNL     1      -9.452   2.794  19.482  0.00  0.00    +0.000 A 
ATOM     14  C   UNL     1      -9.498   3.733  20.562  0.00  0.00    +0.000 A 
ATOM     15  C   UNL     1      -9.411   3.437  18.131  0.00  0.00    +0.000 A 
ATOM     16  C   UNL     1      -9.512   5.157  20.615  0.00  0.00    +0.000 A 
ATOM     17  C   UNL     1      -9.478   5.630  19.273  0.00  0.00    +0.000 A 
ATOM     18  C   UNL     1      -9.427   4.930  18.033  0.00  0.00    +0.000 A 
ATOM     19  C   UNL     1      -9.350   2.716  16.996  0.00  0.00    +0.000 C 
BRANCH  16  20
ATOM     20  O   UNL     1      -8.913   5.833  21.638  0.00  0.00    +0.000 OA
ATOM     21  H   UNL     1      -8.077   6.237  21.351  0.00  0.00    +0.000 HD
ENDBRANCH  16  20
BRANCH  18  22
ATOM     22  O   UNL     1      -9.383   5.578  16.821  0.00  0.00    +0.000 OA
ATOM     23  H   UNL     1      -8.459   5.653  16.512  0.00  0.00    +0.000 HD
ENDBRANCH  18  22
ENDBRANCH  12  13
ENDBRANCH   7  11
BRANCH   2  24
ATOM     24  C   UNL     1     -10.287  -5.013  23.613  0.00  0.00    +0.000 C 
ATOM     25  C   UNL     1     -11.469  -5.888  23.287  0.00  0.00    +0.000 C 
BRANCH  24  26
ATOM     26  C   UNL     1      -9.484  -5.456  24.700  0.00  0.00    +0.000 C 
ATOM     27  C   UNL     1      -8.623  -5.921  25.881  0.00  0.00    +0.000 C 
BRANCH  27  28
ATOM     28  C   UNL     1      -7.765  -6.375  27.069  0.00  0.00    +0.000 C 
BRANCH  28  29
ATOM     29  C   UNL     1      -6.950  -6.808  28.204  0.00  0.00    +0.000 C 
ATOM     30  C   UNL     1      -6.979  -5.814  29.371  0.00  0.00    +0.000 C 
ATOM     31  C   UNL     1      -7.294  -8.220  28.689  0.00  0.00    +0.000 C 
BRANCH  29  32
ATOM     32  O   UNL     1      -5.601  -6.874  27.801  0.00  0.00    +0.000 OA
ATOM     33  H   UNL     1      -5.457  -7.822  27.939  0.00  0.00    +0.000 HD
ENDBRANCH  29  32
ENDBRANCH  28  29
ENDBRANCH  27  28
ENDBRANCH  24  26
ENDBRANCH   2  24
TORSDOF 9
ENDMDL
MODEL 2
REMARK VINA RESULT:      -6.3      1.386     11.239
REMARK  Name = Calcitriol.pdbqt.pdb
REMARK  9 active torsions:
REMARK  status: ('A' for Active; 'I' for Inactive)
REMARK    1  A    between atoms: C_2  and  C_24
REMARK    2  A    between atoms: C_7  and  C_11
REMARK    3  A    between atoms: C_12  and  C_13
REMARK    4  A    between atoms: C_16  and  O_20
REMARK    5  A    between atoms: C_18  and  O_22
REMARK    6  A    between atoms: C_24  and  C_26
REMARK    7  A    between atoms: C_27  and  C_28
REMARK    8  A    between atoms: C_28  and  C_29
REMARK    9  A    between atoms: C_29  and  O_32
REMARK                            x       y       z     vdW  Elec       q    Type
REMARK                         _______ _______ _______ _____ _____    ______ ____
ROOT
ATOM      1  C   UNL     1     -10.235  -3.453  22.631  0.00  0.00    +0.000 C 
ATOM      2  C   UNL     1      -9.291  -3.242  21.451  0.00  0.00    +0.000 C 
ATOM      3  C   UNL     1      -9.292  -4.201  23.721  0.00  0.00    +0.000 C 
ATOM      4  C   UNL     1      -7.970  -3.636  21.816  0.00  0.00    +0.000 C 
ATOM      5  C   UNL     1      -7.955  -4.198  23.211  0.00  0.00    +0.000 C 
ATOM      6  C   UNL     1     -11.360  -4.360  22.356  0.00  0.00    +0.000 C 
ATOM      7  C   UNL     1      -9.799  -5.336  24.502  0.00  0.00    +0.000 C 
ATOM      8  C   UNL     1     -10.652  -2.093  23.261  0.00  0.00    +0.000 C 
ATOM      9  C   UNL     1     -11.999  -5.620  22.915  0.00  0.00    +0.000 C 
ATOM     10  C   UNL     1     -11.012  -5.902  24.029  0.00  0.00    +0.000 C 
ENDROOT
BRANCH   7  11
ATOM     11  C   UNL     1      -9.152  -5.907  25.469  0.00  0.00    +0.000 C 
ATOM     12  C   UNL     1      -8.382  -6.570  26.618  0.00  0.00    +0.000 C 
BRANCH  12  13
ATOM     13  C   UNL     1      -7.731  -7.124  27.596  0.00  0.00    +0.000 A 
ATOM     14  C   UNL     1      -6.459  -6.596  27.988  0.00  0.00    +0.000 A 
ATOM     15  C   UNL     1      -8.139  -8.340  28.368  0.00  0.00    +0.000 A 
ATOM     16  C   UNL     1      -5.499  -6.992  28.964  0.00  0.00    +0.000 A 
ATOM     17  C   UNL     1      -6.008  -8.154  29.610  0.00  0.00    +0.000 A 
ATOM     18  C   UNL     1      -7.223  -8.874  29.424  0.00  0.00    +0.000 A 
ATOM     19  C   UNL     1      -9.309  -8.967  28.150  0.00  0.00    +0.000 C 
BRANCH  16  20
ATOM     20  O   UNL     1      -4.739  -6.070  29.624  0.00  0.00    +0.000 OA
ATOM     21  H   UNL     1      -5.165  -5.197  29.625  0.00  0.00    +0.000 HD
ENDBRANCH  16  20
BRANCH  18  22
ATOM     22  O   UNL     1      -7.545  -9.982  30.171  0.00  0.00    +0.000 OA
ATOM     23  H   UNL     1      -6.837 -10.173  30.816  0.00  0.00    +0.000 HD
ENDBRANCH  18  22
ENDBRANCH  12  13
ENDBRANCH   7  11
BRANCH   2  24
ATOM     24  C   UNL     1      -9.636  -2.593  20.226  0.00  0.00    +0.000 C 
ATOM     25  C   UNL     1      -9.888  -3.342  18.942  0.00  0.00    +0.000 C 
BRANCH  24  26
ATOM     26  C   UNL     1      -9.580  -1.178  20.102  0.00  0.00    +0.000 C 
ATOM     27  C   UNL     1      -9.519   0.347  19.953  0.00  0.00    +0.000 C 
BRANCH  27  28
ATOM     28  C   UNL     1      -9.456   1.871  19.789  0.00  0.00    +0.000 C 
BRANCH  28  29
ATOM     29  C   UNL     1      -9.398   3.324  19.630  0.00  0.00    +0.000 C 
ATOM     30  C   UNL     1      -8.063   3.921  20.091  0.00  0.00    +0.000 C 
ATOM     31  C   UNL     1      -9.735   3.789  18.209  0.00  0.00    +0.000 C 
BRANCH  29  32
ATOM     32  O   UNL     1     -10.377   3.915  20.455  0.00  0.00    +0.000 OA
ATOM     33  H   UNL     1     -10.615   3.134  20.976  0.00  0.00    +0.000 HD
ENDBRANCH  29  32
ENDBRANCH  28  29
ENDBRANCH  27  28
ENDBRANCH  24  26
ENDBRANCH   2  24
TORSDOF 9
ENDMDL
MODEL 3
REMARK VINA RESULT:      -6.2      2.646      3.754
REMARK  Name = Calcitriol.pdbqt.pdb
REMARK  9 active torsions:
REMARK  status: ('A' for Active; 'I' for Inactive)
REMARK    1  A    between atoms: C_2  and  C_24
REMARK    2  A    between atoms: C_7  and  C_11
REMARK    3  A    between atoms: C_12  and  C_13
REMARK    4  A    between atoms: C_16  and  O_20
REMARK    5  A    between atoms: C_18  and  O_22
REMARK    6  A    between atoms: C_24  and  C_26
REMARK    7  A    between atoms: C_27  and  C_28
REMARK    8  A    between atoms: C_28  and  C_29
REMARK    9  A    between atoms: C_29  and  O_32
REMARK                            x       y       z     vdW  Elec       q    Type
REMARK                         _______ _______ _______ _____ _____    ______ ____
ROOT
ATOM      1  C   UNL     1      -9.338  -1.866  21.461  0.00  0.00    +0.000 C 
ATOM      2  C   UNL     1      -9.461  -2.954  20.399  0.00  0.00    +0.000 C 
ATOM      3  C   UNL     1      -9.590  -0.502  20.616  0.00  0.00    +0.000 C 
ATOM      4  C   UNL     1      -9.879  -2.374  19.164  0.00  0.00    +0.000 C 
ATOM      5  C   UNL     1      -9.988  -0.880  19.295  0.00  0.00    +0.000 C 
ATOM      6  C   UNL     1      -7.998  -1.747  22.059  0.00  0.00    +0.000 C 
ATOM      7  C   UNL     1      -8.763   0.689  20.844  0.00  0.00    +0.000 C 
ATOM      8  C   UNL     1     -10.491  -1.968  22.499  0.00  0.00    +0.000 C 
ATOM      9  C   UNL     1      -6.923  -0.702  22.302  0.00  0.00    +0.000 C 
ATOM     10  C   UNL     1      -7.579   0.468  21.598  0.00  0.00    +0.000 C 
ENDROOT
BRANCH   7  11
ATOM     11  C   UNL     1      -8.976   1.845  20.299  0.00  0.00    +0.000 C 
ATOM     12  C   UNL     1      -9.217   3.211  19.645  0.00  0.00    +0.000 C 
BRANCH  12  13
ATOM     13  C   UNL     1      -9.416   4.365  19.083  0.00  0.00    +0.000 A 
ATOM     14  C   UNL     1     -10.480   5.204  19.547  0.00  0.00    +0.000 A 
ATOM     15  C   UNL     1      -8.670   4.934  17.916  0.00  0.00    +0.000 A 
ATOM     16  C   UNL     1     -10.976   6.471  19.125  0.00  0.00    +0.000 A 
ATOM     17  C   UNL     1     -10.187   6.885  18.015  0.00  0.00    +0.000 A 
ATOM     18  C   UNL     1      -9.086   6.260  17.361  0.00  0.00    +0.000 A 
ATOM     19  C   UNL     1      -7.629   4.295  17.353  0.00  0.00    +0.000 C 
BRANCH  16  20
ATOM     20  O   UNL     1     -11.492   7.363  20.020  0.00  0.00    +0.000 OA
ATOM     21  H   UNL     1     -11.309   8.279  19.750  0.00  0.00    +0.000 HD
ENDBRANCH  16  20
BRANCH  18  22
ATOM     22  O   UNL     1      -8.435   6.836  16.297  0.00  0.00    +0.000 OA
ATOM     23  H   UNL     1      -9.081   7.148  15.634  0.00  0.00    +0.000 HD
ENDBRANCH  18  22
ENDBRANCH  12  13
ENDBRANCH   7  11
BRANCH   2  24
ATOM     24  C   UNL     1      -9.341  -4.357  20.639  0.00  0.00    +0.000 C 
ATOM     25  C   UNL     1      -8.678  -5.303  19.671  0.00  0.00    +0.000 C 
BRANCH  24  26
ATOM     26  C   UNL     1     -10.013  -4.976  21.729  0.00  0.00    +0.000 C 
ATOM     27  C   UNL     1     -10.736  -5.628  22.914  0.00  0.00    +0.000 C 
BRANCH  27  28
ATOM     28  C   UNL     1     -11.458  -6.269  24.106  0.00  0.00    +0.000 C 
BRANCH  28  29
ATOM     29  C   UNL     1     -12.148  -6.884  25.239  0.00  0.00    +0.000 C 
ATOM     30  C   UNL     1     -11.184  -7.483  26.270  0.00  0.00    +0.000 C 
ATOM     31  C   UNL     1     -13.148  -5.941  25.920  0.00  0.00    +0.000 C 
BRANCH  29  32
ATOM     32  O   UNL     1     -12.921  -7.968  24.773  0.00  0.00    +0.000 OA
ATOM     33  H   UNL     1     -13.138  -8.366  25.629  0.00  0.00    +0.000 HD
ENDBRANCH  29  32
ENDBRANCH  28  29
ENDBRANCH  27  28
ENDBRANCH  24  26
ENDBRANCH   2  24
TORSDOF 9
ENDMDL
MODEL 4
REMARK VINA RESULT:      -6.1     22.534     24.627
REMARK  Name = Calcitriol.pdbqt.pdb
REMARK  9 active torsions:
REMARK  status: ('A' for Active; 'I' for Inactive)
REMARK    1  A    between atoms: C_2  and  C_24
REMARK    2  A    between atoms: C_7  and  C_11
REMARK    3  A    between atoms: C_12  and  C_13
REMARK    4  A    between atoms: C_16  and  O_20
REMARK    5  A    between atoms: C_18  and  O_22
REMARK    6  A    between atoms: C_24  and  C_26
REMARK    7  A    between atoms: C_27  and  C_28
REMARK    8  A    between atoms: C_28  and  C_29
REMARK    9  A    between atoms: C_29  and  O_32
REMARK                            x       y       z     vdW  Elec       q    Type
REMARK                         _______ _______ _______ _____ _____    ______ ____
ROOT
ATOM      1  C   UNL     1      -2.331  -6.948  -0.457  0.00  0.00    +0.000 C 
ATOM      2  C   UNL     1      -1.868  -6.903   0.996  0.00  0.00    +0.000 C 
ATOM      3  C   UNL     1      -3.949  -7.000  -0.321  0.00  0.00    +0.000 C 
ATOM      4  C   UNL     1      -2.998  -6.778   1.857  0.00  0.00    +0.000 C 
ATOM      5  C   UNL     1      -4.273  -6.809   1.059  0.00  0.00    +0.000 C 
ATOM      6  C   UNL     1      -1.933  -8.164  -1.186  0.00  0.00    +0.000 C 
ATOM      7  C   UNL     1      -4.748  -7.895  -1.167  0.00  0.00    +0.000 C 
ATOM      8  C   UNL     1      -1.987  -5.623  -1.193  0.00  0.00    +0.000 C 
ATOM      9  C   UNL     1      -2.553  -9.282  -2.004  0.00  0.00    +0.000 C 
ATOM     10  C   UNL     1      -4.010  -8.893  -1.858  0.00  0.00    +0.000 C 
ENDROOT
BRANCH   7  11
ATOM     11  C   UNL     1      -6.043  -7.908  -1.202  0.00  0.00    +0.000 C 
ATOM     12  C   UNL     1      -7.575  -7.925  -1.257  0.00  0.00    +0.000 C 
BRANCH  12  13
ATOM     13  C   UNL     1      -8.873  -7.945  -1.312  0.00  0.00    +0.000 A 
ATOM     14  C   UNL     1      -9.596  -8.970  -0.621  0.00  0.00    +0.000 A 
ATOM     15  C   UNL     1      -9.750  -7.015  -2.092  0.00  0.00    +0.000 A 
ATOM     16  C   UNL     1     -10.981  -9.288  -0.523  0.00  0.00    +0.000 A 
ATOM     17  C   UNL     1     -11.689  -8.338  -1.312  0.00  0.00    +0.000 A 
ATOM     18  C   UNL     1     -11.231  -7.233  -2.086  0.00  0.00    +0.000 A 
ATOM     19  C   UNL     1      -9.252  -5.981  -2.794  0.00  0.00    +0.000 C 
BRANCH  16  20
ATOM     20  O   UNL     1     -11.507  -9.817   0.620  0.00  0.00    +0.000 OA
ATOM     21  H   UNL     1     -11.060  -9.467   1.409  0.00  0.00    +0.000 HD
ENDBRANCH  16  20
BRANCH  18  22
ATOM     22  O   UNL     1     -12.087  -6.409  -2.776  0.00  0.00    +0.000 OA
ATOM     23  H   UNL     1     -13.009  -6.716  -2.672  0.00  0.00    +0.000 HD
ENDBRANCH  18  22
ENDBRANCH  12  13
ENDBRANCH   7  11
BRANCH   2  24
ATOM     24  C   UNL     1      -0.507  -6.827   1.424  0.00  0.00    +0.000 C 
ATOM     25  C   UNL     1       0.272  -8.024   1.906  0.00  0.00    +0.000 C 
BRANCH  24  26
ATOM     26  C   UNL     1       0.139  -5.572   1.598  0.00  0.00    +0.000 C 
ATOM     27  C   UNL     1       0.845  -4.221   1.770  0.00  0.00    +0.000 C 
BRANCH  27  28
ATOM     28  C   UNL     1       1.559  -2.874   1.933  0.00  0.00    +0.000 C 
BRANCH  28  29
ATOM     29  C   UNL     1       2.237  -1.587   2.090  0.00  0.00    +0.000 C 
ATOM     30  C   UNL     1       1.263  -0.404   2.144  0.00  0.00    +0.000 C 
ATOM     31  C   UNL     1       3.194  -1.552   3.287  0.00  0.00    +0.000 C 
BRANCH  29  32
ATOM     32  O   UNL     1       3.048  -1.355   0.961  0.00  0.00    +0.000 OA
ATOM     33  H   UNL     1       3.450  -2.233   0.890  0.00  0.00    +0.000 HD
ENDBRANCH  29  32
ENDBRANCH  28  29
ENDBRANCH  27  28
ENDBRANCH  24  26
ENDBRANCH   2  24
TORSDOF 9
ENDMDL
MODEL 5
REMARK VINA RESULT:      -6.1     23.685     27.170
REMARK  Name = Calcitriol.pdbqt.pdb
REMARK  9 active torsions:
REMARK  status: ('A' for Active; 'I' for Inactive)
REMARK    1  A    between atoms: C_2  and  C_24
REMARK    2  A    between atoms: C_7  and  C_11
REMARK    3  A    between atoms: C_12  and  C_13
REMARK    4  A    between atoms: C_16  and  O_20
REMARK    5  A    between atoms: C_18  and  O_22
REMARK    6  A    between atoms: C_24  and  C_26
REMARK    7  A    between atoms: C_27  and  C_28
REMARK    8  A    between atoms: C_28  and  C_29
REMARK    9  A    between atoms: C_29  and  O_32
REMARK                            x       y       z     vdW  Elec       q    Type
REMARK                         _______ _______ _______ _____ _____    ______ ____
ROOT
ATOM      1  C   UNL     1      -2.649  -6.914   0.044  0.00  0.00    +0.000 C 
ATOM      2  C   UNL     1      -3.954  -7.705   0.040  0.00  0.00    +0.000 C 
ATOM      3  C   UNL     1      -1.753  -7.686  -1.069  0.00  0.00    +0.000 C 
ATOM      4  C   UNL     1      -3.924  -8.676  -1.004  0.00  0.00    +0.000 C 
ATOM      5  C   UNL     1      -2.593  -8.653  -1.705  0.00  0.00    +0.000 C 
ATOM      6  C   UNL     1      -1.898  -6.984   1.308  0.00  0.00    +0.000 C 
ATOM      7  C   UNL     1      -0.331  -7.960  -0.833  0.00  0.00    +0.000 C 
ATOM      8  C   UNL     1      -2.872  -5.469  -0.486  0.00  0.00    +0.000 C 
ATOM      9  C   UNL     1      -0.513  -7.340   1.817  0.00  0.00    +0.000 C 
ATOM     10  C   UNL     1       0.104  -7.789   0.508  0.00  0.00    +0.000 C 
ENDROOT
BRANCH   7  11
ATOM     11  C   UNL     1       0.475  -8.462  -1.716  0.00  0.00    +0.000 C 
ATOM     12  C   UNL     1       1.437  -9.062  -2.749  0.00  0.00    +0.000 C 
BRANCH  12  13
ATOM     13  C   UNL     1       2.253  -9.576  -3.618  0.00  0.00    +0.000 A 
ATOM     14  C   UNL     1       2.238 -10.988  -3.855  0.00  0.00    +0.000 A 
ATOM     15  C   UNL     1       3.301  -8.848  -4.402  0.00  0.00    +0.000 A 
ATOM     16  C   UNL     1       3.016 -11.845  -4.686  0.00  0.00    +0.000 A 
ATOM     17  C   UNL     1       3.967 -11.029  -5.360  0.00  0.00    +0.000 A 
ATOM     18  C   UNL     1       4.198  -9.624  -5.315  0.00  0.00    +0.000 A 
ATOM     19  C   UNL     1       3.458  -7.515  -4.322  0.00  0.00    +0.000 C 
BRANCH  16  20
ATOM     20  O   UNL     1       2.471 -12.954  -5.266  0.00  0.00    +0.000 OA
ATOM     21  H   UNL     1       1.631 -13.197  -4.843  0.00  0.00    +0.000 HD
ENDBRANCH  16  20
BRANCH  18  22
ATOM     22  O   UNL     1       5.172  -9.011  -6.066  0.00  0.00    +0.000 OA
ATOM     23  H   UNL     1       4.807  -8.227  -6.518  0.00  0.00    +0.000 HD
ENDBRANCH  18  22
ENDBRANCH  12  13
ENDBRANCH   7  11
BRANCH   2  24
ATOM     24  C   UNL     1      -5.098  -7.411   0.844  0.00  0.00    +0.000 C 
ATOM     25  C   UNL     1      -4.998  -6.866   2.246  0.00  0.00    +0.000 C 
BRANCH  24  26
ATOM     26  C   UNL     1      -6.403  -7.794   0.432  0.00  0.00    +0.000 C 
ATOM     27  C   UNL     1      -7.812  -8.219  -0.001  0.00  0.00    +0.000 C 
BRANCH  27  28
ATOM     28  C   UNL     1      -9.220  -8.654  -0.426  0.00  0.00    +0.000 C 
BRANCH  28  29
ATOM     29  C   UNL     1     -10.562  -9.068  -0.835  0.00  0.00    +0.000 C 
ATOM     30  C   UNL     1     -11.360  -7.934  -1.490  0.00  0.00    +0.000 C 
ATOM     31  C   UNL     1     -10.565 -10.315  -1.725  0.00  0.00    +0.000 C 
BRANCH  29  32
ATOM     32  O   UNL     1     -11.299  -9.430   0.311  0.00  0.00    +0.000 OA
ATOM     33  H   UNL     1     -11.469 -10.357   0.085  0.00  0.00    +0.000 HD
ENDBRANCH  29  32
ENDBRANCH  28  29
ENDBRANCH  27  28
ENDBRANCH  24  26
ENDBRANCH   2  24
TORSDOF 9
ENDMDL
MODEL 6
REMARK VINA RESULT:      -5.9     15.474     17.821
REMARK  Name = Calcitriol.pdbqt.pdb
REMARK  9 active torsions:
REMARK  status: ('A' for Active; 'I' for Inactive)
REMARK    1  A    between atoms: C_2  and  C_24
REMARK    2  A    between atoms: C_7  and  C_11
REMARK    3  A    between atoms: C_12  and  C_13
REMARK    4  A    between atoms: C_16  and  O_20
REMARK    5  A    between atoms: C_18  and  O_22
REMARK    6  A    between atoms: C_24  and  C_26
REMARK    7  A    between atoms: C_27  and  C_28
REMARK    8  A    between atoms: C_28  and  C_29
REMARK    9  A    between atoms: C_29  and  O_32
REMARK                            x       y       z     vdW  Elec       q    Type
REMARK                         _______ _______ _______ _____ _____    ______ ____
ROOT
ATOM      1  C   UNL     1       0.445 -13.777  20.530  0.00  0.00    +0.000 C 
ATOM      2  C   UNL     1       0.136 -15.194  21.004  0.00  0.00    +0.000 C 
ATOM      3  C   UNL     1       0.932 -14.004  18.998  0.00  0.00    +0.000 C 
ATOM      4  C   UNL     1       0.251 -16.101  19.910  0.00  0.00    +0.000 C 
ATOM      5  C   UNL     1       0.709 -15.379  18.673  0.00  0.00    +0.000 C 
ATOM      6  C   UNL     1       1.565 -13.130  21.234  0.00  0.00    +0.000 C 
ATOM      7  C   UNL     1       2.090 -13.279  18.460  0.00  0.00    +0.000 C 
ATOM      8  C   UNL     1      -0.848 -12.916  20.465  0.00  0.00    +0.000 C 
ATOM      9  C   UNL     1       2.884 -12.441  20.932  0.00  0.00    +0.000 C 
ATOM     10  C   UNL     1       2.903 -12.634  19.429  0.00  0.00    +0.000 C 
ENDROOT
BRANCH   7  11
ATOM     11  C   UNL     1       2.466 -13.316  17.220  0.00  0.00    +0.000 C 
ATOM     12  C   UNL     1       2.911 -13.374  15.754  0.00  0.00    +0.000 C 
BRANCH  12  13
ATOM     13  C   UNL     1       3.284 -13.431  14.511  0.00  0.00    +0.000 A 
ATOM     14  C   UNL     1       2.902 -14.554  13.708  0.00  0.00    +0.000 A 
ATOM     15  C   UNL     1       4.153 -12.448  13.791  0.00  0.00    +0.000 A 
ATOM     16  C   UNL     1       3.180 -14.929  12.362  0.00  0.00    +0.000 A 
ATOM     17  C   UNL     1       4.015 -13.918  11.807  0.00  0.00    +0.000 A 
ATOM     18  C   UNL     1       4.534 -12.716  12.369  0.00  0.00    +0.000 A 
ATOM     19  C   UNL     1       4.600 -11.323  14.378  0.00  0.00    +0.000 C 
BRANCH  16  20
ATOM     20  O   UNL     1       2.263 -15.605  11.611  0.00  0.00    +0.000 OA
ATOM     21  H   UNL     1       2.226 -15.258  10.704  0.00  0.00    +0.000 HD
ENDBRANCH  16  20
BRANCH  18  22
ATOM     22  O   UNL     1       5.323 -11.848  11.653  0.00  0.00    +0.000 OA
ATOM     23  H   UNL     1       5.031 -11.815  10.722  0.00  0.00    +0.000 HD
ENDBRANCH  18  22
ENDBRANCH  12  13
ENDBRANCH   7  11
BRANCH   2  24
ATOM     24  C   UNL     1      -0.356 -15.540  22.300  0.00  0.00    +0.000 C 
ATOM     25  C   UNL     1       0.543 -15.755  23.490  0.00  0.00    +0.000 C 
BRANCH  24  26
ATOM     26  C   UNL     1      -1.720 -15.887  22.499  0.00  0.00    +0.000 C 
ATOM     27  C   UNL     1      -3.189 -16.266  22.729  0.00  0.00    +0.000 C 
BRANCH  27  28
ATOM     28  C   UNL     1      -4.654 -16.651  22.971  0.00  0.00    +0.000 C 
BRANCH  28  29
ATOM     29  C   UNL     1      -6.051 -17.015  23.205  0.00  0.00    +0.000 C 
ATOM     30  C   UNL     1      -6.932 -16.823  21.966  0.00  0.00    +0.000 C 
ATOM     31  C   UNL     1      -6.219 -18.429  23.774  0.00  0.00    +0.000 C 
BRANCH  29  32
ATOM     32  O   UNL     1      -6.590 -16.156  24.185  0.00  0.00    +0.000 OA
ATOM     33  H   UNL     1      -7.393 -16.658  24.389  0.00  0.00    +0.000 HD
ENDBRANCH  29  32
ENDBRANCH  28  29
ENDBRANCH  27  28
ENDBRANCH  24  26
ENDBRANCH   2  24
TORSDOF 9
ENDMDL
MODEL 7
REMARK VINA RESULT:      -5.9     18.573     22.528
REMARK  Name = Calcitriol.pdbqt.pdb
REMARK  9 active torsions:
REMARK  status: ('A' for Active; 'I' for Inactive)
REMARK    1  A    between atoms: C_2  and  C_24
REMARK    2  A    between atoms: C_7  and  C_11
REMARK    3  A    between atoms: C_12  and  C_13
REMARK    4  A    between atoms: C_16  and  O_20
REMARK    5  A    between atoms: C_18  and  O_22
REMARK    6  A    between atoms: C_24  and  C_26
REMARK    7  A    between atoms: C_27  and  C_28
REMARK    8  A    between atoms: C_28  and  C_29
REMARK    9  A    between atoms: C_29  and  O_32
REMARK                            x       y       z     vdW  Elec       q    Type
REMARK                         _______ _______ _______ _____ _____    ______ ____
ROOT
ATOM      1  C   UNL     1      -3.355  -6.337   1.018  0.00  0.00    +0.000 C 
ATOM      2  C   UNL     1      -4.299  -6.030  -0.140  0.00  0.00    +0.000 C 
ATOM      3  C   UNL     1      -3.136  -4.881   1.704  0.00  0.00    +0.000 C 
ATOM      4  C   UNL     1      -4.715  -4.667  -0.072  0.00  0.00    +0.000 C 
ATOM      5  C   UNL     1      -4.031  -3.964   1.068  0.00  0.00    +0.000 C 
ATOM      6  C   UNL     1      -2.023  -6.812   0.608  0.00  0.00    +0.000 C 
ATOM      7  C   UNL     1      -1.804  -4.451   2.148  0.00  0.00    +0.000 C 
ATOM      8  C   UNL     1      -4.051  -7.231   2.083  0.00  0.00    +0.000 C 
ATOM      9  C   UNL     1      -0.557  -6.480   0.819  0.00  0.00    +0.000 C 
ATOM     10  C   UNL     1      -0.723  -5.236   1.668  0.00  0.00    +0.000 C 
ENDROOT
BRANCH   7  11
ATOM     11  C   UNL     1      -1.569  -3.360   2.808  0.00  0.00    +0.000 C 
ATOM     12  C   UNL     1      -1.292  -2.062   3.576  0.00  0.00    +0.000 C 
BRANCH  12  13
ATOM     13  C   UNL     1      -1.061  -0.958   4.219  0.00  0.00    +0.000 A 
ATOM     14  C   UNL     1      -0.189   0.025   3.651  0.00  0.00    +0.000 A 
ATOM     15  C   UNL     1      -1.576  -0.588   5.576  0.00  0.00    +0.000 A 
ATOM     16  C   UNL     1       0.292   1.285   4.111  0.00  0.00    +0.000 A 
ATOM     17  C   UNL     1      -0.266   1.502   5.403  0.00  0.00    +0.000 A 
ATOM     18  C   UNL     1      -1.149   0.708   6.190  0.00  0.00    +0.000 A 
ATOM     19  C   UNL     1      -2.420  -1.381   6.261  0.00  0.00    +0.000 C 
BRANCH  16  20
ATOM     20  O   UNL     1       0.534   2.310   3.244  0.00  0.00    +0.000 OA
ATOM     21  H   UNL     1       1.289   2.847   3.536  0.00  0.00    +0.000 HD
ENDBRANCH  16  20
BRANCH  18  22
ATOM     22  O   UNL     1      -1.594   1.105   7.428  0.00  0.00    +0.000 OA
ATOM     23  H   UNL     1      -2.375   1.684   7.336  0.00  0.00    +0.000 HD
ENDBRANCH  18  22
ENDBRANCH  12  13
ENDBRANCH   7  11
BRANCH   2  24
ATOM     24  C   UNL     1      -4.822  -6.995  -1.054  0.00  0.00    +0.000 C 
ATOM     25  C   UNL     1      -4.021  -7.562  -2.198  0.00  0.00    +0.000 C 
BRANCH  24  26
ATOM     26  C   UNL     1      -6.202  -7.341  -1.048  0.00  0.00    +0.000 C 
ATOM     27  C   UNL     1      -7.687  -7.723  -1.056  0.00  0.00    +0.000 C 
BRANCH  27  28
ATOM     28  C   UNL     1      -9.171  -8.112  -1.075  0.00  0.00    +0.000 C 
BRANCH  28  29
ATOM     29  C   UNL     1     -10.584  -8.486  -1.093  0.00  0.00    +0.000 C 
ATOM     30  C   UNL     1     -11.507  -7.314  -1.446  0.00  0.00    +0.000 C 
ATOM     31  C   UNL     1     -10.877  -9.694  -1.990  0.00  0.00    +0.000 C 
BRANCH  29  32
ATOM     32  O   UNL     1     -10.969  -8.888   0.204  0.00  0.00    +0.000 OA
ATOM     33  H   UNL     1     -11.409  -8.071   0.481  0.00  0.00    +0.000 HD
ENDBRANCH  29  32
ENDBRANCH  28  29
ENDBRANCH  27  28
ENDBRANCH  24  26
ENDBRANCH   2  24
TORSDOF 9
ENDMDL
MODEL 8
REMARK VINA RESULT:      -5.8     14.032     18.416
REMARK  Name = Calcitriol.pdbqt.pdb
REMARK  9 active torsions:
REMARK  status: ('A' for Active; 'I' for Inactive)
REMARK    1  A    between atoms: C_2  and  C_24
REMARK    2  A    between atoms: C_7  and  C_11
REMARK    3  A    between atoms: C_12  and  C_13
REMARK    4  A    between atoms: C_16  and  O_20
REMARK    5  A    between atoms: C_18  and  O_22
REMARK    6  A    between atoms: C_24  and  C_26
REMARK    7  A    between atoms: C_27  and  C_28
REMARK    8  A    between atoms: C_28  and  C_29
REMARK    9  A    between atoms: C_29  and  O_32
REMARK                            x       y       z     vdW  Elec       q    Type
REMARK                         _______ _______ _______ _____ _____    ______ ____
ROOT
ATOM      1  C   UNL     1     -22.308   1.856  12.029  0.00  0.00    +0.000 C 
ATOM      2  C   UNL     1     -21.055   2.705  12.226  0.00  0.00    +0.000 C 
ATOM      3  C   UNL     1     -21.752   0.573  11.203  0.00  0.00    +0.000 C 
ATOM      4  C   UNL     1     -19.913   1.991  11.755  0.00  0.00    +0.000 C 
ATOM      5  C   UNL     1     -20.326   0.676  11.154  0.00  0.00    +0.000 C 
ATOM      6  C   UNL     1     -23.341   2.482  11.188  0.00  0.00    +0.000 C 
ATOM      7  C   UNL     1     -22.509   0.019  10.074  0.00  0.00    +0.000 C 
ATOM      8  C   UNL     1     -22.835   1.318  13.390  0.00  0.00    +0.000 C 
ATOM      9  C   UNL     1     -24.164   2.185   9.947  0.00  0.00    +0.000 C 
ATOM     10  C   UNL     1     -23.555   0.845   9.584  0.00  0.00    +0.000 C 
ENDROOT
BRANCH   7  11
ATOM     11  C   UNL     1     -22.194  -1.068   9.444  0.00  0.00    +0.000 C 
ATOM     12  C   UNL     1     -21.822  -2.363   8.710  0.00  0.00    +0.000 C 
BRANCH  12  13
ATOM     13  C   UNL     1     -21.512  -3.463   8.096  0.00  0.00    +0.000 A 
ATOM     14  C   UNL     1     -20.143  -3.880   8.037  0.00  0.00    +0.000 A 
ATOM     15  C   UNL     1     -22.446  -4.370   7.355  0.00  0.00    +0.000 A 
ATOM     16  C   UNL     1     -19.486  -4.982   7.417  0.00  0.00    +0.000 A 
ATOM     17  C   UNL     1     -20.484  -5.748   6.749  0.00  0.00    +0.000 A 
ATOM     18  C   UNL     1     -21.893  -5.567   6.649  0.00  0.00    +0.000 A 
ATOM     19  C   UNL     1     -23.772  -4.148   7.310  0.00  0.00    +0.000 C 
BRANCH  16  20
ATOM     20  O   UNL     1     -18.387  -5.561   7.983  0.00  0.00    +0.000 OA
ATOM     21  H   UNL     1     -17.800  -4.893   8.375  0.00  0.00    +0.000 HD
ENDBRANCH  16  20
BRANCH  18  22
ATOM     22  O   UNL     1     -22.701  -6.440   5.959  0.00  0.00    +0.000 OA
ATOM     23  H   UNL     1     -22.531  -7.357   6.247  0.00  0.00    +0.000 HD
ENDBRANCH  18  22
ENDBRANCH  12  13
ENDBRANCH   7  11
BRANCH   2  24
ATOM     24  C   UNL     1     -21.004   3.949  12.926  0.00  0.00    +0.000 C 
ATOM     25  C   UNL     1     -22.161   4.914  12.972  0.00  0.00    +0.000 C 
BRANCH  24  26
ATOM     26  C   UNL     1     -19.784   4.438  13.468  0.00  0.00    +0.000 C 
ATOM     27  C   UNL     1     -18.472   4.959  14.068  0.00  0.00    +0.000 C 
BRANCH  27  28
ATOM     28  C   UNL     1     -17.164   5.477  14.680  0.00  0.00    +0.000 C 
BRANCH  28  29
ATOM     29  C   UNL     1     -15.917   5.973  15.262  0.00  0.00    +0.000 C 
ATOM     30  C   UNL     1     -14.894   6.399  14.202  0.00  0.00    +0.000 C 
ATOM     31  C   UNL     1     -16.133   7.094  16.285  0.00  0.00    +0.000 C 
BRANCH  29  32
ATOM     32  O   UNL     1     -15.299   4.930  15.981  0.00  0.00    +0.000 OA
ATOM     33  H   UNL     1     -15.796   4.186  15.609  0.00  0.00    +0.000 HD
ENDBRANCH  29  32
ENDBRANCH  28  29
ENDBRANCH  27  28
ENDBRANCH  24  26
ENDBRANCH   2  24
TORSDOF 9
ENDMDL
MODEL 9
REMARK VINA RESULT:      -5.8     16.582     20.106
REMARK  Name = Calcitriol.pdbqt.pdb
REMARK  9 active torsions:
REMARK  status: ('A' for Active; 'I' for Inactive)
REMARK    1  A    between atoms: C_2  and  C_24
REMARK    2  A    between atoms: C_7  and  C_11
REMARK    3  A    between atoms: C_12  and  C_13
REMARK    4  A    between atoms: C_16  and  O_20
REMARK    5  A    between atoms: C_18  and  O_22
REMARK    6  A    between atoms: C_24  and  C_26
REMARK    7  A    between atoms: C_27  and  C_28
REMARK    8  A    between atoms: C_28  and  C_29
REMARK    9  A    between atoms: C_29  and  O_32
REMARK                            x       y       z     vdW  Elec       q    Type
REMARK                         _______ _______ _______ _____ _____    ______ ____
ROOT
ATOM      1  C   UNL     1     -21.477  -3.968   7.703  0.00  0.00    +0.000 C 
ATOM      2  C   UNL     1     -22.224  -5.182   8.248  0.00  0.00    +0.000 C 
ATOM      3  C   UNL     1     -21.530  -2.921   8.943  0.00  0.00    +0.000 C 
ATOM      4  C   UNL     1     -22.529  -4.978   9.627  0.00  0.00    +0.000 C 
ATOM      5  C   UNL     1     -22.084  -3.611  10.067  0.00  0.00    +0.000 C 
ATOM      6  C   UNL     1     -22.138  -3.306   6.567  0.00  0.00    +0.000 C 
ATOM      7  C   UNL     1     -21.811  -1.499   8.716  0.00  0.00    +0.000 C 
ATOM      8  C   UNL     1     -19.977  -4.299   7.461  0.00  0.00    +0.000 C 
ATOM      9  C   UNL     1     -22.631  -1.931   6.151  0.00  0.00    +0.000 C 
ATOM     10  C   UNL     1     -22.322  -1.181   7.430  0.00  0.00    +0.000 C 
ENDROOT
BRANCH   7  11
ATOM     11  C   UNL     1     -21.754  -0.585   9.634  0.00  0.00    +0.000 C 
ATOM     12  C   UNL     1     -21.674   0.490  10.725  0.00  0.00    +0.000 C 
BRANCH  12  13
ATOM     13  C   UNL     1     -21.598   1.398  11.649  0.00  0.00    +0.000 A 
ATOM     14  C   UNL     1     -22.541   1.393  12.727  0.00  0.00    +0.000 A 
ATOM     15  C   UNL     1     -20.632   2.541  11.705  0.00  0.00    +0.000 A 
ATOM     16  C   UNL     1     -22.751   2.254  13.842  0.00  0.00    +0.000 A 
ATOM     17  C   UNL     1     -21.777   3.290  13.765  0.00  0.00    +0.000 A 
ATOM     18  C   UNL     1     -20.737   3.532  12.821  0.00  0.00    +0.000 A 
ATOM     19  C   UNL     1     -19.663   2.704  10.786  0.00  0.00    +0.000 C 
BRANCH  16  20
ATOM     20  O   UNL     1     -23.200   1.770  15.037  0.00  0.00    +0.000 OA
ATOM     21  H   UNL     1     -23.217   2.465  15.715  0.00  0.00    +0.000 HD
ENDBRANCH  16  20
BRANCH  18  22
ATOM     22  O   UNL     1     -19.875   4.596  12.930  0.00  0.00    +0.000 OA
ATOM     23  H   UNL     1     -18.975   4.330  12.661  0.00  0.00    +0.000 HD
ENDBRANCH  18  22
ENDBRANCH  12  13
ENDBRANCH   7  11
BRANCH   2  24
ATOM     24  C   UNL     1     -22.438  -6.404   7.540  0.00  0.00    +0.000 C 
ATOM     25  C   UNL     1     -22.576  -7.738   8.227  0.00  0.00    +0.000 C 
BRANCH  24  26
ATOM     26  C   UNL     1     -22.346  -6.457   6.122  0.00  0.00    +0.000 C 
ATOM     27  C   UNL     1     -22.237  -6.501   4.593  0.00  0.00    +0.000 C 
BRANCH  27  28
ATOM     28  C   UNL     1     -22.122  -6.533   3.064  0.00  0.00    +0.000 C 
BRANCH  28  29
ATOM     29  C   UNL     1     -22.009  -6.560   1.606  0.00  0.00    +0.000 C 
ATOM     30  C   UNL     1     -22.054  -5.161   0.979  0.00  0.00    +0.000 C 
ATOM     31  C   UNL     1     -20.783  -7.335   1.109  0.00  0.00    +0.000 C 
BRANCH  29  32
ATOM     32  O   UNL     1     -23.120  -7.245   1.072  0.00  0.00    +0.000 OA
ATOM     33  H   UNL     1     -22.862  -7.230   0.139  0.00  0.00    +0.000 HD
ENDBRANCH  29  32
ENDBRANCH  28  29
ENDBRANCH  27  28
ENDBRANCH  24  26
ENDBRANCH   2  24
TORSDOF 9
ENDMDL
