MODEL 1
REMARK VINA RESULT:      -7.1      0.000      0.000
REMARK  Name = 
REMARK  17 active torsions:
REMARK  status: ('A' for Active; 'I' for Inactive)
REMARK    1  A    between atoms: O_1  and  C_14
REMARK    2  A    between atoms: O_2  and  C_32
REMARK    3  A    between atoms: O_2  and  C_36
REMARK    4  A    between atoms: O_6  and  C_39
REMARK    5  A    between atoms: O_7  and  C_41
REMARK    6  A    between atoms: O_7  and  C_43
REMARK    7  A    between atoms: O_9  and  C_47
REMARK    8  A    between atoms: O_9  and  C_49
REMARK    9  A    between atoms: O_10  and  C_45
REMARK   10  A    between atoms: O_12  and  C_51
REMARK   11  A    between atoms: O_13  and  C_53
REMARK   12  A    between atoms: C_17  and  C_29
REMARK   13  A    between atoms: C_18  and  C_30
REMARK   14  A    between atoms: C_22  and  C_33
REMARK   15  A    between atoms: C_40  and  C_42
REMARK   16  A    between atoms: C_46  and  C_48
REMARK   17  A    between atoms: C_52  and  C_54
REMARK                            x       y       z     vdW  Elec       q    Type
REMARK                         _______ _______ _______ _____ _____    ______ ____
ROOT
ATOM      1  O   UNL     1     -20.625  -3.403   7.458  0.00  0.00    +0.000 OA
ATOM      2  C   UNL     1     -22.025  -3.141   7.422  0.00  0.00    +0.000 C 
ATOM      3  C   UNL     1     -22.792  -4.188   6.609  0.00  0.00    +0.000 C 
ATOM      4  C   UNL     1     -21.907  -5.371   6.250  0.00  0.00    +0.000 C 
ATOM      5  C   UNL     1     -20.316  -4.645   8.102  0.00  0.00    +0.000 C 
ATOM      6  C   UNL     1     -21.000  -5.844   7.404  0.00  0.00    +0.000 C 
ATOM      7  C   UNL     1     -18.794  -4.786   8.078  0.00  0.00    +0.000 C 
ENDROOT
BRANCH   4   8
ATOM      8  O   UNL     1     -22.655  -6.424   5.652  0.00  0.00    +0.000 OA
ATOM      9  H   UNL     1     -22.019  -6.948   5.122  0.00  0.00    +0.000 HD
ENDBRANCH   4   8
BRANCH   2  10
ATOM     10  O   UNL     1     -22.313  -1.820   6.961  0.00  0.00    +0.000 OA
BRANCH  10  29
ATOM     11  C   UNL     1     -24.062   3.467  12.395  0.00  0.00    +0.000 C 
ATOM     12  C   UNL     1     -23.696   2.459  11.272  0.00  0.00    +0.000 C 
ATOM     13  C   UNL     1     -22.169   2.310  11.048  0.00  0.00    +0.000 C 
ATOM     14  C   UNL     1     -23.282   3.254  13.724  0.00  0.00    +0.000 C 
ATOM     15  C   UNL     1     -21.800   1.278   9.905  0.00  0.00    +0.000 C 
ATOM     16  C   UNL     1     -22.627   1.589   8.614  0.00  0.00    +0.000 C 
ATOM     17  C   UNL     1     -21.469   2.023  12.392  0.00  0.00    +0.000 C 
ATOM     18  C   UNL     1     -21.768   3.096  13.439  0.00  0.00    +0.000 C 
ATOM     19  C   UNL     1     -23.602   4.582  14.482  0.00  0.00    +0.000 C 
ATOM     20  C   UNL     1     -24.401   2.810   9.953  0.00  0.00    +0.000 C 
ATOM     21  C   UNL     1     -23.798   4.943  12.049  0.00  0.00    +0.000 C 
ATOM     22  C   UNL     1     -24.132   1.756   8.892  0.00  0.00    +0.000 C 
ATOM     23  C   UNL     1     -23.550   5.661  13.381  0.00  0.00    +0.000 C 
ATOM     24  C   UNL     1     -22.048  -0.193  10.344  0.00  0.00    +0.000 C 
ATOM     25  C   UNL     1     -22.427   0.533   7.508  0.00  0.00    +0.000 C 
ATOM     26  C   UNL     1     -23.789   2.029  14.512  0.00  0.00    +0.000 C 
ATOM     27  C   UNL     1     -20.290   1.449   9.578  0.00  0.00    +0.000 C 
ATOM     28  C   UNL     1     -21.844  -1.212   9.223  0.00  0.00    +0.000 C 
ATOM     29  C   UNL     1     -22.688  -0.898   7.990  0.00  0.00    +0.000 C 
BRANCH  19  32
ATOM     30  O   UNL     1     -22.223   4.847  17.951  0.00  0.00    +0.000 OA
ATOM     31  O   UNL     1     -20.439   6.280  17.760  0.00  0.00    +0.000 OA
ATOM     32  C   UNL     1     -22.795   4.878  15.717  0.00  0.00    +0.000 C 
ATOM     33  C   UNL     1     -23.170   4.302  17.033  0.00  0.00    +0.000 C 
ATOM     34  C   UNL     1     -21.747   5.689  15.865  0.00  0.00    +0.000 C 
ATOM     35  C   UNL     1     -21.371   5.663  17.277  0.00  0.00    +0.000 C 
ENDBRANCH  19  32
BRANCH  11  36
ATOM     36  O   UNL     1     -25.473   3.373  12.653  0.00  0.00    +0.000 OA
ATOM     37  H   UNL     1     -25.952   3.578  11.832  0.00  0.00    +0.000 HD
ENDBRANCH  11  36
ENDBRANCH  10  29
ENDBRANCH   2  10
BRANCH   6  38
ATOM     38  O   UNL     1     -21.468  -6.821   8.339  0.00  0.00    +0.000 OA
BRANCH  38  40
ATOM     39  O   UNL     1     -21.468  -6.631  10.704  0.00  0.00    +0.000 OA
ATOM     40  C   UNL     1     -22.228  -6.543   9.506  0.00  0.00    +0.000 C 
ATOM     41  C   UNL     1     -23.554  -7.287   9.627  0.00  0.00    +0.000 C 
ATOM     42  C   UNL     1     -23.935  -7.567  11.078  0.00  0.00    +0.000 C 
ATOM     43  C   UNL     1     -22.109  -5.915  11.778  0.00  0.00    +0.000 C 
ATOM     44  C   UNL     1     -23.523  -6.471  12.081  0.00  0.00    +0.000 C 
ATOM     45  C   UNL     1     -21.195  -6.041  12.995  0.00  0.00    +0.000 C 
BRANCH  42  46
ATOM     46  O   UNL     1     -25.319  -7.898  11.185  0.00  0.00    +0.000 OA
ATOM     47  H   UNL     1     -25.424  -8.545  11.904  0.00  0.00    +0.000 HD
ENDBRANCH  42  46
BRANCH  44  48
ATOM     48  O   UNL     1     -24.460  -5.421  12.349  0.00  0.00    +0.000 OA
BRANCH  48  50
ATOM     49  O   UNL     1     -24.120  -4.197  14.324  0.00  0.00    +0.000 OA
ATOM     50  C   UNL     1     -23.985  -4.202  12.907  0.00  0.00    +0.000 C 
ATOM     51  C   UNL     1     -24.849  -3.083  12.317  0.00  0.00    +0.000 C 
ATOM     52  C   UNL     1     -24.970  -1.887  13.260  0.00  0.00    +0.000 C 
ATOM     53  C   UNL     1     -23.501  -3.053  14.941  0.00  0.00    +0.000 C 
ATOM     54  C   UNL     1     -23.729  -1.755  14.145  0.00  0.00    +0.000 C 
ATOM     55  C   UNL     1     -24.093  -2.956  16.342  0.00  0.00    +0.000 C 
BRANCH  52  56
ATOM     56  O   UNL     1     -25.118  -0.696  12.477  0.00  0.00    +0.000 OA
ATOM     57  H   UNL     1     -24.465  -0.050  12.802  0.00  0.00    +0.000 HD
ENDBRANCH  52  56
BRANCH  54  58
ATOM     58  O   UNL     1     -22.594  -1.517  13.294  0.00  0.00    +0.000 OA
ATOM     59  H   UNL     1     -22.037  -2.321  13.363  0.00  0.00    +0.000 HD
ENDBRANCH  54  58
ENDBRANCH  48  50
ENDBRANCH  44  48
ENDBRANCH  38  40
ENDBRANCH   6  38
TORSDOF 12
ENDMDL
MODEL 2
REMARK VINA RESULT:      -7.0     27.543     30.218
REMARK  Name = 
REMARK  17 active torsions:
REMARK  status: ('A' for Active; 'I' for Inactive)
REMARK    1  A    between atoms: O_1  and  C_14
REMARK    2  A    between atoms: O_2  and  C_32
REMARK    3  A    between atoms: O_2  and  C_36
REMARK    4  A    between atoms: O_6  and  C_39
REMARK    5  A    between atoms: O_7  and  C_41
REMARK    6  A    between atoms: O_7  and  C_43
REMARK    7  A    between atoms: O_9  and  C_47
REMARK    8  A    between atoms: O_9  and  C_49
REMARK    9  A    between atoms: O_10  and  C_45
REMARK   10  A    between atoms: O_12  and  C_51
REMARK   11  A    between atoms: O_13  and  C_53
REMARK   12  A    between atoms: C_17  and  C_29
REMARK   13  A    between atoms: C_18  and  C_30
REMARK   14  A    between atoms: C_22  and  C_33
REMARK   15  A    between atoms: C_40  and  C_42
REMARK   16  A    between atoms: C_46  and  C_48
REMARK   17  A    between atoms: C_52  and  C_54
REMARK                            x       y       z     vdW  Elec       q    Type
REMARK                         _______ _______ _______ _____ _____    ______ ____
ROOT
ATOM      1  O   UNL     1       3.527 -18.646  14.060  0.00  0.00    +0.000 OA
ATOM      2  C   UNL     1       2.560 -17.651  14.386  0.00  0.00    +0.000 C 
ATOM      3  C   UNL     1       2.007 -16.947  13.144  0.00  0.00    +0.000 C 
ATOM      4  C   UNL     1       2.445 -17.647  11.867  0.00  0.00    +0.000 C 
ATOM      5  C   UNL     1       2.977 -19.706  13.268  0.00  0.00    +0.000 C 
ATOM      6  C   UNL     1       2.373 -19.185  11.942  0.00  0.00    +0.000 C 
ATOM      7  C   UNL     1       4.114 -20.694  13.007  0.00  0.00    +0.000 C 
ENDROOT
BRANCH   4   8
ATOM      8  O   UNL     1       1.792 -17.106  10.723  0.00  0.00    +0.000 OA
ATOM      9  H   UNL     1       1.624 -16.161  10.923  0.00  0.00    +0.000 HD
ENDBRANCH   4   8
BRANCH   2  10
ATOM     10  O   UNL     1       3.060 -16.707  15.334  0.00  0.00    +0.000 OA
BRANCH  10  29
ATOM     11  C   UNL     1       5.924 -10.052  12.495  0.00  0.00    +0.000 C 
ATOM     12  C   UNL     1       5.412 -11.400  13.074  0.00  0.00    +0.000 C 
ATOM     13  C   UNL     1       5.523 -11.492  14.617  0.00  0.00    +0.000 C 
ATOM     14  C   UNL     1       5.357  -8.793  13.210  0.00  0.00    +0.000 C 
ATOM     15  C   UNL     1       4.995 -12.864  15.204  0.00  0.00    +0.000 C 
ATOM     16  C   UNL     1       5.635 -14.061  14.426  0.00  0.00    +0.000 C 
ATOM     17  C   UNL     1       4.873 -10.251  15.264  0.00  0.00    +0.000 C 
ATOM     18  C   UNL     1       5.480  -8.947  14.746  0.00  0.00    +0.000 C 
ATOM     19  C   UNL     1       6.299  -7.677  12.654  0.00  0.00    +0.000 C 
ATOM     20  C   UNL     1       6.112 -12.596  12.412  0.00  0.00    +0.000 C 
ATOM     21  C   UNL     1       7.449  -9.858  12.565  0.00  0.00    +0.000 C 
ATOM     22  C   UNL     1       5.524 -13.911  12.898  0.00  0.00    +0.000 C 
ATOM     23  C   UNL     1       7.689  -8.345  12.621  0.00  0.00    +0.000 C 
ATOM     24  C   UNL     1       3.445 -12.968  15.142  0.00  0.00    +0.000 C 
ATOM     25  C   UNL     1       5.053 -15.426  14.847  0.00  0.00    +0.000 C 
ATOM     26  C   UNL     1       3.887  -8.517  12.835  0.00  0.00    +0.000 C 
ATOM     27  C   UNL     1       5.438 -12.948  16.692  0.00  0.00    +0.000 C 
ATOM     28  C   UNL     1       2.904 -14.334  15.564  0.00  0.00    +0.000 C 
ATOM     29  C   UNL     1       3.524 -15.478  14.764  0.00  0.00    +0.000 C 
BRANCH  19  32
ATOM     30  O   UNL     1       5.818  -4.079  13.562  0.00  0.00    +0.000 OA
ATOM     31  O   UNL     1       6.771  -3.871  15.641  0.00  0.00    +0.000 OA
ATOM     32  C   UNL     1       6.242  -6.333  13.329  0.00  0.00    +0.000 C 
ATOM     33  C   UNL     1       5.634  -5.161  12.651  0.00  0.00    +0.000 C 
ATOM     34  C   UNL     1       6.743  -5.959  14.507  0.00  0.00    +0.000 C 
ATOM     35  C   UNL     1       6.465  -4.533  14.667  0.00  0.00    +0.000 C 
ENDBRANCH  19  32
BRANCH  11  36
ATOM     36  O   UNL     1       5.588  -9.997  11.098  0.00  0.00    +0.000 OA
ATOM     37  H   UNL     1       5.397  -9.073  10.862  0.00  0.00    +0.000 HD
ENDBRANCH  11  36
ENDBRANCH  10  29
ENDBRANCH   2  10
BRANCH   6  38
ATOM     38  O   UNL     1       1.169 -19.872  11.588  0.00  0.00    +0.000 OA
BRANCH  38  40
ATOM     39  O   UNL     1       1.142 -22.160  10.960  0.00  0.00    +0.000 OA
ATOM     40  C   UNL     1       1.037 -20.809  10.530  0.00  0.00    +0.000 C 
ATOM     41  C   UNL     1       1.899 -20.544   9.299  0.00  0.00    +0.000 C 
ATOM     42  C   UNL     1       2.309 -21.829   8.586  0.00  0.00    +0.000 C 
ATOM     43  C   UNL     1       0.559 -23.058   9.996  0.00  0.00    +0.000 C 
ATOM     44  C   UNL     1       1.254 -22.953   8.614  0.00  0.00    +0.000 C 
ATOM     45  C   UNL     1       0.690 -24.465  10.572  0.00  0.00    +0.000 C 
BRANCH  42  46
ATOM     46  O   UNL     1       2.763 -21.554   7.262  0.00  0.00    +0.000 OA
ATOM     47  H   UNL     1       3.257 -22.329   6.941  0.00  0.00    +0.000 HD
ENDBRANCH  42  46
BRANCH  44  48
ATOM     48  O   UNL     1       0.308 -23.011   7.539  0.00  0.00    +0.000 OA
BRANCH  48  50
ATOM     49  O   UNL     1      -1.962 -23.551   7.279  0.00  0.00    +0.000 OA
ATOM     50  C   UNL     1      -1.032 -22.598   7.780  0.00  0.00    +0.000 C 
ATOM     51  C   UNL     1      -1.224 -21.272   7.036  0.00  0.00    +0.000 C 
ATOM     52  C   UNL     1      -2.672 -21.055   6.604  0.00  0.00    +0.000 C 
ATOM     53  C   UNL     1      -3.322 -23.254   7.648  0.00  0.00    +0.000 C 
ATOM     54  C   UNL     1      -3.643 -21.750   7.560  0.00  0.00    +0.000 C 
ATOM     55  C   UNL     1      -4.203 -24.065   6.704  0.00  0.00    +0.000 C 
BRANCH  52  56
ATOM     56  O   UNL     1      -2.945 -19.649   6.597  0.00  0.00    +0.000 OA
ATOM     57  H   UNL     1      -3.353 -19.434   5.738  0.00  0.00    +0.000 HD
ENDBRANCH  52  56
BRANCH  54  58
ATOM     58  O   UNL     1      -3.491 -21.159   8.863  0.00  0.00    +0.000 OA
ATOM     59  H   UNL     1      -3.429 -20.193   8.710  0.00  0.00    +0.000 HD
ENDBRANCH  54  58
ENDBRANCH  48  50
ENDBRANCH  44  48
ENDBRANCH  38  40
ENDBRANCH   6  38
TORSDOF 12
ENDMDL
MODEL 3
REMARK VINA RESULT:      -7.0      3.406      7.349
REMARK  Name = 
REMARK  17 active torsions:
REMARK  status: ('A' for Active; 'I' for Inactive)
REMARK    1  A    between atoms: O_1  and  C_14
REMARK    2  A    between atoms: O_2  and  C_32
REMARK    3  A    between atoms: O_2  and  C_36
REMARK    4  A    between atoms: O_6  and  C_39
REMARK    5  A    between atoms: O_7  and  C_41
REMARK    6  A    between atoms: O_7  and  C_43
REMARK    7  A    between atoms: O_9  and  C_47
REMARK    8  A    between atoms: O_9  and  C_49
REMARK    9  A    between atoms: O_10  and  C_45
REMARK   10  A    between atoms: O_12  and  C_51
REMARK   11  A    between atoms: O_13  and  C_53
REMARK   12  A    between atoms: C_17  and  C_29
REMARK   13  A    between atoms: C_18  and  C_30
REMARK   14  A    between atoms: C_22  and  C_33
REMARK   15  A    between atoms: C_40  and  C_42
REMARK   16  A    between atoms: C_46  and  C_48
REMARK   17  A    between atoms: C_52  and  C_54
REMARK                            x       y       z     vdW  Elec       q    Type
REMARK                         _______ _______ _______ _____ _____    ______ ____
ROOT
ATOM      1  O   UNL     1     -24.484  -4.395  13.089  0.00  0.00    +0.000 OA
ATOM      2  C   UNL     1     -23.593  -3.881  14.076  0.00  0.00    +0.000 C 
ATOM      3  C   UNL     1     -22.522  -4.898  14.479  0.00  0.00    +0.000 C 
ATOM      4  C   UNL     1     -22.527  -6.107  13.557  0.00  0.00    +0.000 C 
ATOM      5  C   UNL     1     -23.818  -4.712  11.861  0.00  0.00    +0.000 C 
ATOM      6  C   UNL     1     -22.692  -5.754  12.065  0.00  0.00    +0.000 C 
ATOM      7  C   UNL     1     -24.887  -5.236  10.903  0.00  0.00    +0.000 C 
ENDROOT
BRANCH   4   8
ATOM      8  O   UNL     1     -21.424  -6.968  13.815  0.00  0.00    +0.000 OA
ATOM      9  H   UNL     1     -21.684  -7.529  14.576  0.00  0.00    +0.000 HD
ENDBRANCH   4   8
BRANCH   2  10
ATOM     10  O   UNL     1     -24.288  -3.384  15.220  0.00  0.00    +0.000 OA
BRANCH  10  29
ATOM     11  C   UNL     1     -20.449   1.441  19.966  0.00  0.00    +0.000 C 
ATOM     12  C   UNL     1     -21.236   0.447  19.070  0.00  0.00    +0.000 C 
ATOM     13  C   UNL     1     -22.771   0.665  19.104  0.00  0.00    +0.000 C 
ATOM     14  C   UNL     1     -20.844   2.932  19.766  0.00  0.00    +0.000 C 
ATOM     15  C   UNL     1     -23.569  -0.347  18.185  0.00  0.00    +0.000 C 
ATOM     16  C   UNL     1     -23.107  -1.814  18.475  0.00  0.00    +0.000 C 
ATOM     17  C   UNL     1     -23.095   2.146  18.821  0.00  0.00    +0.000 C 
ATOM     18  C   UNL     1     -22.384   3.088  19.793  0.00  0.00    +0.000 C 
ATOM     19  C   UNL     1     -20.164   3.596  21.006  0.00  0.00    +0.000 C 
ATOM     20  C   UNL     1     -20.893  -1.011  19.415  0.00  0.00    +0.000 C 
ATOM     21  C   UNL     1     -20.617   1.218  21.480  0.00  0.00    +0.000 C 
ATOM     22  C   UNL     1     -21.576  -1.974  18.458  0.00  0.00    +0.000 C 
ATOM     23  C   UNL     1     -20.391   2.581  22.144  0.00  0.00    +0.000 C 
ATOM     24  C   UNL     1     -23.390  -0.031  16.674  0.00  0.00    +0.000 C 
ATOM     25  C   UNL     1     -23.737  -2.840  17.512  0.00  0.00    +0.000 C 
ATOM     26  C   UNL     1     -20.289   3.514  18.450  0.00  0.00    +0.000 C 
ATOM     27  C   UNL     1     -25.078  -0.225  18.540  0.00  0.00    +0.000 C 
ATOM     28  C   UNL     1     -24.024  -1.069  15.749  0.00  0.00    +0.000 C 
ATOM     29  C   UNL     1     -23.529  -2.485  16.036  0.00  0.00    +0.000 C 
BRANCH  19  32
ATOM     30  O   UNL     1     -21.604   6.750  22.414  0.00  0.00    +0.000 OA
ATOM     31  O   UNL     1     -20.873   8.406  21.000  0.00  0.00    +0.000 OA
ATOM     32  C   UNL     1     -20.549   5.017  21.319  0.00  0.00    +0.000 C 
ATOM     33  C   UNL     1     -21.419   5.337  22.479  0.00  0.00    +0.000 C 
ATOM     34  C   UNL     1     -20.275   6.134  20.643  0.00  0.00    +0.000 C 
ATOM     35  C   UNL     1     -20.930   7.238  21.340  0.00  0.00    +0.000 C 
ENDBRANCH  19  32
BRANCH  11  36
ATOM     36  O   UNL     1     -19.044   1.282  19.703  0.00  0.00    +0.000 OA
ATOM     37  H   UNL     1     -18.578   1.194  20.551  0.00  0.00    +0.000 HD
ENDBRANCH  11  36
ENDBRANCH  10  29
ENDBRANCH   2  10
BRANCH   6  38
ATOM     38  O   UNL     1     -21.544  -5.477  11.257  0.00  0.00    +0.000 OA
BRANCH  38  40
ATOM     39  O   UNL     1     -22.066  -6.570   9.216  0.00  0.00    +0.000 OA
ATOM     40  C   UNL     1     -21.535  -5.408   9.838  0.00  0.00    +0.000 C 
ATOM     41  C   UNL     1     -20.214  -4.986   9.203  0.00  0.00    +0.000 C 
ATOM     42  C   UNL     1     -19.999  -5.616   7.830  0.00  0.00    +0.000 C 
ATOM     43  C   UNL     1     -22.468  -6.295   7.860  0.00  0.00    +0.000 C 
ATOM     44  C   UNL     1     -21.280  -5.804   6.994  0.00  0.00    +0.000 C 
ATOM     45  C   UNL     1     -23.055  -7.591   7.305  0.00  0.00    +0.000 C 
BRANCH  42  46
ATOM     46  O   UNL     1     -18.983  -4.924   7.107  0.00  0.00    +0.000 OA
ATOM     47  H   UNL     1     -19.340  -4.685   6.233  0.00  0.00    +0.000 HD
ENDBRANCH  42  46
BRANCH  44  48
ATOM     48  O   UNL     1     -21.669  -4.741   6.115  0.00  0.00    +0.000 OA
BRANCH  48  50
ATOM     49  O   UNL     1     -23.508  -3.424   5.485  0.00  0.00    +0.000 OA
ATOM     50  C   UNL     1     -22.652  -3.812   6.554  0.00  0.00    +0.000 C 
ATOM     51  C   UNL     1     -21.897  -2.580   7.064  0.00  0.00    +0.000 C 
ATOM     52  C   UNL     1     -22.712  -1.297   6.911  0.00  0.00    +0.000 C 
ATOM     53  C   UNL     1     -24.616  -2.615   5.920  0.00  0.00    +0.000 C 
ATOM     54  C   UNL     1     -24.213  -1.584   6.991  0.00  0.00    +0.000 C 
ATOM     55  C   UNL     1     -25.158  -1.931   4.670  0.00  0.00    +0.000 C 
BRANCH  52  56
ATOM     56  O   UNL     1     -22.350  -0.393   7.963  0.00  0.00    +0.000 OA
ATOM     57  H   UNL     1     -22.572   0.507   7.664  0.00  0.00    +0.000 HD
ENDBRANCH  52  56
BRANCH  54  58
ATOM     58  O   UNL     1     -24.498  -2.122   8.295  0.00  0.00    +0.000 OA
ATOM     59  H   UNL     1     -25.267  -2.717   8.174  0.00  0.00    +0.000 HD
ENDBRANCH  54  58
ENDBRANCH  48  50
ENDBRANCH  44  48
ENDBRANCH  38  40
ENDBRANCH   6  38
TORSDOF 12
ENDMDL
MODEL 4
REMARK VINA RESULT:      -7.0     16.092     19.123
REMARK  Name = 
REMARK  17 active torsions:
REMARK  status: ('A' for Active; 'I' for Inactive)
REMARK    1  A    between atoms: O_1  and  C_14
REMARK    2  A    between atoms: O_2  and  C_32
REMARK    3  A    between atoms: O_2  and  C_36
REMARK    4  A    between atoms: O_6  and  C_39
REMARK    5  A    between atoms: O_7  and  C_41
REMARK    6  A    between atoms: O_7  and  C_43
REMARK    7  A    between atoms: O_9  and  C_47
REMARK    8  A    between atoms: O_9  and  C_49
REMARK    9  A    between atoms: O_10  and  C_45
REMARK   10  A    between atoms: O_12  and  C_51
REMARK   11  A    between atoms: O_13  and  C_53
REMARK   12  A    between atoms: C_17  and  C_29
REMARK   13  A    between atoms: C_18  and  C_30
REMARK   14  A    between atoms: C_22  and  C_33
REMARK   15  A    between atoms: C_40  and  C_42
REMARK   16  A    between atoms: C_46  and  C_48
REMARK   17  A    between atoms: C_52  and  C_54
REMARK                            x       y       z     vdW  Elec       q    Type
REMARK                         _______ _______ _______ _____ _____    ______ ____
ROOT
ATOM      1  O   UNL     1      -7.833  -6.059  25.796  0.00  0.00    +0.000 OA
ATOM      2  C   UNL     1      -8.535  -5.120  24.986  0.00  0.00    +0.000 C 
ATOM      3  C   UNL     1      -9.907  -5.641  24.548  0.00  0.00    +0.000 C 
ATOM      4  C   UNL     1     -10.277  -6.920  25.283  0.00  0.00    +0.000 C 
ATOM      5  C   UNL     1      -8.513  -6.339  27.026  0.00  0.00    +0.000 C 
ATOM      6  C   UNL     1      -9.936  -6.898  26.786  0.00  0.00    +0.000 C 
ATOM      7  C   UNL     1      -7.647  -7.342  27.789  0.00  0.00    +0.000 C 
ENDROOT
BRANCH   4   8
ATOM      8  O   UNL     1     -11.619  -7.309  25.014  0.00  0.00    +0.000 OA
ATOM      9  H   UNL     1     -11.637  -7.612  24.082  0.00  0.00    +0.000 HD
ENDBRANCH   4   8
BRANCH   2  10
ATOM     10  O   UNL     1      -7.763  -4.698  23.862  0.00  0.00    +0.000 OA
BRANCH  10  29
ATOM     11  C   UNL     1      -8.937   2.509  21.173  0.00  0.00    +0.000 C 
ATOM     12  C   UNL     1      -8.670   1.057  21.656  0.00  0.00    +0.000 C 
ATOM     13  C   UNL     1      -7.203   0.810  22.090  0.00  0.00    +0.000 C 
ATOM     14  C   UNL     1      -8.406   3.610  22.133  0.00  0.00    +0.000 C 
ATOM     15  C   UNL     1      -6.937  -0.670  22.588  0.00  0.00    +0.000 C 
ATOM     16  C   UNL     1      -7.496  -1.694  21.545  0.00  0.00    +0.000 C 
ATOM     17  C   UNL     1      -6.767   1.890  23.101  0.00  0.00    +0.000 C 
ATOM     18  C   UNL     1      -6.945   3.304  22.545  0.00  0.00    +0.000 C 
ATOM     19  C   UNL     1      -8.507   4.879  21.228  0.00  0.00    +0.000 C 
ATOM     20  C   UNL     1      -9.100   0.027  20.600  0.00  0.00    +0.000 C 
ATOM     21  C   UNL     1      -8.299   2.865  19.818  0.00  0.00    +0.000 C 
ATOM     22  C   UNL     1      -8.945  -1.391  21.125  0.00  0.00    +0.000 C 
ATOM     23  C   UNL     1      -8.067   4.381  19.836  0.00  0.00    +0.000 C 
ATOM     24  C   UNL     1      -7.571  -0.941  23.981  0.00  0.00    +0.000 C 
ATOM     25  C   UNL     1      -7.403  -3.154  22.035  0.00  0.00    +0.000 C 
ATOM     26  C   UNL     1      -9.278   3.758  23.396  0.00  0.00    +0.000 C 
ATOM     27  C   UNL     1      -5.398  -0.866  22.697  0.00  0.00    +0.000 C 
ATOM     28  C   UNL     1      -7.462  -2.397  24.432  0.00  0.00    +0.000 C 
ATOM     29  C   UNL     1      -8.046  -3.369  23.408  0.00  0.00    +0.000 C 
BRANCH  19  32
ATOM     30  O   UNL     1      -6.197   7.760  21.839  0.00  0.00    +0.000 OA
ATOM     31  O   UNL     1      -7.092   8.848  23.653  0.00  0.00    +0.000 OA
ATOM     32  C   UNL     1      -7.820   6.126  21.716  0.00  0.00    +0.000 C 
ATOM     33  C   UNL     1      -6.571   6.612  21.078  0.00  0.00    +0.000 C 
ATOM     34  C   UNL     1      -8.126   6.907  22.753  0.00  0.00    +0.000 C 
ATOM     35  C   UNL     1      -7.108   7.953  22.828  0.00  0.00    +0.000 C 
ENDBRANCH  19  32
BRANCH  11  36
ATOM     36  O   UNL     1     -10.354   2.679  20.992  0.00  0.00    +0.000 OA
ATOM     37  H   UNL     1     -10.765   2.795  21.866  0.00  0.00    +0.000 HD
ENDBRANCH  11  36
ENDBRANCH  10  29
ENDBRANCH   2  10
BRANCH   6  38
ATOM     38  O   UNL     1     -10.882  -6.396  27.735  0.00  0.00    +0.000 OA
BRANCH  38  40
ATOM     39  O   UNL     1     -10.439  -4.151  28.365  0.00  0.00    +0.000 OA
ATOM     40  C   UNL     1     -11.365  -5.061  27.787  0.00  0.00    +0.000 C 
ATOM     41  C   UNL     1     -12.764  -4.885  28.371  0.00  0.00    +0.000 C 
ATOM     42  C   UNL     1     -12.934  -3.547  29.083  0.00  0.00    +0.000 C 
ATOM     43  C   UNL     1     -10.744  -2.794  27.991  0.00  0.00    +0.000 C 
ATOM     44  C   UNL     1     -12.162  -2.371  28.451  0.00  0.00    +0.000 C 
ATOM     45  C   UNL     1      -9.672  -1.912  28.628  0.00  0.00    +0.000 C 
BRANCH  42  46
ATOM     46  O   UNL     1     -14.315  -3.242  29.270  0.00  0.00    +0.000 OA
ATOM     47  H   UNL     1     -14.495  -2.378  28.859  0.00  0.00    +0.000 HD
ENDBRANCH  42  46
BRANCH  44  48
ATOM     48  O   UNL     1     -12.832  -1.588  27.455  0.00  0.00    +0.000 OA
BRANCH  48  50
ATOM     49  O   UNL     1     -12.118  -0.429  25.542  0.00  0.00    +0.000 OA
ATOM     50  C   UNL     1     -12.419  -1.703  26.099  0.00  0.00    +0.000 C 
ATOM     51  C   UNL     1     -13.594  -2.320  25.333  0.00  0.00    +0.000 C 
ATOM     52  C   UNL     1     -13.621  -1.889  23.868  0.00  0.00    +0.000 C 
ATOM     53  C   UNL     1     -11.540  -0.515  24.226  0.00  0.00    +0.000 C 
ATOM     54  C   UNL     1     -12.210  -1.593  23.354  0.00  0.00    +0.000 C 
ATOM     55  C   UNL     1     -11.689   0.870  23.607  0.00  0.00    +0.000 C 
BRANCH  52  56
ATOM     56  O   UNL     1     -14.193  -2.945  23.087  0.00  0.00    +0.000 OA
ATOM     57  H   UNL     1     -14.323  -2.603  22.184  0.00  0.00    +0.000 HD
ENDBRANCH  52  56
BRANCH  54  58
ATOM     58  O   UNL     1     -11.441  -2.807  23.430  0.00  0.00    +0.000 OA
ATOM     59  H   UNL     1     -11.066  -2.940  22.535  0.00  0.00    +0.000 HD
ENDBRANCH  54  58
ENDBRANCH  48  50
ENDBRANCH  44  48
ENDBRANCH  38  40
ENDBRANCH   6  38
TORSDOF 12
ENDMDL
MODEL 5
REMARK VINA RESULT:      -6.9     23.200     27.840
REMARK  Name = 
REMARK  17 active torsions:
REMARK  status: ('A' for Active; 'I' for Inactive)
REMARK    1  A    between atoms: O_1  and  C_14
REMARK    2  A    between atoms: O_2  and  C_32
REMARK    3  A    between atoms: O_2  and  C_36
REMARK    4  A    between atoms: O_6  and  C_39
REMARK    5  A    between atoms: O_7  and  C_41
REMARK    6  A    between atoms: O_7  and  C_43
REMARK    7  A    between atoms: O_9  and  C_47
REMARK    8  A    between atoms: O_9  and  C_49
REMARK    9  A    between atoms: O_10  and  C_45
REMARK   10  A    between atoms: O_12  and  C_51
REMARK   11  A    between atoms: O_13  and  C_53
REMARK   12  A    between atoms: C_17  and  C_29
REMARK   13  A    between atoms: C_18  and  C_30
REMARK   14  A    between atoms: C_22  and  C_33
REMARK   15  A    between atoms: C_40  and  C_42
REMARK   16  A    between atoms: C_46  and  C_48
REMARK   17  A    between atoms: C_52  and  C_54
REMARK                            x       y       z     vdW  Elec       q    Type
REMARK                         _______ _______ _______ _____ _____    ______ ____
ROOT
ATOM      1  O   UNL     1      -1.910 -15.655  22.569  0.00  0.00    +0.000 OA
ATOM      2  C   UNL     1      -1.334 -15.179  21.356  0.00  0.00    +0.000 C 
ATOM      3  C   UNL     1      -1.806 -15.973  20.136  0.00  0.00    +0.000 C 
ATOM      4  C   UNL     1      -2.951 -16.910  20.491  0.00  0.00    +0.000 C 
ATOM      5  C   UNL     1      -3.336 -15.519  22.590  0.00  0.00    +0.000 C 
ATOM      6  C   UNL     1      -4.007 -16.279  21.421  0.00  0.00    +0.000 C 
ATOM      7  C   UNL     1      -3.809 -16.054  23.941  0.00  0.00    +0.000 C 
ENDROOT
BRANCH   4   8
ATOM      8  O   UNL     1      -3.511 -17.517  19.331  0.00  0.00    +0.000 OA
ATOM      9  H   UNL     1      -2.759 -17.899  18.831  0.00  0.00    +0.000 HD
ENDBRANCH   4   8
BRANCH   2  10
ATOM     10  O   UNL     1       0.092 -15.134  21.420  0.00  0.00    +0.000 OA
BRANCH  10  29
ATOM     11  C   UNL     1       4.025 -15.031  14.707  0.00  0.00    +0.000 C 
ATOM     12  C   UNL     1       3.289 -15.081  16.074  0.00  0.00    +0.000 C 
ATOM     13  C   UNL     1       3.863 -14.092  17.121  0.00  0.00    +0.000 C 
ATOM     14  C   UNL     1       4.212 -13.597  14.134  0.00  0.00    +0.000 C 
ATOM     15  C   UNL     1       3.106 -14.142  18.511  0.00  0.00    +0.000 C 
ATOM     16  C   UNL     1       2.985 -15.623  19.002  0.00  0.00    +0.000 C 
ATOM     17  C   UNL     1       3.947 -12.677  16.513  0.00  0.00    +0.000 C 
ATOM     18  C   UNL     1       4.770 -12.652  15.225  0.00  0.00    +0.000 C 
ATOM     19  C   UNL     1       5.248 -13.857  12.994  0.00  0.00    +0.000 C 
ATOM     20  C   UNL     1       3.259 -16.508  16.641  0.00  0.00    +0.000 C 
ATOM     21  C   UNL     1       5.451 -15.609  14.720  0.00  0.00    +0.000 C 
ATOM     22  C   UNL     1       2.438 -16.571  17.919  0.00  0.00    +0.000 C 
ATOM     23  C   UNL     1       6.217 -14.894  13.600  0.00  0.00    +0.000 C 
ATOM     24  C   UNL     1       1.693 -13.500  18.431  0.00  0.00    +0.000 C 
ATOM     25  C   UNL     1       2.130 -15.761  20.278  0.00  0.00    +0.000 C 
ATOM     26  C   UNL     1       2.900 -13.016  13.569  0.00  0.00    +0.000 C 
ATOM     27  C   UNL     1       3.955 -13.347  19.543  0.00  0.00    +0.000 C 
ATOM     28  C   UNL     1       0.873 -13.657  19.712  0.00  0.00    +0.000 C 
ATOM     29  C   UNL     1       0.747 -15.116  20.147  0.00  0.00    +0.000 C 
BRANCH  19  32
ATOM     30  O   UNL     1       6.031 -10.611  11.306  0.00  0.00    +0.000 OA
ATOM     31  O   UNL     1       8.316 -10.609  11.079  0.00  0.00    +0.000 OA
ATOM     32  C   UNL     1       5.898 -12.652  12.370  0.00  0.00    +0.000 C 
ATOM     33  C   UNL     1       5.083 -11.517  11.868  0.00  0.00    +0.000 C 
ATOM     34  C   UNL     1       7.186 -12.429  12.107  0.00  0.00    +0.000 C 
ATOM     35  C   UNL     1       7.279 -11.130  11.444  0.00  0.00    +0.000 C 
ENDBRANCH  19  32
BRANCH  11  36
ATOM     36  O   UNL     1       3.290 -15.828  13.762  0.00  0.00    +0.000 OA
ATOM     37  H   UNL     1       3.525 -16.763  13.896  0.00  0.00    +0.000 HD
ENDBRANCH  11  36
ENDBRANCH  10  29
ENDBRANCH   2  10
BRANCH   6  38
ATOM     38  O   UNL     1      -5.117 -15.561  20.874  0.00  0.00    +0.000 OA
BRANCH  38  40
ATOM     39  O   UNL     1      -6.877 -16.320  22.273  0.00  0.00    +0.000 OA
ATOM     40  C   UNL     1      -6.477 -15.962  20.957  0.00  0.00    +0.000 C 
ATOM     41  C   UNL     1      -6.926 -16.999  19.932  0.00  0.00    +0.000 C 
ATOM     42  C   UNL     1      -8.026 -17.911  20.469  0.00  0.00    +0.000 C 
ATOM     43  C   UNL     1      -8.310 -16.267  22.412  0.00  0.00    +0.000 C 
ATOM     44  C   UNL     1      -9.023 -17.231  21.430  0.00  0.00    +0.000 C 
ATOM     45  C   UNL     1      -8.624 -16.627  23.862  0.00  0.00    +0.000 C 
BRANCH  42  46
ATOM     46  O   UNL     1      -8.688 -18.591  19.404  0.00  0.00    +0.000 OA
ATOM     47  H   UNL     1      -9.458 -18.060  19.135  0.00  0.00    +0.000 HD
ENDBRANCH  42  46
BRANCH  44  48
ATOM     48  O   UNL     1     -10.200 -16.640  20.865  0.00  0.00    +0.000 OA
BRANCH  48  50
ATOM     49  O   UNL     1     -11.583 -18.429  20.235  0.00  0.00    +0.000 OA
ATOM     50  C   UNL     1     -11.454 -17.281  21.065  0.00  0.00    +0.000 C 
ATOM     51  C   UNL     1     -12.533 -16.262  20.684  0.00  0.00    +0.000 C 
ATOM     52  C   UNL     1     -13.807 -16.932  20.174  0.00  0.00    +0.000 C 
ATOM     53  C   UNL     1     -12.765 -19.198  20.524  0.00  0.00    +0.000 C 
ATOM     54  C   UNL     1     -13.994 -18.314  20.805  0.00  0.00    +0.000 C 
ATOM     55  C   UNL     1     -12.993 -20.095  19.312  0.00  0.00    +0.000 C 
BRANCH  52  56
ATOM     56  O   UNL     1     -14.929 -16.107  20.512  0.00  0.00    +0.000 OA
ATOM     57  H   UNL     1     -15.736 -16.616  20.316  0.00  0.00    +0.000 HD
ENDBRANCH  52  56
BRANCH  54  58
ATOM     58  O   UNL     1     -14.137 -18.144  22.226  0.00  0.00    +0.000 OA
ATOM     59  H   UNL     1     -13.273 -18.397  22.613  0.00  0.00    +0.000 HD
ENDBRANCH  54  58
ENDBRANCH  48  50
ENDBRANCH  44  48
ENDBRANCH  38  40
ENDBRANCH   6  38
TORSDOF 12
ENDMDL
MODEL 6
REMARK VINA RESULT:      -6.9     16.495     21.363
REMARK  Name = 
REMARK  17 active torsions:
REMARK  status: ('A' for Active; 'I' for Inactive)
REMARK    1  A    between atoms: O_1  and  C_14
REMARK    2  A    between atoms: O_2  and  C_32
REMARK    3  A    between atoms: O_2  and  C_36
REMARK    4  A    between atoms: O_6  and  C_39
REMARK    5  A    between atoms: O_7  and  C_41
REMARK    6  A    between atoms: O_7  and  C_43
REMARK    7  A    between atoms: O_9  and  C_47
REMARK    8  A    between atoms: O_9  and  C_49
REMARK    9  A    between atoms: O_10  and  C_45
REMARK   10  A    between atoms: O_12  and  C_51
REMARK   11  A    between atoms: O_13  and  C_53
REMARK   12  A    between atoms: C_17  and  C_29
REMARK   13  A    between atoms: C_18  and  C_30
REMARK   14  A    between atoms: C_22  and  C_33
REMARK   15  A    between atoms: C_40  and  C_42
REMARK   16  A    between atoms: C_46  and  C_48
REMARK   17  A    between atoms: C_52  and  C_54
REMARK                            x       y       z     vdW  Elec       q    Type
REMARK                         _______ _______ _______ _____ _____    ______ ____
ROOT
ATOM      1  O   UNL     1      -8.188   0.450  22.326  0.00  0.00    +0.000 OA
ATOM      2  C   UNL     1      -8.377   0.393  20.915  0.00  0.00    +0.000 C 
ATOM      3  C   UNL     1      -9.377   1.441  20.419  0.00  0.00    +0.000 C 
ATOM      4  C   UNL     1      -9.733   2.433  21.515  0.00  0.00    +0.000 C 
ATOM      5  C   UNL     1      -7.632   1.699  22.756  0.00  0.00    +0.000 C 
ATOM      6  C   UNL     1      -8.524   2.898  22.353  0.00  0.00    +0.000 C 
ATOM      7  C   UNL     1      -7.476   1.613  24.273  0.00  0.00    +0.000 C 
ENDROOT
BRANCH   4   8
ATOM      8  O   UNL     1     -10.520   3.508  21.014  0.00  0.00    +0.000 OA
ATOM      9  H   UNL     1     -10.386   4.258  21.631  0.00  0.00    +0.000 HD
ENDBRANCH   4   8
BRANCH   2  10
ATOM     10  O   UNL     1      -8.741  -0.915  20.474  0.00  0.00    +0.000 OA
BRANCH  10  29
ATOM     11  C   UNL     1     -10.350  -6.240  25.915  0.00  0.00    +0.000 C 
ATOM     12  C   UNL     1      -9.993  -5.221  24.799  0.00  0.00    +0.000 C 
ATOM     13  C   UNL     1     -10.686  -5.517  23.445  0.00  0.00    +0.000 C 
ATOM     14  C   UNL     1     -11.874  -6.508  26.071  0.00  0.00    +0.000 C 
ATOM     15  C   UNL     1     -10.323  -4.472  22.312  0.00  0.00    +0.000 C 
ATOM     16  C   UNL     1      -8.771  -4.288  22.230  0.00  0.00    +0.000 C 
ATOM     17  C   UNL     1     -12.203  -5.693  23.661  0.00  0.00    +0.000 C 
ATOM     18  C   UNL     1     -12.516  -6.782  24.689  0.00  0.00    +0.000 C 
ATOM     19  C   UNL     1     -11.869  -7.780  26.979  0.00  0.00    +0.000 C 
ATOM     20  C   UNL     1      -8.472  -5.106  24.612  0.00  0.00    +0.000 C 
ATOM     21  C   UNL     1      -9.750  -7.644  25.722  0.00  0.00    +0.000 C 
ATOM     22  C   UNL     1      -8.126  -4.024  23.602  0.00  0.00    +0.000 C 
ATOM     23  C   UNL     1     -10.693  -8.619  26.438  0.00  0.00    +0.000 C 
ATOM     24  C   UNL     1     -11.002  -3.094  22.549  0.00  0.00    +0.000 C 
ATOM     25  C   UNL     1      -8.354  -3.174  21.248  0.00  0.00    +0.000 C 
ATOM     26  C   UNL     1     -12.608  -5.339  26.758  0.00  0.00    +0.000 C 
ATOM     27  C   UNL     1     -10.825  -5.045  20.957  0.00  0.00    +0.000 C 
ATOM     28  C   UNL     1     -10.563  -2.014  21.560  0.00  0.00    +0.000 C 
ATOM     29  C   UNL     1      -9.047  -1.837  21.527  0.00  0.00    +0.000 C 
BRANCH  19  32
ATOM     30  O   UNL     1     -14.744 -10.168  26.790  0.00  0.00    +0.000 OA
ATOM     31  O   UNL     1     -16.401  -9.183  28.038  0.00  0.00    +0.000 OA
ATOM     32  C   UNL     1     -13.172  -8.517  27.134  0.00  0.00    +0.000 C 
ATOM     33  C   UNL     1     -13.401  -9.819  26.458  0.00  0.00    +0.000 C 
ATOM     34  C   UNL     1     -14.280  -8.145  27.776  0.00  0.00    +0.000 C 
ATOM     35  C   UNL     1     -15.276  -9.194  27.573  0.00  0.00    +0.000 C 
ENDBRANCH  19  32
BRANCH  11  36
ATOM     36  O   UNL     1      -9.822  -5.759  27.163  0.00  0.00    +0.000 OA
ATOM     37  H   UNL     1      -9.980  -6.432  27.846  0.00  0.00    +0.000 HD
ENDBRANCH  11  36
ENDBRANCH  10  29
ENDBRANCH   2  10
BRANCH   6  38
ATOM     38  O   UNL     1      -7.755   4.033  21.944  0.00  0.00    +0.000 OA
BRANCH  38  40
ATOM     39  O   UNL     1      -5.688   5.160  21.644  0.00  0.00    +0.000 OA
ATOM     40  C   UNL     1      -6.447   3.984  21.394  0.00  0.00    +0.000 C 
ATOM     41  C   UNL     1      -6.358   3.560  19.931  0.00  0.00    +0.000 C 
ATOM     42  C   UNL     1      -5.182   4.209  19.207  0.00  0.00    +0.000 C 
ATOM     43  C   UNL     1      -4.277   4.908  21.498  0.00  0.00    +0.000 C 
ATOM     44  C   UNL     1      -3.922   4.420  20.071  0.00  0.00    +0.000 C 
ATOM     45  C   UNL     1      -3.562   6.217  21.826  0.00  0.00    +0.000 C 
BRANCH  42  46
ATOM     46  O   UNL     1      -4.889   3.518  17.993  0.00  0.00    +0.000 OA
ATOM     47  H   UNL     1      -4.163   3.985  17.544  0.00  0.00    +0.000 HD
ENDBRANCH  42  46
BRANCH  44  48
ATOM     48  O   UNL     1      -2.944   3.372  20.096  0.00  0.00    +0.000 OA
BRANCH  48  50
ATOM     49  O   UNL     1      -1.380   2.750  21.734  0.00  0.00    +0.000 OA
ATOM     50  C   UNL     1      -2.735   2.658  21.308  0.00  0.00    +0.000 C 
ATOM     51  C   UNL     1      -3.069   1.191  21.017  0.00  0.00    +0.000 C 
ATOM     52  C   UNL     1      -2.279   0.230  21.903  0.00  0.00    +0.000 C 
ATOM     53  C   UNL     1      -1.162   2.182  23.038  0.00  0.00    +0.000 C 
ATOM     54  C   UNL     1      -1.943   0.872  23.251  0.00  0.00    +0.000 C 
ATOM     55  C   UNL     1       0.341   1.956  23.156  0.00  0.00    +0.000 C 
BRANCH  52  56
ATOM     56  O   UNL     1      -3.068  -0.945  22.126  0.00  0.00    +0.000 OA
ATOM     57  H   UNL     1      -2.601  -1.693  21.712  0.00  0.00    +0.000 HD
ENDBRANCH  52  56
BRANCH  54  58
ATOM     58  O   UNL     1      -3.178   1.164  23.929  0.00  0.00    +0.000 OA
ATOM     59  H   UNL     1      -3.160   2.127  24.111  0.00  0.00    +0.000 HD
ENDBRANCH  54  58
ENDBRANCH  48  50
ENDBRANCH  44  48
ENDBRANCH  38  40
ENDBRANCH   6  38
TORSDOF 12
ENDMDL
MODEL 7
REMARK VINA RESULT:      -6.8      1.842      3.081
REMARK  Name = 
REMARK  17 active torsions:
REMARK  status: ('A' for Active; 'I' for Inactive)
REMARK    1  A    between atoms: O_1  and  C_14
REMARK    2  A    between atoms: O_2  and  C_32
REMARK    3  A    between atoms: O_2  and  C_36
REMARK    4  A    between atoms: O_6  and  C_39
REMARK    5  A    between atoms: O_7  and  C_41
REMARK    6  A    between atoms: O_7  and  C_43
REMARK    7  A    between atoms: O_9  and  C_47
REMARK    8  A    between atoms: O_9  and  C_49
REMARK    9  A    between atoms: O_10  and  C_45
REMARK   10  A    between atoms: O_12  and  C_51
REMARK   11  A    between atoms: O_13  and  C_53
REMARK   12  A    between atoms: C_17  and  C_29
REMARK   13  A    between atoms: C_18  and  C_30
REMARK   14  A    between atoms: C_22  and  C_33
REMARK   15  A    between atoms: C_40  and  C_42
REMARK   16  A    between atoms: C_46  and  C_48
REMARK   17  A    between atoms: C_52  and  C_54
REMARK                            x       y       z     vdW  Elec       q    Type
REMARK                         _______ _______ _______ _____ _____    ______ ____
ROOT
ATOM      1  O   UNL     1     -20.565  -3.584   7.351  0.00  0.00    +0.000 OA
ATOM      2  C   UNL     1     -21.961  -3.310   7.266  0.00  0.00    +0.000 C 
ATOM      3  C   UNL     1     -22.717  -4.382   6.476  0.00  0.00    +0.000 C 
ATOM      4  C   UNL     1     -21.835  -5.588   6.189  0.00  0.00    +0.000 C 
ATOM      5  C   UNL     1     -20.286  -4.802   8.052  0.00  0.00    +0.000 C 
ATOM      6  C   UNL     1     -20.964  -6.022   7.385  0.00  0.00    +0.000 C 
ATOM      7  C   UNL     1     -18.766  -4.958   8.074  0.00  0.00    +0.000 C 
ENDROOT
BRANCH   4   8
ATOM      8  O   UNL     1     -22.579  -6.656   5.614  0.00  0.00    +0.000 OA
ATOM      9  H   UNL     1     -22.312  -7.468   6.095  0.00  0.00    +0.000 HD
ENDBRANCH   4   8
BRANCH   2  10
ATOM     10  O   UNL     1     -22.222  -2.007   6.745  0.00  0.00    +0.000 OA
BRANCH  10  29
ATOM     11  C   UNL     1     -22.478   3.386  12.348  0.00  0.00    +0.000 C 
ATOM     12  C   UNL     1     -22.422   2.265  11.275  0.00  0.00    +0.000 C 
ATOM     13  C   UNL     1     -23.724   1.428  11.186  0.00  0.00    +0.000 C 
ATOM     14  C   UNL     1     -23.753   4.273  12.280  0.00  0.00    +0.000 C 
ATOM     15  C   UNL     1     -23.665   0.290  10.087  0.00  0.00    +0.000 C 
ATOM     16  C   UNL     1     -22.355  -0.548  10.254  0.00  0.00    +0.000 C 
ATOM     17  C   UNL     1     -24.940   2.366  11.041  0.00  0.00    +0.000 C 
ATOM     18  C   UNL     1     -25.019   3.387  12.177  0.00  0.00    +0.000 C 
ATOM     19  C   UNL     1     -23.674   5.028  13.646  0.00  0.00    +0.000 C 
ATOM     20  C   UNL     1     -21.207   1.349  11.485  0.00  0.00    +0.000 C 
ATOM     21  C   UNL     1     -22.456   2.887  13.804  0.00  0.00    +0.000 C 
ATOM     22  C   UNL     1     -21.093   0.327  10.365  0.00  0.00    +0.000 C 
ATOM     23  C   UNL     1     -23.178   3.954  14.636  0.00  0.00    +0.000 C 
ATOM     24  C   UNL     1     -23.739   0.866   8.645  0.00  0.00    +0.000 C 
ATOM     25  C   UNL     1     -22.160  -1.581   9.125  0.00  0.00    +0.000 C 
ATOM     26  C   UNL     1     -23.718   5.262  11.097  0.00  0.00    +0.000 C 
ATOM     27  C   UNL     1     -24.885  -0.649  10.308  0.00  0.00    +0.000 C 
ATOM     28  C   UNL     1     -23.539  -0.185   7.553  0.00  0.00    +0.000 C 
ATOM     29  C   UNL     1     -22.237  -0.964   7.726  0.00  0.00    +0.000 C 
BRANCH  19  32
ATOM     30  O   UNL     1     -26.272   7.617  14.387  0.00  0.00    +0.000 OA
ATOM     31  O   UNL     1     -27.875   6.502  15.596  0.00  0.00    +0.000 OA
ATOM     32  C   UNL     1     -24.895   5.793  14.078  0.00  0.00    +0.000 C 
ATOM     33  C   UNL     1     -25.038   7.240  13.779  0.00  0.00    +0.000 C 
ATOM     34  C   UNL     1     -25.936   5.381  14.803  0.00  0.00    +0.000 C 
ATOM     35  C   UNL     1     -26.819   6.530  14.991  0.00  0.00    +0.000 C 
ENDBRANCH  19  32
BRANCH  11  36
ATOM     36  O   UNL     1     -21.313   4.217  12.204  0.00  0.00    +0.000 OA
ATOM     37  H   UNL     1     -20.753   4.105  12.991  0.00  0.00    +0.000 HD
ENDBRANCH  11  36
ENDBRANCH  10  29
ENDBRANCH   2  10
BRANCH   6  38
ATOM     38  O   UNL     1     -21.467  -6.955   8.345  0.00  0.00    +0.000 OA
BRANCH  38  40
ATOM     39  O   UNL     1     -21.470  -6.631  10.696  0.00  0.00    +0.000 OA
ATOM     40  C   UNL     1     -22.230  -6.620   9.495  0.00  0.00    +0.000 C 
ATOM     41  C   UNL     1     -23.548  -7.372   9.659  0.00  0.00    +0.000 C 
ATOM     42  C   UNL     1     -23.926  -7.573  11.124  0.00  0.00    +0.000 C 
ATOM     43  C   UNL     1     -22.119  -5.862  11.728  0.00  0.00    +0.000 C 
ATOM     44  C   UNL     1     -23.526  -6.417  12.063  0.00  0.00    +0.000 C 
ATOM     45  C   UNL     1     -21.204  -5.908  12.949  0.00  0.00    +0.000 C 
BRANCH  42  46
ATOM     46  O   UNL     1     -25.306  -7.913  11.250  0.00  0.00    +0.000 OA
ATOM     47  H   UNL     1     -25.640  -8.161  10.370  0.00  0.00    +0.000 HD
ENDBRANCH  42  46
BRANCH  44  48
ATOM     48  O   UNL     1     -24.476  -5.364  12.271  0.00  0.00    +0.000 OA
BRANCH  48  50
ATOM     49  O   UNL     1     -24.050  -4.016  14.146  0.00  0.00    +0.000 OA
ATOM     50  C   UNL     1     -24.868  -5.045  13.600  0.00  0.00    +0.000 C 
ATOM     51  C   UNL     1     -24.688  -6.321  14.429  0.00  0.00    +0.000 C 
ATOM     52  C   UNL     1     -24.384  -6.021  15.895  0.00  0.00    +0.000 C 
ATOM     53  C   UNL     1     -24.516  -3.550  15.426  0.00  0.00    +0.000 C 
ATOM     54  C   UNL     1     -25.012  -4.694  16.329  0.00  0.00    +0.000 C 
ATOM     55  C   UNL     1     -23.343  -2.811  16.060  0.00  0.00    +0.000 C 
BRANCH  52  56
ATOM     56  O   UNL     1     -24.916  -7.078  16.703  0.00  0.00    +0.000 OA
ATOM     57  H   UNL     1     -25.887  -7.028  16.647  0.00  0.00    +0.000 HD
ENDBRANCH  52  56
BRANCH  54  58
ATOM     58  O   UNL     1     -26.440  -4.811  16.202  0.00  0.00    +0.000 OA
ATOM     59  H   UNL     1     -26.776  -4.962  17.110  0.00  0.00    +0.000 HD
ENDBRANCH  54  58
ENDBRANCH  48  50
ENDBRANCH  44  48
ENDBRANCH  38  40
ENDBRANCH   6  38
TORSDOF 12
ENDMDL
MODEL 8
REMARK VINA RESULT:      -6.8     10.740     15.033
REMARK  Name = 
REMARK  17 active torsions:
REMARK  status: ('A' for Active; 'I' for Inactive)
REMARK    1  A    between atoms: O_1  and  C_14
REMARK    2  A    between atoms: O_2  and  C_32
REMARK    3  A    between atoms: O_2  and  C_36
REMARK    4  A    between atoms: O_6  and  C_39
REMARK    5  A    between atoms: O_7  and  C_41
REMARK    6  A    between atoms: O_7  and  C_43
REMARK    7  A    between atoms: O_9  and  C_47
REMARK    8  A    between atoms: O_9  and  C_49
REMARK    9  A    between atoms: O_10  and  C_45
REMARK   10  A    between atoms: O_12  and  C_51
REMARK   11  A    between atoms: O_13  and  C_53
REMARK   12  A    between atoms: C_17  and  C_29
REMARK   13  A    between atoms: C_18  and  C_30
REMARK   14  A    between atoms: C_22  and  C_33
REMARK   15  A    between atoms: C_40  and  C_42
REMARK   16  A    between atoms: C_46  and  C_48
REMARK   17  A    between atoms: C_52  and  C_54
REMARK                            x       y       z     vdW  Elec       q    Type
REMARK                         _______ _______ _______ _____ _____    ______ ____
ROOT
ATOM      1  O   UNL     1     -14.046   1.501  24.269  0.00  0.00    +0.000 OA
ATOM      2  C   UNL     1     -15.117   0.793  24.888  0.00  0.00    +0.000 C 
ATOM      3  C   UNL     1     -15.268  -0.629  24.341  0.00  0.00    +0.000 C 
ATOM      4  C   UNL     1     -14.093  -1.011  23.454  0.00  0.00    +0.000 C 
ATOM      5  C   UNL     1     -12.772   0.892  24.513  0.00  0.00    +0.000 C 
ATOM      6  C   UNL     1     -12.724  -0.570  24.007  0.00  0.00    +0.000 C 
ATOM      7  C   UNL     1     -11.729   1.756  23.806  0.00  0.00    +0.000 C 
ENDROOT
BRANCH   4   8
ATOM      8  O   UNL     1     -14.138  -2.386  23.088  0.00  0.00    +0.000 OA
ATOM      9  H   UNL     1     -13.476  -2.842  23.649  0.00  0.00    +0.000 HD
ENDBRANCH   4   8
BRANCH   2  10
ATOM     10  O   UNL     1     -16.350   1.509  24.809  0.00  0.00    +0.000 OA
BRANCH  10  29
ATOM     11  C   UNL     1     -17.823   5.485  18.284  0.00  0.00    +0.000 C 
ATOM     12  C   UNL     1     -17.572   4.727  19.617  0.00  0.00    +0.000 C 
ATOM     13  C   UNL     1     -18.727   3.772  20.012  0.00  0.00    +0.000 C 
ATOM     14  C   UNL     1     -18.274   4.574  17.107  0.00  0.00    +0.000 C 
ATOM     15  C   UNL     1     -18.465   2.998  21.368  0.00  0.00    +0.000 C 
ATOM     16  C   UNL     1     -18.032   4.004  22.485  0.00  0.00    +0.000 C 
ATOM     17  C   UNL     1     -19.070   2.846  18.827  0.00  0.00    +0.000 C 
ATOM     18  C   UNL     1     -19.416   3.634  17.563  0.00  0.00    +0.000 C 
ATOM     19  C   UNL     1     -18.765   5.636  16.072  0.00  0.00    +0.000 C 
ATOM     20  C   UNL     1     -17.262   5.700  20.765  0.00  0.00    +0.000 C 
ATOM     21  C   UNL     1     -18.917   6.565  18.353  0.00  0.00    +0.000 C 
ATOM     22  C   UNL     1     -16.903   4.948  22.036  0.00  0.00    +0.000 C 
ATOM     23  C   UNL     1     -19.485   6.693  16.934  0.00  0.00    +0.000 C 
ATOM     24  C   UNL     1     -17.383   1.893  21.211  0.00  0.00    +0.000 C 
ATOM     25  C   UNL     1     -17.618   3.301  23.794  0.00  0.00    +0.000 C 
ATOM     26  C   UNL     1     -17.112   3.737  16.535  0.00  0.00    +0.000 C 
ATOM     27  C   UNL     1     -19.800   2.326  21.798  0.00  0.00    +0.000 C 
ATOM     28  C   UNL     1     -16.995   1.220  22.527  0.00  0.00    +0.000 C 
ATOM     29  C   UNL     1     -16.547   2.226  23.586  0.00  0.00    +0.000 C 
BRANCH  19  32
ATOM     30  O   UNL     1     -19.893   4.242  12.787  0.00  0.00    +0.000 OA
ATOM     31  O   UNL     1     -22.178   4.471  12.812  0.00  0.00    +0.000 OA
ATOM     32  C   UNL     1     -19.541   5.130  14.886  0.00  0.00    +0.000 C 
ATOM     33  C   UNL     1     -18.848   4.546  13.710  0.00  0.00    +0.000 C 
ATOM     34  C   UNL     1     -20.853   5.174  14.655  0.00  0.00    +0.000 C 
ATOM     35  C   UNL     1     -21.085   4.600  13.332  0.00  0.00    +0.000 C 
ENDBRANCH  19  32
BRANCH  11  36
ATOM     36  O   UNL     1     -16.616   6.175  17.916  0.00  0.00    +0.000 OA
ATOM     37  H   UNL     1     -16.230   6.572  18.715  0.00  0.00    +0.000 HD
ENDBRANCH  11  36
ENDBRANCH  10  29
ENDBRANCH   2  10
BRANCH   6  38
ATOM     38  O   UNL     1     -11.991  -1.425  24.890  0.00  0.00    +0.000 OA
BRANCH  38  40
ATOM     39  O   UNL     1     -11.125  -3.633  24.976  0.00  0.00    +0.000 OA
ATOM     40  C   UNL     1     -10.946  -2.305  24.502  0.00  0.00    +0.000 C 
ATOM     41  C   UNL     1      -9.528  -1.804  24.759  0.00  0.00    +0.000 C 
ATOM     42  C   UNL     1      -8.553  -2.941  25.052  0.00  0.00    +0.000 C 
ATOM     43  C   UNL     1     -10.342  -4.568  24.209  0.00  0.00    +0.000 C 
ATOM     44  C   UNL     1      -8.827  -4.248  24.281  0.00  0.00    +0.000 C 
ATOM     45  C   UNL     1     -10.639  -5.955  24.773  0.00  0.00    +0.000 C 
BRANCH  42  46
ATOM     46  O   UNL     1      -7.203  -2.504  24.902  0.00  0.00    +0.000 OA
ATOM     47  H   UNL     1      -6.642  -3.287  24.767  0.00  0.00    +0.000 HD
ENDBRANCH  42  46
BRANCH  44  48
ATOM     48  O   UNL     1      -8.187  -4.424  23.011  0.00  0.00    +0.000 OA
BRANCH  48  50
ATOM     49  O   UNL     1      -8.397  -5.078  20.766  0.00  0.00    +0.000 OA
ATOM     50  C   UNL     1      -8.969  -4.323  21.828  0.00  0.00    +0.000 C 
ATOM     51  C   UNL     1      -8.986  -2.842  21.437  0.00  0.00    +0.000 C 
ATOM     52  C   UNL     1      -9.144  -2.642  19.931  0.00  0.00    +0.000 C 
ATOM     53  C   UNL     1      -9.242  -5.137  19.602  0.00  0.00    +0.000 C 
ATOM     54  C   UNL     1      -9.931  -3.793  19.302  0.00  0.00    +0.000 C 
ATOM     55  C   UNL     1      -8.344  -5.570  18.449  0.00  0.00    +0.000 C 
BRANCH  52  56
ATOM     56  O   UNL     1      -9.844  -1.413  19.700  0.00  0.00    +0.000 OA
ATOM     57  H   UNL     1      -9.571  -1.081  18.826  0.00  0.00    +0.000 HD
ENDBRANCH  52  56
BRANCH  54  58
ATOM     58  O   UNL     1     -11.251  -3.801  19.874  0.00  0.00    +0.000 OA
ATOM     59  H   UNL     1     -11.476  -4.745  20.009  0.00  0.00    +0.000 HD
ENDBRANCH  54  58
ENDBRANCH  48  50
ENDBRANCH  44  48
ENDBRANCH  38  40
ENDBRANCH   6  38
TORSDOF 12
ENDMDL
MODEL 9
REMARK VINA RESULT:      -6.7     24.387     28.561
REMARK  Name = 
REMARK  17 active torsions:
REMARK  status: ('A' for Active; 'I' for Inactive)
REMARK    1  A    between atoms: O_1  and  C_14
REMARK    2  A    between atoms: O_2  and  C_32
REMARK    3  A    between atoms: O_2  and  C_36
REMARK    4  A    between atoms: O_6  and  C_39
REMARK    5  A    between atoms: O_7  and  C_41
REMARK    6  A    between atoms: O_7  and  C_43
REMARK    7  A    between atoms: O_9  and  C_47
REMARK    8  A    between atoms: O_9  and  C_49
REMARK    9  A    between atoms: O_10  and  C_45
REMARK   10  A    between atoms: O_12  and  C_51
REMARK   11  A    between atoms: O_13  and  C_53
REMARK   12  A    between atoms: C_17  and  C_29
REMARK   13  A    between atoms: C_18  and  C_30
REMARK   14  A    between atoms: C_22  and  C_33
REMARK   15  A    between atoms: C_40  and  C_42
REMARK   16  A    between atoms: C_46  and  C_48
REMARK   17  A    between atoms: C_52  and  C_54
REMARK                            x       y       z     vdW  Elec       q    Type
REMARK                         _______ _______ _______ _____ _____    ______ ____
ROOT
ATOM      1  O   UNL     1       0.040 -15.436  20.955  0.00  0.00    +0.000 OA
ATOM      2  C   UNL     1       0.170 -14.020  20.860  0.00  0.00    +0.000 C 
ATOM      3  C   UNL     1      -0.594 -13.443  19.665  0.00  0.00    +0.000 C 
ATOM      4  C   UNL     1      -1.493 -14.489  19.023  0.00  0.00    +0.000 C 
ATOM      5  C   UNL     1      -1.316 -15.849  21.169  0.00  0.00    +0.000 C 
ATOM      6  C   UNL     1      -2.254 -15.366  20.038  0.00  0.00    +0.000 C 
ATOM      7  C   UNL     1      -1.301 -17.374  21.260  0.00  0.00    +0.000 C 
ENDROOT
BRANCH   4   8
ATOM      8  O   UNL     1      -2.335 -13.916  18.028  0.00  0.00    +0.000 OA
ATOM      9  H   UNL     1      -2.779 -13.151  18.451  0.00  0.00    +0.000 HD
ENDBRANCH   4   8
BRANCH   2  10
ATOM     10  O   UNL     1       1.536 -13.606  20.846  0.00  0.00    +0.000 OA
BRANCH  10  29
ATOM     11  C   UNL     1       4.541 -11.837  13.890  0.00  0.00    +0.000 C 
ATOM     12  C   UNL     1       3.964 -12.249  15.272  0.00  0.00    +0.000 C 
ATOM     13  C   UNL     1       5.047 -12.423  16.367  0.00  0.00    +0.000 C 
ATOM     14  C   UNL     1       5.533 -10.640  13.943  0.00  0.00    +0.000 C 
ATOM     15  C   UNL     1       4.454 -12.837  17.776  0.00  0.00    +0.000 C 
ATOM     16  C   UNL     1       3.483 -14.054  17.611  0.00  0.00    +0.000 C 
ATOM     17  C   UNL     1       5.945 -11.169  16.419  0.00  0.00    +0.000 C 
ATOM     18  C   UNL     1       6.579 -10.860  15.062  0.00  0.00    +0.000 C 
ATOM     19  C   UNL     1       6.172 -10.711  12.519  0.00  0.00    +0.000 C 
ATOM     20  C   UNL     1       3.101 -13.515  15.163  0.00  0.00    +0.000 C 
ATOM     21  C   UNL     1       5.335 -12.940  13.168  0.00  0.00    +0.000 C 
ATOM     22  C   UNL     1       2.445 -13.846  16.494  0.00  0.00    +0.000 C 
ATOM     23  C   UNL     1       6.343 -12.222  12.261  0.00  0.00    +0.000 C 
ATOM     24  C   UNL     1       3.707 -11.661  18.464  0.00  0.00    +0.000 C 
ATOM     25  C   UNL     1       2.755 -14.418  18.921  0.00  0.00    +0.000 C 
ATOM     26  C   UNL     1       4.816  -9.293  14.164  0.00  0.00    +0.000 C 
ATOM     27  C   UNL     1       5.640 -13.270  18.683  0.00  0.00    +0.000 C 
ATOM     28  C   UNL     1       2.995 -12.058  19.758  0.00  0.00    +0.000 C 
ATOM     29  C   UNL     1       2.032 -13.227  19.557  0.00  0.00    +0.000 C 
BRANCH  19  32
ATOM     30  O   UNL     1       9.583  -9.395  11.720  0.00  0.00    +0.000 OA
ATOM     31  O   UNL     1       9.478  -7.159  12.231  0.00  0.00    +0.000 OA
ATOM     32  C   UNL     1       7.396  -9.870  12.274  0.00  0.00    +0.000 C 
ATOM     33  C   UNL     1       8.652 -10.476  11.766  0.00  0.00    +0.000 C 
ATOM     34  C   UNL     1       7.589  -8.573  12.514  0.00  0.00    +0.000 C 
ATOM     35  C   UNL     1       8.970  -8.262  12.152  0.00  0.00    +0.000 C 
ENDBRANCH  19  32
BRANCH  11  36
ATOM     36  O   UNL     1       3.447 -11.509  13.016  0.00  0.00    +0.000 OA
ATOM     37  H   UNL     1       3.268 -12.274  12.443  0.00  0.00    +0.000 HD
ENDBRANCH  11  36
ENDBRANCH  10  29
ENDBRANCH   2  10
BRANCH   6  38
ATOM     38  O   UNL     1      -3.533 -14.956  20.531  0.00  0.00    +0.000 OA
BRANCH  38  40
ATOM     39  O   UNL     1      -4.343 -17.187  20.544  0.00  0.00    +0.000 OA
ATOM     40  C   UNL     1      -4.596 -15.830  20.882  0.00  0.00    +0.000 C 
ATOM     41  C   UNL     1      -5.988 -15.391  20.436  0.00  0.00    +0.000 C 
ATOM     42  C   UNL     1      -6.905 -16.575  20.140  0.00  0.00    +0.000 C 
ATOM     43  C   UNL     1      -5.186 -18.076  21.302  0.00  0.00    +0.000 C 
ATOM     44  C   UNL     1      -6.690 -17.805  21.045  0.00  0.00    +0.000 C 
ATOM     45  C   UNL     1      -4.805 -19.496  20.894  0.00  0.00    +0.000 C 
BRANCH  42  46
ATOM     46  O   UNL     1      -8.271 -16.164  20.110  0.00  0.00    +0.000 OA
ATOM     47  H   UNL     1      -8.329 -15.269  20.490  0.00  0.00    +0.000 HD
ENDBRANCH  42  46
BRANCH  44  48
ATOM     48  O   UNL     1      -7.459 -17.892  22.251  0.00  0.00    +0.000 OA
BRANCH  48  50
ATOM     49  O   UNL     1      -6.570 -18.101  24.414  0.00  0.00    +0.000 OA
ATOM     50  C   UNL     1      -7.006 -17.196  23.406  0.00  0.00    +0.000 C 
ATOM     51  C   UNL     1      -8.202 -16.396  23.934  0.00  0.00    +0.000 C 
ATOM     52  C   UNL     1      -8.132 -16.180  25.444  0.00  0.00    +0.000 C 
ATOM     53  C   UNL     1      -5.951 -17.437  25.532  0.00  0.00    +0.000 C 
ATOM     54  C   UNL     1      -6.682 -16.142  25.930  0.00  0.00    +0.000 C 
ATOM     55  C   UNL     1      -5.950 -18.446  26.675  0.00  0.00    +0.000 C 
BRANCH  52  56
ATOM     56  O   UNL     1      -8.767 -14.936  25.762  0.00  0.00    +0.000 OA
ATOM     57  H   UNL     1      -8.435 -14.652  26.633  0.00  0.00    +0.000 HD
ENDBRANCH  52  56
BRANCH  54  58
ATOM     58  O   UNL     1      -6.029 -15.021  25.306  0.00  0.00    +0.000 OA
ATOM     59  H   UNL     1      -5.680 -14.474  26.040  0.00  0.00    +0.000 HD
ENDBRANCH  54  58
ENDBRANCH  48  50
ENDBRANCH  44  48
ENDBRANCH  38  40
ENDBRANCH   6  38
TORSDOF 12
ENDMDL
