MODEL 1
REMARK VINA RESULT:      -7.1      0.000      0.000
REMARK  Name = Cdk12_Inhibitor.pdbqt.pdb
REMARK  6 active torsions:
REMARK  status: ('A' for Active; 'I' for Inactive)
REMARK    1  A    between atoms: N_1  and  C_23
REMARK    2  A    between atoms: N_9  and  C_11
REMARK    3  A    between atoms: C_14  and  S_17
REMARK    4  A    between atoms: S_17  and  N_20
REMARK    5  A    between atoms: C_23  and  N_25
REMARK    6  A    between atoms: N_25  and  C_27
REMARK                            x       y       z     vdW  Elec       q    Type
REMARK                         _______ _______ _______ _____ _____    ______ ____
ROOT
ATOM      1  N   UNL     1      -8.808  -3.896  22.312  0.00  0.00    +0.000 N 
ATOM      2  N   UNL     1      -7.963  -2.834  22.243  0.00  0.00    +0.000 NA
ATOM      3  N   UNL     1      -7.804  -3.813  24.283  0.00  0.00    +0.000 NA
ATOM      4  N   UNL     1      -9.504  -5.441  24.076  0.00  0.00    +0.000 N 
ATOM      5  C   UNL     1      -7.362  -2.845  23.429  0.00  0.00    +0.000 A 
ATOM      6  C   UNL     1      -8.732  -4.432  23.600  0.00  0.00    +0.000 A 
ATOM      7  H   UNL     1     -10.508  -5.362  23.908  0.00  0.00    +0.000 HD
ATOM      8  H   UNL     1      -9.349  -5.615  25.069  0.00  0.00    +0.000 HD
ATOM      9  N   UNL     1      -6.400  -2.031  23.895  0.00  0.00    +0.000 N 
ATOM     10  H   UNL     1      -6.084  -2.225  24.837  0.00  0.00    +0.000 HD
ENDROOT
BRANCH   9  11
ATOM     11  C   UNL     1      -5.735  -0.960  23.272  0.00  0.00    +0.000 A 
ATOM     12  C   UNL     1      -4.377  -1.093  22.955  0.00  0.00    +0.000 A 
ATOM     13  C   UNL     1      -3.671  -0.056  22.352  0.00  0.00    +0.000 A 
ATOM     14  C   UNL     1      -4.328   1.136  22.077  0.00  0.00    +0.000 A 
ATOM     15  C   UNL     1      -5.679   1.296  22.359  0.00  0.00    +0.000 A 
ATOM     16  C   UNL     1      -6.369   0.250  22.964  0.00  0.00    +0.000 A 
BRANCH  14  17
ATOM     17  S   UNL     1      -3.470   2.421  21.262  0.00  0.00    +0.000 S 
ATOM     18  O   UNL     1      -4.371   3.098  20.358  0.00  0.00    +0.000 OA
ATOM     19  O   UNL     1      -2.659   3.138  22.216  0.00  0.00    +0.000 OA
BRANCH  17  20
ATOM     20  N   UNL     1      -2.400   1.574  20.283  0.00  0.00    +0.000 NA
ATOM     21  H   UNL     1      -1.441   1.774  20.567  0.00  0.00    +0.000 HD
ATOM     22  H   UNL     1      -2.636   0.581  20.297  0.00  0.00    +0.000 HD
ENDBRANCH  17  20
ENDBRANCH  14  17
ENDBRANCH   9  11
BRANCH   1  23
ATOM     23  C   UNL     1      -9.568  -4.296  21.174  0.00  0.00    +0.000 C 
ATOM     24  S   UNL     1     -11.202  -4.714  21.208  0.00  0.00    +0.000 S 
BRANCH  23  25
ATOM     25  N   UNL     1      -8.790  -4.159  20.019  0.00  0.00    +0.000 N 
ATOM     26  H   UNL     1      -8.125  -3.379  20.017  0.00  0.00    +0.000 HD
BRANCH  25  27
ATOM     27  C   UNL     1      -8.941  -4.773  18.747  0.00  0.00    +0.000 A 
ATOM     28  C   UNL     1      -9.778  -4.133  17.825  0.00  0.00    +0.000 A 
ATOM     29  F   UNL     1     -10.400  -2.998  18.181  0.00  0.00    +0.000 F 
ATOM     30  C   UNL     1      -9.991  -4.644  16.548  0.00  0.00    +0.000 A 
ATOM     31  C   UNL     1      -9.339  -5.810  16.161  0.00  0.00    +0.000 A 
ATOM     32  C   UNL     1      -8.451  -6.429  17.035  0.00  0.00    +0.000 A 
ATOM     33  C   UNL     1      -8.250  -5.907  18.314  0.00  0.00    +0.000 A 
ATOM     34  F   UNL     1      -7.257  -6.431  19.046  0.00  0.00    +0.000 F 
ENDBRANCH  25  27
ENDBRANCH  23  25
ENDBRANCH   1  23
TORSDOF 6
ENDMDL
MODEL 2
REMARK VINA RESULT:      -6.4     17.233     20.091
REMARK  Name = Cdk12_Inhibitor.pdbqt.pdb
REMARK  6 active torsions:
REMARK  status: ('A' for Active; 'I' for Inactive)
REMARK    1  A    between atoms: N_1  and  C_23
REMARK    2  A    between atoms: N_9  and  C_11
REMARK    3  A    between atoms: C_14  and  S_17
REMARK    4  A    between atoms: S_17  and  N_20
REMARK    5  A    between atoms: C_23  and  N_25
REMARK    6  A    between atoms: N_25  and  C_27
REMARK                            x       y       z     vdW  Elec       q    Type
REMARK                         _______ _______ _______ _____ _____    ______ ____
ROOT
ATOM      1  N   UNL     1     -22.476  -0.686   7.509  0.00  0.00    +0.000 N 
ATOM      2  N   UNL     1     -22.552  -1.636   8.477  0.00  0.00    +0.000 NA
ATOM      3  N   UNL     1     -22.213  -2.618   6.461  0.00  0.00    +0.000 NA
ATOM      4  N   UNL     1     -22.325  -0.712   5.067  0.00  0.00    +0.000 N 
ATOM      5  C   UNL     1     -22.355  -2.769   7.809  0.00  0.00    +0.000 A 
ATOM      6  C   UNL     1     -22.334  -1.329   6.276  0.00  0.00    +0.000 A 
ATOM      7  H   UNL     1     -23.069  -0.033   4.899  0.00  0.00    +0.000 HD
ATOM      8  H   UNL     1     -22.303  -1.376   4.292  0.00  0.00    +0.000 HD
ATOM      9  N   UNL     1     -22.292  -4.026   8.280  0.00  0.00    +0.000 N 
ATOM     10  H   UNL     1     -22.130  -4.743   7.584  0.00  0.00    +0.000 HD
ENDROOT
BRANCH   9  11
ATOM     11  C   UNL     1     -22.390  -4.509   9.596  0.00  0.00    +0.000 A 
ATOM     12  C   UNL     1     -21.251  -5.052  10.208  0.00  0.00    +0.000 A 
ATOM     13  C   UNL     1     -21.300  -5.557  11.505  0.00  0.00    +0.000 A 
ATOM     14  C   UNL     1     -22.506  -5.534  12.192  0.00  0.00    +0.000 A 
ATOM     15  C   UNL     1     -23.650  -4.986  11.624  0.00  0.00    +0.000 A 
ATOM     16  C   UNL     1     -23.584  -4.488  10.326  0.00  0.00    +0.000 A 
BRANCH  14  17
ATOM     17  S   UNL     1     -22.566  -6.106  13.842  0.00  0.00    +0.000 S 
ATOM     18  O   UNL     1     -23.937  -6.389  14.200  0.00  0.00    +0.000 OA
ATOM     19  O   UNL     1     -21.504  -7.059  14.058  0.00  0.00    +0.000 OA
BRANCH  17  20
ATOM     20  N   UNL     1     -22.145  -4.733  14.713  0.00  0.00    +0.000 NA
ATOM     21  H   UNL     1     -22.672  -3.931  14.366  0.00  0.00    +0.000 HD
ATOM     22  H   UNL     1     -22.269  -4.908  15.710  0.00  0.00    +0.000 HD
ENDBRANCH  17  20
ENDBRANCH  14  17
ENDBRANCH   9  11
BRANCH   1  23
ATOM     23  C   UNL     1     -22.527   0.699   7.842  0.00  0.00    +0.000 C 
ATOM     24  S   UNL     1     -23.760   1.755   7.383  0.00  0.00    +0.000 S 
BRANCH  23  25
ATOM     25  N   UNL     1     -21.475   1.010   8.712  0.00  0.00    +0.000 N 
ATOM     26  H   UNL     1     -20.534   0.772   8.380  0.00  0.00    +0.000 HD
BRANCH  25  27
ATOM     27  C   UNL     1     -21.512   1.373  10.085  0.00  0.00    +0.000 A 
ATOM     28  C   UNL     1     -20.423   2.097  10.583  0.00  0.00    +0.000 A 
ATOM     29  F   UNL     1     -19.403   2.397   9.763  0.00  0.00    +0.000 F 
ATOM     30  C   UNL     1     -20.360   2.510  11.911  0.00  0.00    +0.000 A 
ATOM     31  C   UNL     1     -21.417   2.219  12.767  0.00  0.00    +0.000 A 
ATOM     32  C   UNL     1     -22.541   1.559  12.280  0.00  0.00    +0.000 A 
ATOM     33  C   UNL     1     -22.588   1.149  10.947  0.00  0.00    +0.000 A 
ATOM     34  F   UNL     1     -23.757   0.683  10.484  0.00  0.00    +0.000 F 
ENDBRANCH  25  27
ENDBRANCH  23  25
ENDBRANCH   1  23
TORSDOF 6
ENDMDL
MODEL 3
REMARK VINA RESULT:      -6.4     18.037     18.891
REMARK  Name = Cdk12_Inhibitor.pdbqt.pdb
REMARK  6 active torsions:
REMARK  status: ('A' for Active; 'I' for Inactive)
REMARK    1  A    between atoms: N_1  and  C_23
REMARK    2  A    between atoms: N_9  and  C_11
REMARK    3  A    between atoms: C_14  and  S_17
REMARK    4  A    between atoms: S_17  and  N_20
REMARK    5  A    between atoms: C_23  and  N_25
REMARK    6  A    between atoms: N_25  and  C_27
REMARK                            x       y       z     vdW  Elec       q    Type
REMARK                         _______ _______ _______ _____ _____    ______ ____
ROOT
ATOM      1  N   UNL     1     -23.524  -5.450  11.604  0.00  0.00    +0.000 N 
ATOM      2  N   UNL     1     -23.426  -4.123  11.329  0.00  0.00    +0.000 NA
ATOM      3  N   UNL     1     -23.413  -4.446  13.574  0.00  0.00    +0.000 NA
ATOM      4  N   UNL     1     -23.780  -6.780  13.642  0.00  0.00    +0.000 N 
ATOM      5  C   UNL     1     -23.327  -3.568  12.534  0.00  0.00    +0.000 A 
ATOM      6  C   UNL     1     -23.580  -5.605  12.992  0.00  0.00    +0.000 A 
ATOM      7  H   UNL     1     -24.550  -7.359  13.305  0.00  0.00    +0.000 HD
ATOM      8  H   UNL     1     -23.878  -6.655  14.650  0.00  0.00    +0.000 HD
ATOM      9  N   UNL     1     -23.171  -2.273  12.856  0.00  0.00    +0.000 N 
ATOM     10  H   UNL     1     -23.117  -2.075  13.847  0.00  0.00    +0.000 HD
ENDROOT
BRANCH   9  11
ATOM     11  C   UNL     1     -23.042  -1.141  12.032  0.00  0.00    +0.000 A 
ATOM     12  C   UNL     1     -21.871  -0.374  12.106  0.00  0.00    +0.000 A 
ATOM     13  C   UNL     1     -21.702   0.764  11.322  0.00  0.00    +0.000 A 
ATOM     14  C   UNL     1     -22.724   1.149  10.465  0.00  0.00    +0.000 A 
ATOM     15  C   UNL     1     -23.890   0.403  10.351  0.00  0.00    +0.000 A 
ATOM     16  C   UNL     1     -24.044  -0.731  11.144  0.00  0.00    +0.000 A 
BRANCH  14  17
ATOM     17  S   UNL     1     -22.498   2.539   9.430  0.00  0.00    +0.000 S 
ATOM     18  O   UNL     1     -22.858   2.187   8.075  0.00  0.00    +0.000 OA
ATOM     19  O   UNL     1     -23.021   3.714  10.082  0.00  0.00    +0.000 OA
BRANCH  17  20
ATOM     20  N   UNL     1     -20.827   2.713   9.424  0.00  0.00    +0.000 NA
ATOM     21  H   UNL     1     -20.389   1.835   9.702  0.00  0.00    +0.000 HD
ATOM     22  H   UNL     1     -20.522   3.056   8.512  0.00  0.00    +0.000 HD
ENDBRANCH  17  20
ENDBRANCH  14  17
ENDBRANCH   9  11
BRANCH   1  23
ATOM     23  C   UNL     1     -23.538  -6.413  10.553  0.00  0.00    +0.000 C 
ATOM     24  S   UNL     1     -24.931  -7.033   9.834  0.00  0.00    +0.000 S 
BRANCH  23  25
ATOM     25  N   UNL     1     -22.227  -6.658  10.126  0.00  0.00    +0.000 N 
ATOM     26  H   UNL     1     -21.634  -7.182  10.779  0.00  0.00    +0.000 HD
BRANCH  25  27
ATOM     27  C   UNL     1     -21.504  -6.086   9.045  0.00  0.00    +0.000 A 
ATOM     28  C   UNL     1     -20.539  -5.122   9.361  0.00  0.00    +0.000 A 
ATOM     29  F   UNL     1     -20.353  -4.776  10.645  0.00  0.00    +0.000 F 
ATOM     30  C   UNL     1     -19.770  -4.504   8.379  0.00  0.00    +0.000 A 
ATOM     31  C   UNL     1     -19.943  -4.866   7.048  0.00  0.00    +0.000 A 
ATOM     32  C   UNL     1     -20.848  -5.868   6.714  0.00  0.00    +0.000 A 
ATOM     33  C   UNL     1     -21.615  -6.477   7.709  0.00  0.00    +0.000 A 
ATOM     34  F   UNL     1     -22.334  -7.554   7.363  0.00  0.00    +0.000 F 
ENDBRANCH  25  27
ENDBRANCH  23  25
ENDBRANCH   1  23
TORSDOF 6
ENDMDL
MODEL 4
REMARK VINA RESULT:      -6.3     16.984     19.462
REMARK  Name = Cdk12_Inhibitor.pdbqt.pdb
REMARK  6 active torsions:
REMARK  status: ('A' for Active; 'I' for Inactive)
REMARK    1  A    between atoms: N_1  and  C_23
REMARK    2  A    between atoms: N_9  and  C_11
REMARK    3  A    between atoms: C_14  and  S_17
REMARK    4  A    between atoms: S_17  and  N_20
REMARK    5  A    between atoms: C_23  and  N_25
REMARK    6  A    between atoms: N_25  and  C_27
REMARK                            x       y       z     vdW  Elec       q    Type
REMARK                         _______ _______ _______ _____ _____    ______ ____
ROOT
ATOM      1  N   UNL     1      -4.301  -5.329   1.517  0.00  0.00    +0.000 N 
ATOM      2  N   UNL     1      -3.709  -4.309   2.190  0.00  0.00    +0.000 NA
ATOM      3  N   UNL     1      -4.913  -3.487   0.452  0.00  0.00    +0.000 NA
ATOM      4  N   UNL     1      -5.606  -5.515  -0.545  0.00  0.00    +0.000 N 
ATOM      5  C   UNL     1      -4.131  -3.228   1.540  0.00  0.00    +0.000 A 
ATOM      6  C   UNL     1      -4.978  -4.793   0.417  0.00  0.00    +0.000 A 
ATOM      7  H   UNL     1      -5.080  -6.293  -0.944  0.00  0.00    +0.000 HD
ATOM      8  H   UNL     1      -5.956  -4.930  -1.305  0.00  0.00    +0.000 HD
ATOM      9  N   UNL     1      -3.879  -1.934   1.801  0.00  0.00    +0.000 N 
ATOM     10  H   UNL     1      -4.310  -1.271   1.169  0.00  0.00    +0.000 HD
ENDROOT
BRANCH   9  11
ATOM     11  C   UNL     1      -3.130  -1.345   2.834  0.00  0.00    +0.000 A 
ATOM     12  C   UNL     1      -2.313  -0.245   2.541  0.00  0.00    +0.000 A 
ATOM     13  C   UNL     1      -1.540   0.364   3.526  0.00  0.00    +0.000 A 
ATOM     14  C   UNL     1      -1.574  -0.143   4.818  0.00  0.00    +0.000 A 
ATOM     15  C   UNL     1      -2.388  -1.219   5.150  0.00  0.00    +0.000 A 
ATOM     16  C   UNL     1      -3.152  -1.818   4.152  0.00  0.00    +0.000 A 
BRANCH  14  17
ATOM     17  S   UNL     1      -0.660   0.652   6.077  0.00  0.00    +0.000 S 
ATOM     18  O   UNL     1       0.598  -0.036   6.260  0.00  0.00    +0.000 OA
ATOM     19  O   UNL     1      -0.733   2.081   5.893  0.00  0.00    +0.000 OA
BRANCH  17  20
ATOM     20  N   UNL     1      -1.566   0.310   7.449  0.00  0.00    +0.000 NA
ATOM     21  H   UNL     1      -1.400  -0.654   7.739  0.00  0.00    +0.000 HD
ATOM     22  H   UNL     1      -1.363   0.999   8.174  0.00  0.00    +0.000 HD
ENDBRANCH  17  20
ENDBRANCH  14  17
ENDBRANCH   9  11
BRANCH   1  23
ATOM     23  C   UNL     1      -4.185  -6.673   1.979  0.00  0.00    +0.000 C 
ATOM     24  S   UNL     1      -5.345  -7.476   2.903  0.00  0.00    +0.000 S 
BRANCH  23  25
ATOM     25  N   UNL     1      -3.032  -7.255   1.439  0.00  0.00    +0.000 N 
ATOM     26  H   UNL     1      -3.155  -8.180   1.014  0.00  0.00    +0.000 HD
BRANCH  25  27
ATOM     27  C   UNL     1      -1.670  -6.887   1.602  0.00  0.00    +0.000 A 
ATOM     28  C   UNL     1      -0.917  -7.617   2.530  0.00  0.00    +0.000 A 
ATOM     29  F   UNL     1      -1.509  -8.604   3.222  0.00  0.00    +0.000 F 
ATOM     30  C   UNL     1       0.428  -7.344   2.763  0.00  0.00    +0.000 A 
ATOM     31  C   UNL     1       1.055  -6.335   2.041  0.00  0.00    +0.000 A 
ATOM     32  C   UNL     1       0.348  -5.639   1.065  0.00  0.00    +0.000 A 
ATOM     33  C   UNL     1      -1.001  -5.921   0.845  0.00  0.00    +0.000 A 
ATOM     34  F   UNL     1      -1.586  -5.355  -0.220  0.00  0.00    +0.000 F 
ENDBRANCH  25  27
ENDBRANCH  23  25
ENDBRANCH   1  23
TORSDOF 6
ENDMDL
MODEL 5
REMARK VINA RESULT:      -6.3      1.902      2.423
REMARK  Name = Cdk12_Inhibitor.pdbqt.pdb
REMARK  6 active torsions:
REMARK  status: ('A' for Active; 'I' for Inactive)
REMARK    1  A    between atoms: N_1  and  C_23
REMARK    2  A    between atoms: N_9  and  C_11
REMARK    3  A    between atoms: C_14  and  S_17
REMARK    4  A    between atoms: S_17  and  N_20
REMARK    5  A    between atoms: C_23  and  N_25
REMARK    6  A    between atoms: N_25  and  C_27
REMARK                            x       y       z     vdW  Elec       q    Type
REMARK                         _______ _______ _______ _____ _____    ______ ____
ROOT
ATOM      1  N   UNL     1      -7.808  -2.174  23.624  0.00  0.00    +0.000 N 
ATOM      2  N   UNL     1      -6.874  -1.352  23.079  0.00  0.00    +0.000 NA
ATOM      3  N   UNL     1      -6.263  -1.918  25.189  0.00  0.00    +0.000 NA
ATOM      4  N   UNL     1      -8.171  -3.154  25.837  0.00  0.00    +0.000 N 
ATOM      5  C   UNL     1      -5.956  -1.256  24.037  0.00  0.00    +0.000 A 
ATOM      6  C   UNL     1      -7.433  -2.448  24.943  0.00  0.00    +0.000 A 
ATOM      7  H   UNL     1      -9.156  -2.897  25.916  0.00  0.00    +0.000 HD
ATOM      8  H   UNL     1      -7.755  -3.157  26.769  0.00  0.00    +0.000 HD
ATOM      9  N   UNL     1      -4.789  -0.591  24.023  0.00  0.00    +0.000 N 
ATOM     10  H   UNL     1      -4.240  -0.657  24.871  0.00  0.00    +0.000 HD
ENDROOT
BRANCH   9  11
ATOM     11  C   UNL     1      -4.188   0.169  23.004  0.00  0.00    +0.000 A 
ATOM     12  C   UNL     1      -2.994  -0.287  22.429  0.00  0.00    +0.000 A 
ATOM     13  C   UNL     1      -2.352   0.436  21.428  0.00  0.00    +0.000 A 
ATOM     14  C   UNL     1      -2.903   1.639  21.007  0.00  0.00    +0.000 A 
ATOM     15  C   UNL     1      -4.096   2.112  21.541  0.00  0.00    +0.000 A 
ATOM     16  C   UNL     1      -4.723   1.378  22.543  0.00  0.00    +0.000 A 
BRANCH  14  17
ATOM     17  S   UNL     1      -2.142   2.524  19.707  0.00  0.00    +0.000 S 
ATOM     18  O   UNL     1      -1.971   1.649  18.570  0.00  0.00    +0.000 OA
ATOM     19  O   UNL     1      -2.755   3.825  19.588  0.00  0.00    +0.000 OA
BRANCH  17  20
ATOM     20  N   UNL     1      -0.597   2.789  20.309  0.00  0.00    +0.000 NA
ATOM     21  H   UNL     1      -0.411   2.143  21.077  0.00  0.00    +0.000 HD
ATOM     22  H   UNL     1       0.082   2.732  19.549  0.00  0.00    +0.000 HD
ENDBRANCH  17  20
ENDBRANCH  14  17
ENDBRANCH   9  11
BRANCH   1  23
ATOM     23  C   UNL     1      -8.923  -2.620  22.856  0.00  0.00    +0.000 C 
ATOM     24  S   UNL     1     -10.293  -3.371  23.494  0.00  0.00    +0.000 S 
BRANCH  23  25
ATOM     25  N   UNL     1      -8.763  -2.221  21.524  0.00  0.00    +0.000 N 
ATOM     26  H   UNL     1      -8.457  -1.253  21.380  0.00  0.00    +0.000 HD
BRANCH  25  27
ATOM     27  C   UNL     1      -9.193  -2.858  20.329  0.00  0.00    +0.000 A 
ATOM     28  C   UNL     1      -9.941  -2.090  19.430  0.00  0.00    +0.000 A 
ATOM     29  F   UNL     1     -10.227  -0.815  19.736  0.00  0.00    +0.000 F 
ATOM     30  C   UNL     1     -10.406  -2.613  18.226  0.00  0.00    +0.000 A 
ATOM     31  C   UNL     1     -10.103  -3.928  17.891  0.00  0.00    +0.000 A 
ATOM     32  C   UNL     1      -9.305  -4.692  18.736  0.00  0.00    +0.000 A 
ATOM     33  C   UNL     1      -8.848  -4.155  19.941  0.00  0.00    +0.000 A 
ATOM     34  F   UNL     1      -7.941  -4.863  20.629  0.00  0.00    +0.000 F 
ENDBRANCH  25  27
ENDBRANCH  23  25
ENDBRANCH   1  23
TORSDOF 6
ENDMDL
MODEL 6
REMARK VINA RESULT:      -6.2      5.647      8.291
REMARK  Name = Cdk12_Inhibitor.pdbqt.pdb
REMARK  6 active torsions:
REMARK  status: ('A' for Active; 'I' for Inactive)
REMARK    1  A    between atoms: N_1  and  C_23
REMARK    2  A    between atoms: N_9  and  C_11
REMARK    3  A    between atoms: C_14  and  S_17
REMARK    4  A    between atoms: S_17  and  N_20
REMARK    5  A    between atoms: C_23  and  N_25
REMARK    6  A    between atoms: N_25  and  C_27
REMARK                            x       y       z     vdW  Elec       q    Type
REMARK                         _______ _______ _______ _____ _____    ______ ____
ROOT
ATOM      1  N   UNL     1      -9.900  -1.107  23.239  0.00  0.00    +0.000 N 
ATOM      2  N   UNL     1     -10.427  -2.231  23.790  0.00  0.00    +0.000 NA
ATOM      3  N   UNL     1     -12.090  -0.779  23.268  0.00  0.00    +0.000 NA
ATOM      4  N   UNL     1     -10.796   1.059  22.537  0.00  0.00    +0.000 N 
ATOM      5  C   UNL     1     -11.737  -2.004  23.755  0.00  0.00    +0.000 A 
ATOM      6  C   UNL     1     -10.945  -0.211  22.992  0.00  0.00    +0.000 A 
ATOM      7  H   UNL     1     -10.096   1.632  23.011  0.00  0.00    +0.000 HD
ATOM      8  H   UNL     1     -11.679   1.570  22.515  0.00  0.00    +0.000 HD
ATOM      9  N   UNL     1     -12.743  -2.805  24.144  0.00  0.00    +0.000 N 
ATOM     10  H   UNL     1     -13.673  -2.424  24.023  0.00  0.00    +0.000 HD
ENDROOT
BRANCH   9  11
ATOM     11  C   UNL     1     -12.715  -4.108  24.671  0.00  0.00    +0.000 A 
ATOM     12  C   UNL     1     -12.737  -4.281  26.061  0.00  0.00    +0.000 A 
ATOM     13  C   UNL     1     -12.697  -5.550  26.632  0.00  0.00    +0.000 A 
ATOM     14  C   UNL     1     -12.616  -6.660  25.801  0.00  0.00    +0.000 A 
ATOM     15  C   UNL     1     -12.613  -6.527  24.418  0.00  0.00    +0.000 A 
ATOM     16  C   UNL     1     -12.652  -5.251  23.864  0.00  0.00    +0.000 A 
BRANCH  14  17
ATOM     17  S   UNL     1     -12.629  -8.260  26.503  0.00  0.00    +0.000 S 
ATOM     18  O   UNL     1     -11.365  -8.504  27.159  0.00  0.00    +0.000 OA
ATOM     19  O   UNL     1     -13.892  -8.484  27.164  0.00  0.00    +0.000 OA
BRANCH  17  20
ATOM     20  N   UNL     1     -12.632  -9.248  25.144  0.00  0.00    +0.000 NA
ATOM     21  H   UNL     1     -11.743  -9.158  24.652  0.00  0.00    +0.000 HD
ATOM     22  H   UNL     1     -12.857 -10.205  25.417  0.00  0.00    +0.000 HD
ENDBRANCH  17  20
ENDBRANCH  14  17
ENDBRANCH   9  11
BRANCH   1  23
ATOM     23  C   UNL     1      -8.500  -1.003  22.992  0.00  0.00    +0.000 C 
ATOM     24  S   UNL     1      -7.325  -0.795  24.184  0.00  0.00    +0.000 S 
BRANCH  23  25
ATOM     25  N   UNL     1      -8.247  -1.234  21.634  0.00  0.00    +0.000 N 
ATOM     26  H   UNL     1      -7.700  -0.512  21.152  0.00  0.00    +0.000 HD
BRANCH  25  27
ATOM     27  C   UNL     1      -8.831  -2.181  20.752  0.00  0.00    +0.000 A 
ATOM     28  C   UNL     1      -9.675  -1.685  19.751  0.00  0.00    +0.000 A 
ATOM     29  F   UNL     1      -9.902  -0.364  19.680  0.00  0.00    +0.000 F 
ATOM     30  C   UNL     1     -10.294  -2.525  18.829  0.00  0.00    +0.000 A 
ATOM     31  C   UNL     1     -10.053  -3.893  18.883  0.00  0.00    +0.000 A 
ATOM     32  C   UNL     1      -9.167  -4.404  19.826  0.00  0.00    +0.000 A 
ATOM     33  C   UNL     1      -8.556  -3.551  20.746  0.00  0.00    +0.000 A 
ATOM     34  F   UNL     1      -7.580  -4.061  21.510  0.00  0.00    +0.000 F 
ENDBRANCH  25  27
ENDBRANCH  23  25
ENDBRANCH   1  23
TORSDOF 6
ENDMDL
MODEL 7
REMARK VINA RESULT:      -6.1     18.505     21.367
REMARK  Name = Cdk12_Inhibitor.pdbqt.pdb
REMARK  6 active torsions:
REMARK  status: ('A' for Active; 'I' for Inactive)
REMARK    1  A    between atoms: N_1  and  C_23
REMARK    2  A    between atoms: N_9  and  C_11
REMARK    3  A    between atoms: C_14  and  S_17
REMARK    4  A    between atoms: S_17  and  N_20
REMARK    5  A    between atoms: C_23  and  N_25
REMARK    6  A    between atoms: N_25  and  C_27
REMARK                            x       y       z     vdW  Elec       q    Type
REMARK                         _______ _______ _______ _____ _____    ______ ____
ROOT
ATOM      1  N   UNL     1     -22.323  -4.571  10.796  0.00  0.00    +0.000 N 
ATOM      2  N   UNL     1     -22.508  -4.959   9.508  0.00  0.00    +0.000 NA
ATOM      3  N   UNL     1     -21.469  -6.609  10.668  0.00  0.00    +0.000 NA
ATOM      4  N   UNL     1     -21.171  -5.510  12.739  0.00  0.00    +0.000 N 
ATOM      5  C   UNL     1     -22.013  -6.194   9.488  0.00  0.00    +0.000 A 
ATOM      6  C   UNL     1     -21.624  -5.582  11.463  0.00  0.00    +0.000 A 
ATOM      7  H   UNL     1     -20.664  -4.661  12.994  0.00  0.00    +0.000 HD
ATOM      8  H   UNL     1     -20.606  -6.320  12.997  0.00  0.00    +0.000 HD
ATOM      9  N   UNL     1     -21.968  -7.068   8.469  0.00  0.00    +0.000 N 
ATOM     10  H   UNL     1     -21.543  -7.962   8.681  0.00  0.00    +0.000 HD
ENDROOT
BRANCH   9  11
ATOM     11  C   UNL     1     -22.442  -6.952   7.150  0.00  0.00    +0.000 A 
ATOM     12  C   UNL     1     -21.693  -6.219   6.219  0.00  0.00    +0.000 A 
ATOM     13  C   UNL     1     -22.127  -6.063   4.906  0.00  0.00    +0.000 A 
ATOM     14  C   UNL     1     -23.334  -6.633   4.523  0.00  0.00    +0.000 A 
ATOM     15  C   UNL     1     -24.092  -7.382   5.413  0.00  0.00    +0.000 A 
ATOM     16  C   UNL     1     -23.645  -7.527   6.723  0.00  0.00    +0.000 A 
BRANCH  14  17
ATOM     17  S   UNL     1     -23.858  -6.498   2.861  0.00  0.00    +0.000 S 
ATOM     18  O   UNL     1     -25.166  -5.887   2.822  0.00  0.00    +0.000 OA
ATOM     19  O   UNL     1     -22.764  -6.021   2.050  0.00  0.00    +0.000 OA
BRANCH  17  20
ATOM     20  N   UNL     1     -24.095  -8.103   2.429  0.00  0.00    +0.000 NA
ATOM     21  H   UNL     1     -25.087  -8.333   2.492  0.00  0.00    +0.000 HD
ATOM     22  H   UNL     1     -23.690  -8.274   1.507  0.00  0.00    +0.000 HD
ENDBRANCH  17  20
ENDBRANCH  14  17
ENDBRANCH   9  11
BRANCH   1  23
ATOM     23  C   UNL     1     -22.830  -3.321  11.260  0.00  0.00    +0.000 C 
ATOM     24  S   UNL     1     -24.306  -3.115  12.052  0.00  0.00    +0.000 S 
BRANCH  23  25
ATOM     25  N   UNL     1     -21.862  -2.327  11.077  0.00  0.00    +0.000 N 
ATOM     26  H   UNL     1     -21.024  -2.405  11.664  0.00  0.00    +0.000 HD
BRANCH  25  27
ATOM     27  C   UNL     1     -21.956  -1.087  10.392  0.00  0.00    +0.000 A 
ATOM     28  C   UNL     1     -21.736   0.075  11.141  0.00  0.00    +0.000 A 
ATOM     29  F   UNL     1     -21.467  -0.030  12.452  0.00  0.00    +0.000 F 
ATOM     30  C   UNL     1     -21.797   1.342  10.567  0.00  0.00    +0.000 A 
ATOM     31  C   UNL     1     -22.059   1.464   9.207  0.00  0.00    +0.000 A 
ATOM     32  C   UNL     1     -22.215   0.322   8.426  0.00  0.00    +0.000 A 
ATOM     33  C   UNL     1     -22.155  -0.941   9.016  0.00  0.00    +0.000 A 
ATOM     34  F   UNL     1     -22.130  -2.004   8.200  0.00  0.00    +0.000 F 
ENDBRANCH  25  27
ENDBRANCH  23  25
ENDBRANCH   1  23
TORSDOF 6
ENDMDL
MODEL 8
REMARK VINA RESULT:      -5.9      6.934      9.874
REMARK  Name = Cdk12_Inhibitor.pdbqt.pdb
REMARK  6 active torsions:
REMARK  status: ('A' for Active; 'I' for Inactive)
REMARK    1  A    between atoms: N_1  and  C_23
REMARK    2  A    between atoms: N_9  and  C_11
REMARK    3  A    between atoms: C_14  and  S_17
REMARK    4  A    between atoms: S_17  and  N_20
REMARK    5  A    between atoms: C_23  and  N_25
REMARK    6  A    between atoms: N_25  and  C_27
REMARK                            x       y       z     vdW  Elec       q    Type
REMARK                         _______ _______ _______ _____ _____    ______ ____
ROOT
ATOM      1  N   UNL     1     -12.265  -4.095  25.047  0.00  0.00    +0.000 N 
ATOM      2  N   UNL     1     -12.095  -5.340  25.564  0.00  0.00    +0.000 NA
ATOM      3  N   UNL     1     -14.245  -4.676  25.848  0.00  0.00    +0.000 NA
ATOM      4  N   UNL     1     -14.092  -2.468  25.019  0.00  0.00    +0.000 N 
ATOM      5  C   UNL     1     -13.310  -5.658  25.999  0.00  0.00    +0.000 A 
ATOM      6  C   UNL     1     -13.580  -3.693  25.299  0.00  0.00    +0.000 A 
ATOM      7  H   UNL     1     -13.536  -1.665  25.316  0.00  0.00    +0.000 HD
ATOM      8  H   UNL     1     -15.045  -2.356  25.368  0.00  0.00    +0.000 HD
ATOM      9  N   UNL     1     -13.729  -6.799  26.572  0.00  0.00    +0.000 N 
ATOM     10  H   UNL     1     -14.709  -6.824  26.826  0.00  0.00    +0.000 HD
ENDROOT
BRANCH   9  11
ATOM     11  C   UNL     1     -13.028  -7.984  26.856  0.00  0.00    +0.000 A 
ATOM     12  C   UNL     1     -12.478  -8.161  28.133  0.00  0.00    +0.000 A 
ATOM     13  C   UNL     1     -11.763  -9.310  28.459  0.00  0.00    +0.000 A 
ATOM     14  C   UNL     1     -11.581 -10.288  27.489  0.00  0.00    +0.000 A 
ATOM     15  C   UNL     1     -12.128 -10.155  26.219  0.00  0.00    +0.000 A 
ATOM     16  C   UNL     1     -12.839  -8.999  25.910  0.00  0.00    +0.000 A 
BRANCH  14  17
ATOM     17  S   UNL     1     -10.740 -11.762  27.904  0.00  0.00    +0.000 S 
ATOM     18  O   UNL     1      -9.465 -11.791  27.226  0.00  0.00    +0.000 OA
ATOM     19  O   UNL     1     -10.861 -12.001  29.322  0.00  0.00    +0.000 OA
BRANCH  17  20
ATOM     20  N   UNL     1     -11.679 -12.934  27.152  0.00  0.00    +0.000 NA
ATOM     21  H   UNL     1     -12.225 -13.438  27.851  0.00  0.00    +0.000 HD
ATOM     22  H   UNL     1     -12.245 -12.503  26.420  0.00  0.00    +0.000 HD
ENDBRANCH  17  20
ENDBRANCH  14  17
ENDBRANCH   9  11
BRANCH   1  23
ATOM     23  C   UNL     1     -11.198  -3.435  24.370  0.00  0.00    +0.000 C 
ATOM     24  S   UNL     1      -9.745  -2.966  25.088  0.00  0.00    +0.000 S 
BRANCH  23  25
ATOM     25  N   UNL     1     -11.488  -3.360  23.002  0.00  0.00    +0.000 N 
ATOM     26  H   UNL     1     -12.475  -3.214  22.761  0.00  0.00    +0.000 HD
BRANCH  25  27
ATOM     27  C   UNL     1     -10.680  -3.699  21.885  0.00  0.00    +0.000 A 
ATOM     28  C   UNL     1     -10.129  -2.642  21.151  0.00  0.00    +0.000 A 
ATOM     29  F   UNL     1     -10.395  -1.379  21.519  0.00  0.00    +0.000 F 
ATOM     30  C   UNL     1      -9.316  -2.862  20.042  0.00  0.00    +0.000 A 
ATOM     31  C   UNL     1      -9.020  -4.167  19.661  0.00  0.00    +0.000 A 
ATOM     32  C   UNL     1      -9.501  -5.234  20.412  0.00  0.00    +0.000 A 
ATOM     33  C   UNL     1     -10.317  -4.998  21.519  0.00  0.00    +0.000 A 
ATOM     34  F   UNL     1     -10.604  -6.042  22.311  0.00  0.00    +0.000 F 
ENDBRANCH  25  27
ENDBRANCH  23  25
ENDBRANCH   1  23
TORSDOF 6
ENDMDL
MODEL 9
REMARK VINA RESULT:      -5.9      3.929      5.848
REMARK  Name = Cdk12_Inhibitor.pdbqt.pdb
REMARK  6 active torsions:
REMARK  status: ('A' for Active; 'I' for Inactive)
REMARK    1  A    between atoms: N_1  and  C_23
REMARK    2  A    between atoms: N_9  and  C_11
REMARK    3  A    between atoms: C_14  and  S_17
REMARK    4  A    between atoms: S_17  and  N_20
REMARK    5  A    between atoms: C_23  and  N_25
REMARK    6  A    between atoms: N_25  and  C_27
REMARK                            x       y       z     vdW  Elec       q    Type
REMARK                         _______ _______ _______ _____ _____    ______ ____
ROOT
ATOM      1  N   UNL     1     -11.259  -4.084  23.548  0.00  0.00    +0.000 N 
ATOM      2  N   UNL     1     -10.535  -3.011  23.135  0.00  0.00    +0.000 NA
ATOM      3  N   UNL     1     -10.800  -4.467  21.417  0.00  0.00    +0.000 NA
ATOM      4  N   UNL     1     -11.907  -6.222  22.550  0.00  0.00    +0.000 N 
ATOM      5  C   UNL     1     -10.314  -3.269  21.849  0.00  0.00    +0.000 A 
ATOM      6  C   UNL     1     -11.345  -4.988  22.485  0.00  0.00    +0.000 A 
ATOM      7  H   UNL     1     -11.629  -6.806  23.339  0.00  0.00    +0.000 HD
ATOM      8  H   UNL     1     -11.781  -6.752  21.687  0.00  0.00    +0.000 HD
ATOM      9  N   UNL     1      -9.671  -2.520  20.937  0.00  0.00    +0.000 N 
ATOM     10  H   UNL     1      -9.622  -2.915  20.007  0.00  0.00    +0.000 HD
ENDROOT
BRANCH   9  11
ATOM     11  C   UNL     1      -9.073  -1.253  21.060  0.00  0.00    +0.000 A 
ATOM     12  C   UNL     1      -9.635  -0.166  20.376  0.00  0.00    +0.000 A 
ATOM     13  C   UNL     1      -9.072   1.105  20.453  0.00  0.00    +0.000 A 
ATOM     14  C   UNL     1      -7.922   1.287  21.210  0.00  0.00    +0.000 A 
ATOM     15  C   UNL     1      -7.349   0.237  21.917  0.00  0.00    +0.000 A 
ATOM     16  C   UNL     1      -7.924  -1.028  21.827  0.00  0.00    +0.000 A 
BRANCH  14  17
ATOM     17  S   UNL     1      -7.242   2.889  21.367  0.00  0.00    +0.000 S 
ATOM     18  O   UNL     1      -7.363   3.584  20.106  0.00  0.00    +0.000 OA
ATOM     19  O   UNL     1      -7.678   3.476  22.611  0.00  0.00    +0.000 OA
BRANCH  17  20
ATOM     20  N   UNL     1      -5.604   2.567  21.550  0.00  0.00    +0.000 NA
ATOM     21  H   UNL     1      -5.107   2.819  20.696  0.00  0.00    +0.000 HD
ATOM     22  H   UNL     1      -5.254   3.039  22.385  0.00  0.00    +0.000 HD
ENDBRANCH  17  20
ENDBRANCH  14  17
ENDBRANCH   9  11
BRANCH   1  23
ATOM     23  C   UNL     1     -11.797  -4.136  24.867  0.00  0.00    +0.000 C 
ATOM     24  S   UNL     1     -13.442  -4.095  25.238  0.00  0.00    +0.000 S 
BRANCH  23  25
ATOM     25  N   UNL     1     -10.764  -4.359  25.785  0.00  0.00    +0.000 N 
ATOM     26  H   UNL     1     -10.386  -3.524  26.245  0.00  0.00    +0.000 HD
BRANCH  25  27
ATOM     27  C   UNL     1      -9.983  -5.525  26.004  0.00  0.00    +0.000 A 
ATOM     28  C   UNL     1     -10.538  -6.523  26.813  0.00  0.00    +0.000 A 
ATOM     29  F   UNL     1     -11.755  -6.333  27.348  0.00  0.00    +0.000 F 
ATOM     30  C   UNL     1      -9.862  -7.709  27.086  0.00  0.00    +0.000 A 
ATOM     31  C   UNL     1      -8.608  -7.924  26.524  0.00  0.00    +0.000 A 
ATOM     32  C   UNL     1      -8.062  -6.977  25.663  0.00  0.00    +0.000 A 
ATOM     33  C   UNL     1      -8.751  -5.792  25.401  0.00  0.00    +0.000 A 
ATOM     34  F   UNL     1      -8.272  -4.999  24.432  0.00  0.00    +0.000 F 
ENDBRANCH  25  27
ENDBRANCH  23  25
ENDBRANCH   1  23
TORSDOF 6
ENDMDL
