MODEL 1
REMARK VINA RESULT:      -7.2      0.000      0.000
REMARK  Name = CHEMBL35349.pdbqt.pdb
REMARK  2 active torsions:
REMARK  status: ('A' for Active; 'I' for Inactive)
REMARK    1  A    between atoms: C_2  and  C_11
REMARK    2  A    between atoms: C_5  and  O_21
REMARK                            x       y       z     vdW  Elec       q    Type
REMARK                         _______ _______ _______ _____ _____    ______ ____
ROOT
ATOM      1  N   UNL     1      -9.504  -4.575  25.005  0.00  0.00    +0.000 N 
ATOM      2  C   UNL     1      -9.880  -4.715  22.808  0.00  0.00    +0.000 A 
ATOM      3  C   UNL     1     -11.130  -4.815  23.511  0.00  0.00    +0.000 A 
ATOM      4  C   UNL     1     -10.860  -4.725  24.875  0.00  0.00    +0.000 A 
ATOM      5  C   UNL     1      -8.897  -4.567  23.777  0.00  0.00    +0.000 A 
ATOM      6  C   UNL     1     -12.471  -4.977  23.109  0.00  0.00    +0.000 A 
ATOM      7  C   UNL     1     -11.852  -4.787  25.860  0.00  0.00    +0.000 A 
ATOM      8  C   UNL     1     -13.478  -5.040  24.075  0.00  0.00    +0.000 A 
ATOM      9  C   UNL     1     -13.168  -4.946  25.427  0.00  0.00    +0.000 A 
ATOM     10  H   UNL     1      -9.006  -4.483  25.878  0.00  0.00    +0.000 HD
ENDROOT
BRANCH   2  11
ATOM     11  C   UNL     1      -9.685  -4.759  21.377  0.00  0.00    +0.000 C 
ATOM     12  N   UNL     1      -8.828  -5.568  20.809  0.00  0.00    +0.000 NA
ATOM     13  C   UNL     1      -8.914  -5.332  19.423  0.00  0.00    +0.000 A 
ATOM     14  C   UNL     1      -9.841  -4.353  19.072  0.00  0.00    +0.000 A 
ATOM     15  C   UNL     1      -8.187  -5.965  18.432  0.00  0.00    +0.000 A 
ATOM     16  C   UNL     1     -10.407  -3.914  20.331  0.00  0.00    +0.000 C 
ATOM     17  C   UNL     1     -10.096  -3.955  17.778  0.00  0.00    +0.000 A 
ATOM     18  O   UNL     1     -11.253  -3.076  20.540  0.00  0.00    +0.000 OA
ATOM     19  C   UNL     1      -9.360  -4.596  16.783  0.00  0.00    +0.000 A 
ATOM     20  C   UNL     1      -8.417  -5.588  17.105  0.00  0.00    +0.000 A 
ENDBRANCH   2  11
BRANCH   5  21
ATOM     21  O   UNL     1      -7.577  -4.427  23.745  0.00  0.00    +0.000 OA
ATOM     22  H   UNL     1      -7.166  -4.922  24.491  0.00  0.00    +0.000 HD
ENDBRANCH   5  21
TORSDOF 2
ENDMDL
MODEL 2
REMARK VINA RESULT:      -6.6      2.044      3.038
REMARK  Name = CHEMBL35349.pdbqt.pdb
REMARK  2 active torsions:
REMARK  status: ('A' for Active; 'I' for Inactive)
REMARK    1  A    between atoms: C_2  and  C_11
REMARK    2  A    between atoms: C_5  and  O_21
REMARK                            x       y       z     vdW  Elec       q    Type
REMARK                         _______ _______ _______ _____ _____    ______ ____
ROOT
ATOM      1  N   UNL     1     -13.066  -5.901  25.496  0.00  0.00    +0.000 N 
ATOM      2  C   UNL     1     -11.674  -5.449  23.810  0.00  0.00    +0.000 A 
ATOM      3  C   UNL     1     -10.911  -5.859  24.958  0.00  0.00    +0.000 A 
ATOM      4  C   UNL     1     -11.808  -6.132  25.989  0.00  0.00    +0.000 A 
ATOM      5  C   UNL     1     -13.008  -5.491  24.191  0.00  0.00    +0.000 A 
ATOM      6  C   UNL     1      -9.535  -6.021  25.214  0.00  0.00    +0.000 A 
ATOM      7  C   UNL     1     -11.408  -6.558  27.261  0.00  0.00    +0.000 A 
ATOM      8  C   UNL     1      -9.113  -6.446  26.475  0.00  0.00    +0.000 A 
ATOM      9  C   UNL     1     -10.039  -6.709  27.479  0.00  0.00    +0.000 A 
ATOM     10  H   UNL     1     -13.926  -6.014  26.013  0.00  0.00    +0.000 HD
ENDROOT
BRANCH   2  11
ATOM     11  C   UNL     1     -11.155  -5.070  22.515  0.00  0.00    +0.000 C 
ATOM     12  N   UNL     1     -10.238  -5.767  21.895  0.00  0.00    +0.000 NA
ATOM     13  C   UNL     1      -9.986  -5.101  20.679  0.00  0.00    +0.000 A 
ATOM     14  C   UNL     1     -10.748  -3.950  20.496  0.00  0.00    +0.000 A 
ATOM     15  C   UNL     1      -9.087  -5.483  19.701  0.00  0.00    +0.000 A 
ATOM     16  C   UNL     1     -11.564  -3.854  21.688  0.00  0.00    +0.000 C 
ATOM     17  C   UNL     1     -10.672  -3.138  19.385  0.00  0.00    +0.000 A 
ATOM     18  O   UNL     1     -12.386  -3.020  21.991  0.00  0.00    +0.000 OA
ATOM     19  C   UNL     1      -9.763  -3.527  18.402  0.00  0.00    +0.000 A 
ATOM     20  C   UNL     1      -8.980  -4.684  18.557  0.00  0.00    +0.000 A 
ENDBRANCH   2  11
BRANCH   5  21
ATOM     21  O   UNL     1     -14.156  -5.229  23.579  0.00  0.00    +0.000 OA
ATOM     22  H   UNL     1     -13.987  -4.878  22.675  0.00  0.00    +0.000 HD
ENDBRANCH   5  21
TORSDOF 2
ENDMDL
MODEL 3
REMARK VINA RESULT:      -6.5      3.184      6.178
REMARK  Name = CHEMBL35349.pdbqt.pdb
REMARK  2 active torsions:
REMARK  status: ('A' for Active; 'I' for Inactive)
REMARK    1  A    between atoms: C_2  and  C_11
REMARK    2  A    between atoms: C_5  and  O_21
REMARK                            x       y       z     vdW  Elec       q    Type
REMARK                         _______ _______ _______ _____ _____    ______ ____
ROOT
ATOM      1  N   UNL     1      -7.982  -4.756  20.829  0.00  0.00    +0.000 N 
ATOM      2  C   UNL     1      -9.526  -3.220  21.319  0.00  0.00    +0.000 A 
ATOM      3  C   UNL     1      -9.660  -3.604  19.940  0.00  0.00    +0.000 A 
ATOM      4  C   UNL     1      -8.683  -4.560  19.668  0.00  0.00    +0.000 A 
ATOM      5  C   UNL     1      -8.470  -3.961  21.831  0.00  0.00    +0.000 A 
ATOM      6  C   UNL     1     -10.525  -3.222  18.895  0.00  0.00    +0.000 A 
ATOM      7  C   UNL     1      -8.523  -5.157  18.413  0.00  0.00    +0.000 A 
ATOM      8  C   UNL     1     -10.384  -3.805  17.634  0.00  0.00    +0.000 A 
ATOM      9  C   UNL     1      -9.397  -4.756  17.402  0.00  0.00    +0.000 A 
ATOM     10  H   UNL     1      -7.208  -5.394  20.944  0.00  0.00    +0.000 HD
ENDROOT
BRANCH   2  11
ATOM     11  C   UNL     1     -10.330  -2.253  22.032  0.00  0.00    +0.000 C 
ATOM     12  N   UNL     1      -9.876  -1.074  22.370  0.00  0.00    +0.000 NA
ATOM     13  C   UNL     1     -10.928  -0.418  23.040  0.00  0.00    +0.000 A 
ATOM     14  C   UNL     1     -12.091  -1.177  23.145  0.00  0.00    +0.000 A 
ATOM     15  C   UNL     1     -10.897   0.856  23.575  0.00  0.00    +0.000 A 
ATOM     16  C   UNL     1     -11.775  -2.430  22.491  0.00  0.00    +0.000 C 
ATOM     17  C   UNL     1     -13.247  -0.743  23.758  0.00  0.00    +0.000 A 
ATOM     18  O   UNL     1     -12.468  -3.407  22.328  0.00  0.00    +0.000 OA
ATOM     19  C   UNL     1     -13.210   0.542  24.296  0.00  0.00    +0.000 A 
ATOM     20  C   UNL     1     -12.051   1.332  24.207  0.00  0.00    +0.000 A 
ENDBRANCH   2  11
BRANCH   5  21
ATOM     21  O   UNL     1      -7.885  -4.044  23.020  0.00  0.00    +0.000 OA
ATOM     22  H   UNL     1      -8.114  -4.899  23.451  0.00  0.00    +0.000 HD
ENDBRANCH   5  21
TORSDOF 2
ENDMDL
MODEL 4
REMARK VINA RESULT:      -6.3      2.965      3.961
REMARK  Name = CHEMBL35349.pdbqt.pdb
REMARK  2 active torsions:
REMARK  status: ('A' for Active; 'I' for Inactive)
REMARK    1  A    between atoms: C_2  and  C_11
REMARK    2  A    between atoms: C_5  and  O_21
REMARK                            x       y       z     vdW  Elec       q    Type
REMARK                         _______ _______ _______ _____ _____    ______ ____
ROOT
ATOM      1  N   UNL     1      -8.905  -2.059  24.467  0.00  0.00    +0.000 N 
ATOM      2  C   UNL     1      -8.784  -2.593  22.302  0.00  0.00    +0.000 A 
ATOM      3  C   UNL     1      -8.314  -1.247  22.486  0.00  0.00    +0.000 A 
ATOM      4  C   UNL     1      -8.403  -0.947  23.844  0.00  0.00    +0.000 A 
ATOM      5  C   UNL     1      -9.141  -3.058  23.560  0.00  0.00    +0.000 A 
ATOM      6  C   UNL     1      -7.820  -0.253  21.617  0.00  0.00    +0.000 A 
ATOM      7  C   UNL     1      -8.027   0.288  24.383  0.00  0.00    +0.000 A 
ATOM      8  C   UNL     1      -7.438   0.987  22.133  0.00  0.00    +0.000 A 
ATOM      9  C   UNL     1      -7.541   1.248  23.494  0.00  0.00    +0.000 A 
ATOM     10  H   UNL     1      -9.082  -2.146  25.457  0.00  0.00    +0.000 HD
ENDROOT
BRANCH   2  11
ATOM     11  C   UNL     1      -8.869  -3.319  21.055  0.00  0.00    +0.000 C 
ATOM     12  N   UNL     1      -8.277  -4.471  20.872  0.00  0.00    +0.000 NA
ATOM     13  C   UNL     1      -8.580  -4.870  19.554  0.00  0.00    +0.000 A 
ATOM     14  C   UNL     1      -9.381  -3.967  18.860  0.00  0.00    +0.000 A 
ATOM     15  C   UNL     1      -8.163  -6.029  18.927  0.00  0.00    +0.000 A 
ATOM     16  C   UNL     1      -9.623  -2.891  19.799  0.00  0.00    +0.000 C 
ATOM     17  C   UNL     1      -9.803  -4.144  17.561  0.00  0.00    +0.000 A 
ATOM     18  O   UNL     1     -10.266  -1.877  19.655  0.00  0.00    +0.000 OA
ATOM     19  C   UNL     1      -9.380  -5.315  16.933  0.00  0.00    +0.000 A 
ATOM     20  C   UNL     1      -8.571  -6.246  17.607  0.00  0.00    +0.000 A 
ENDBRANCH   2  11
BRANCH   5  21
ATOM     21  O   UNL     1      -9.630  -4.203  24.022  0.00  0.00    +0.000 OA
ATOM     22  H   UNL     1      -9.793  -4.826  23.278  0.00  0.00    +0.000 HD
ENDBRANCH   5  21
TORSDOF 2
ENDMDL
MODEL 5
REMARK VINA RESULT:      -6.3      1.845      2.089
REMARK  Name = CHEMBL35349.pdbqt.pdb
REMARK  2 active torsions:
REMARK  status: ('A' for Active; 'I' for Inactive)
REMARK    1  A    between atoms: C_2  and  C_11
REMARK    2  A    between atoms: C_5  and  O_21
REMARK                            x       y       z     vdW  Elec       q    Type
REMARK                         _______ _______ _______ _____ _____    ______ ____
ROOT
ATOM      1  N   UNL     1      -7.951  -3.212  25.317  0.00  0.00    +0.000 N 
ATOM      2  C   UNL     1      -8.711  -3.857  23.319  0.00  0.00    +0.000 A 
ATOM      3  C   UNL     1      -9.189  -4.767  24.326  0.00  0.00    +0.000 A 
ATOM      4  C   UNL     1      -8.697  -4.337  25.556  0.00  0.00    +0.000 A 
ATOM      5  C   UNL     1      -7.947  -2.908  23.982  0.00  0.00    +0.000 A 
ATOM      6  C   UNL     1      -9.996  -5.922  24.300  0.00  0.00    +0.000 A 
ATOM      7  C   UNL     1      -8.966  -4.993  26.762  0.00  0.00    +0.000 A 
ATOM      8  C   UNL     1     -10.279  -6.593  25.492  0.00  0.00    +0.000 A 
ATOM      9  C   UNL     1      -9.770  -6.132  26.700  0.00  0.00    +0.000 A 
ATOM     10  H   UNL     1      -7.466  -2.672  26.019  0.00  0.00    +0.000 HD
ENDROOT
BRANCH   2  11
ATOM     11  C   UNL     1      -8.976  -3.919  21.900  0.00  0.00    +0.000 C 
ATOM     12  N   UNL     1      -8.423  -4.814  21.121  0.00  0.00    +0.000 NA
ATOM     13  C   UNL     1      -8.911  -4.568  19.822  0.00  0.00    +0.000 A 
ATOM     14  C   UNL     1      -9.797  -3.496  19.744  0.00  0.00    +0.000 A 
ATOM     15  C   UNL     1      -8.594  -5.272  18.676  0.00  0.00    +0.000 A 
ATOM     16  C   UNL     1      -9.897  -3.001  21.102  0.00  0.00    +0.000 C 
ATOM     17  C   UNL     1     -10.399  -3.072  18.580  0.00  0.00    +0.000 A 
ATOM     18  O   UNL     1     -10.548  -2.079  21.536  0.00  0.00    +0.000 OA
ATOM     19  C   UNL     1     -10.076  -3.785  17.428  0.00  0.00    +0.000 A 
ATOM     20  C   UNL     1      -9.185  -4.871  17.473  0.00  0.00    +0.000 A 
ENDBRANCH   2  11
BRANCH   5  21
ATOM     21  O   UNL     1      -7.261  -1.837  23.599  0.00  0.00    +0.000 OA
ATOM     22  H   UNL     1      -6.903  -1.970  22.692  0.00  0.00    +0.000 HD
ENDBRANCH   5  21
TORSDOF 2
ENDMDL
MODEL 6
REMARK VINA RESULT:      -6.0     19.653     21.077
REMARK  Name = CHEMBL35349.pdbqt.pdb
REMARK  2 active torsions:
REMARK  status: ('A' for Active; 'I' for Inactive)
REMARK    1  A    between atoms: C_2  and  C_11
REMARK    2  A    between atoms: C_5  and  O_21
REMARK                            x       y       z     vdW  Elec       q    Type
REMARK                         _______ _______ _______ _____ _____    ______ ____
ROOT
ATOM      1  N   UNL     1     -16.141  10.101   8.157  0.00  0.00    +0.000 N 
ATOM      2  C   UNL     1     -15.231   8.759   6.623  0.00  0.00    +0.000 A 
ATOM      3  C   UNL     1     -16.604   9.012   6.278  0.00  0.00    +0.000 A 
ATOM      4  C   UNL     1     -17.140   9.850   7.253  0.00  0.00    +0.000 A 
ATOM      5  C   UNL     1     -14.988   9.456   7.798  0.00  0.00    +0.000 A 
ATOM      6  C   UNL     1     -17.441   8.601   5.221  0.00  0.00    +0.000 A 
ATOM      7  C   UNL     1     -18.464  10.301   7.234  0.00  0.00    +0.000 A 
ATOM      8  C   UNL     1     -18.766   9.040   5.181  0.00  0.00    +0.000 A 
ATOM      9  C   UNL     1     -19.265   9.876   6.173  0.00  0.00    +0.000 A 
ATOM     10  H   UNL     1     -16.228  10.680   8.980  0.00  0.00    +0.000 HD
ENDROOT
BRANCH   2  11
ATOM     11  C   UNL     1     -14.290   7.941   5.891  0.00  0.00    +0.000 C 
ATOM     12  N   UNL     1     -13.797   8.303   4.734  0.00  0.00    +0.000 NA
ATOM     13  C   UNL     1     -12.928   7.269   4.331  0.00  0.00    +0.000 A 
ATOM     14  C   UNL     1     -12.848   6.212   5.234  0.00  0.00    +0.000 A 
ATOM     15  C   UNL     1     -12.185   7.225   3.166  0.00  0.00    +0.000 A 
ATOM     16  C   UNL     1     -13.736   6.584   6.316  0.00  0.00    +0.000 C 
ATOM     17  C   UNL     1     -12.065   5.094   5.051  0.00  0.00    +0.000 A 
ATOM     18  O   UNL     1     -14.001   5.984   7.332  0.00  0.00    +0.000 OA
ATOM     19  C   UNL     1     -11.318   5.054   3.875  0.00  0.00    +0.000 A 
ATOM     20  C   UNL     1     -11.377   6.105   2.943  0.00  0.00    +0.000 A 
ENDBRANCH   2  11
BRANCH   5  21
ATOM     21  O   UNL     1     -13.929   9.609   8.584  0.00  0.00    +0.000 OA
ATOM     22  H   UNL     1     -13.112   9.687   8.041  0.00  0.00    +0.000 HD
ENDBRANCH   5  21
TORSDOF 2
ENDMDL
MODEL 7
REMARK VINA RESULT:      -5.9      5.635      7.412
REMARK  Name = CHEMBL35349.pdbqt.pdb
REMARK  2 active torsions:
REMARK  status: ('A' for Active; 'I' for Inactive)
REMARK    1  A    between atoms: C_2  and  C_11
REMARK    2  A    between atoms: C_5  and  O_21
REMARK                            x       y       z     vdW  Elec       q    Type
REMARK                         _______ _______ _______ _____ _____    ______ ____
ROOT
ATOM      1  N   UNL     1      -9.788   3.669  21.170  0.00  0.00    +0.000 N 
ATOM      2  C   UNL     1      -9.457   1.553  20.538  0.00  0.00    +0.000 A 
ATOM      3  C   UNL     1      -9.553   2.388  19.371  0.00  0.00    +0.000 A 
ATOM      4  C   UNL     1      -9.760   3.698  19.800  0.00  0.00    +0.000 A 
ATOM      5  C   UNL     1      -9.610   2.392  21.632  0.00  0.00    +0.000 A 
ATOM      6  C   UNL     1      -9.484   2.148  17.984  0.00  0.00    +0.000 A 
ATOM      7  C   UNL     1      -9.900   4.780  18.924  0.00  0.00    +0.000 A 
ATOM      8  C   UNL     1      -9.621   3.212  17.091  0.00  0.00    +0.000 A 
ATOM      9  C   UNL     1      -9.825   4.505  17.558  0.00  0.00    +0.000 A 
ATOM     10  H   UNL     1      -9.923   4.470  21.770  0.00  0.00    +0.000 HD
ENDROOT
BRANCH   2  11
ATOM     11  C   UNL     1      -9.244   0.124  20.565  0.00  0.00    +0.000 C 
ATOM     12  N   UNL     1      -9.890  -0.697  19.777  0.00  0.00    +0.000 NA
ATOM     13  C   UNL     1      -9.426  -1.992  20.085  0.00  0.00    +0.000 A 
ATOM     14  C   UNL     1      -8.462  -2.024  21.089  0.00  0.00    +0.000 A 
ATOM     15  C   UNL     1      -9.834  -3.175  19.496  0.00  0.00    +0.000 A 
ATOM     16  C   UNL     1      -8.280  -0.638  21.469  0.00  0.00    +0.000 C 
ATOM     17  C   UNL     1      -7.866  -3.175  21.555  0.00  0.00    +0.000 A 
ATOM     18  O   UNL     1      -7.546  -0.162  22.304  0.00  0.00    +0.000 OA
ATOM     19  C   UNL     1      -8.281  -4.365  20.959  0.00  0.00    +0.000 A 
ATOM     20  C   UNL     1      -9.252  -4.366  19.943  0.00  0.00    +0.000 A 
ENDBRANCH   2  11
BRANCH   5  21
ATOM     21  O   UNL     1      -9.614   2.210  22.948  0.00  0.00    +0.000 OA
ATOM     22  H   UNL     1      -8.962   2.811  23.375  0.00  0.00    +0.000 HD
ENDBRANCH   5  21
TORSDOF 2
ENDMDL
MODEL 8
REMARK VINA RESULT:      -5.8      2.329      5.957
REMARK  Name = CHEMBL35349.pdbqt.pdb
REMARK  2 active torsions:
REMARK  status: ('A' for Active; 'I' for Inactive)
REMARK    1  A    between atoms: C_2  and  C_11
REMARK    2  A    between atoms: C_5  and  O_21
REMARK                            x       y       z     vdW  Elec       q    Type
REMARK                         _______ _______ _______ _____ _____    ______ ____
ROOT
ATOM      1  N   UNL     1      -9.377  -1.144  21.856  0.00  0.00    +0.000 N 
ATOM      2  C   UNL     1      -9.855  -3.192  22.606  0.00  0.00    +0.000 A 
ATOM      3  C   UNL     1     -10.132  -3.126  21.196  0.00  0.00    +0.000 A 
ATOM      4  C   UNL     1      -9.824  -1.838  20.762  0.00  0.00    +0.000 A 
ATOM      5  C   UNL     1      -9.388  -1.938  22.972  0.00  0.00    +0.000 A 
ATOM      6  C   UNL     1     -10.620  -4.047  20.248  0.00  0.00    +0.000 A 
ATOM      7  C   UNL     1      -9.975  -1.418  19.436  0.00  0.00    +0.000 A 
ATOM      8  C   UNL     1     -10.778  -3.651  18.918  0.00  0.00    +0.000 A 
ATOM      9  C   UNL     1     -10.459  -2.356  18.524  0.00  0.00    +0.000 A 
ATOM     10  H   UNL     1      -9.078  -0.180  21.855  0.00  0.00    +0.000 HD
ENDROOT
BRANCH   2  11
ATOM     11  C   UNL     1     -10.028  -4.338  23.469  0.00  0.00    +0.000 C 
ATOM     12  N   UNL     1     -11.205  -4.834  23.750  0.00  0.00    +0.000 NA
ATOM     13  C   UNL     1     -10.982  -5.930  24.608  0.00  0.00    +0.000 A 
ATOM     14  C   UNL     1      -9.639  -6.158  24.897  0.00  0.00    +0.000 A 
ATOM     15  C   UNL     1     -11.945  -6.755  25.158  0.00  0.00    +0.000 A 
ATOM     16  C   UNL     1      -8.926  -5.129  24.169  0.00  0.00    +0.000 C 
ATOM     17  C   UNL     1      -9.183  -7.170  25.712  0.00  0.00    +0.000 A 
ATOM     18  O   UNL     1      -7.737  -4.916  24.108  0.00  0.00    +0.000 OA
ATOM     19  C   UNL     1     -10.157  -7.999  26.265  0.00  0.00    +0.000 A 
ATOM     20  C   UNL     1     -11.521  -7.795  25.992  0.00  0.00    +0.000 A 
ENDBRANCH   2  11
BRANCH   5  21
ATOM     21  O   UNL     1      -8.978  -1.398  24.113  0.00  0.00    +0.000 OA
ATOM     22  H   UNL     1      -8.393  -2.026  24.595  0.00  0.00    +0.000 HD
ENDBRANCH   5  21
TORSDOF 2
ENDMDL
MODEL 9
REMARK VINA RESULT:      -5.7     17.527     19.371
REMARK  Name = CHEMBL35349.pdbqt.pdb
REMARK  2 active torsions:
REMARK  status: ('A' for Active; 'I' for Inactive)
REMARK    1  A    between atoms: C_2  and  C_11
REMARK    2  A    between atoms: C_5  and  O_21
REMARK                            x       y       z     vdW  Elec       q    Type
REMARK                         _______ _______ _______ _____ _____    ______ ____
ROOT
ATOM      1  N   UNL     1       6.871 -15.408  13.448  0.00  0.00    +0.000 N 
ATOM      2  C   UNL     1       5.432 -13.711  13.260  0.00  0.00    +0.000 A 
ATOM      3  C   UNL     1       4.833 -14.758  14.044  0.00  0.00    +0.000 A 
ATOM      4  C   UNL     1       5.755 -15.798  14.140  0.00  0.00    +0.000 A 
ATOM      5  C   UNL     1       6.698 -14.160  12.912  0.00  0.00    +0.000 A 
ATOM      6  C   UNL     1       3.585 -14.915  14.680  0.00  0.00    +0.000 A 
ATOM      7  C   UNL     1       5.502 -16.986  14.836  0.00  0.00    +0.000 A 
ATOM      8  C   UNL     1       3.311 -16.091  15.381  0.00  0.00    +0.000 A 
ATOM      9  C   UNL     1       4.257 -17.107  15.455  0.00  0.00    +0.000 A 
ATOM     10  H   UNL     1       7.713 -15.955  13.339  0.00  0.00    +0.000 HD
ENDROOT
BRANCH   2  11
ATOM     11  C   UNL     1       4.834 -12.444  12.906  0.00  0.00    +0.000 C 
ATOM     12  N   UNL     1       3.782 -12.355  12.134  0.00  0.00    +0.000 NA
ATOM     13  C   UNL     1       3.490 -10.982  12.013  0.00  0.00    +0.000 A 
ATOM     14  C   UNL     1       4.362 -10.155  12.717  0.00  0.00    +0.000 A 
ATOM     15  C   UNL     1       2.457 -10.419  11.288  0.00  0.00    +0.000 A 
ATOM     16  C   UNL     1       5.301 -11.060  13.348  0.00  0.00    +0.000 C 
ATOM     17  C   UNL     1       4.273  -8.780  12.746  0.00  0.00    +0.000 A 
ATOM     18  O   UNL     1       6.243 -10.811  14.063  0.00  0.00    +0.000 OA
ATOM     19  C   UNL     1       3.229  -8.218  12.013  0.00  0.00    +0.000 A 
ATOM     20  C   UNL     1       2.333  -9.026  11.292  0.00  0.00    +0.000 A 
ENDBRANCH   2  11
BRANCH   5  21
ATOM     21  O   UNL     1       7.703 -13.649  12.211  0.00  0.00    +0.000 OA
ATOM     22  H   UNL     1       8.120 -14.347  11.657  0.00  0.00    +0.000 HD
ENDBRANCH   5  21
TORSDOF 2
ENDMDL
