MODEL 1
REMARK VINA RESULT:      -6.4      0.000      0.000
REMARK  Name = Chlortetracycline.pdbqt.pdb
REMARK  7 active torsions:
REMARK  status: ('A' for Active; 'I' for Inactive)
REMARK    1  A    between atoms: C_7  and  O_30
REMARK    2  A    between atoms: C_8  and  N_32
REMARK    3  A    between atoms: C_9  and  O_37
REMARK    4  A    between atoms: C_12  and  O_28
REMARK    5  A    between atoms: C_15  and  O_35
REMARK    6  A    between atoms: C_16  and  C_23
REMARK    7  A    between atoms: C_20  and  O_39
REMARK                            x       y       z     vdW  Elec       q    Type
REMARK                         _______ _______ _______ _____ _____    ______ ____
ROOT
ATOM      1 CL   UNL     1     -10.392   4.608  22.127  0.00  0.00    +0.000 Cl
ATOM      2  O   UNL     1      -6.695  -2.198  23.272  0.00  0.00    +0.000 OA
ATOM      3  O   UNL     1     -11.330  -3.206  19.337  0.00  0.00    +0.000 OA
ATOM      4  C   UNL     1     -10.348  -2.442  22.548  0.00  0.00    +0.000 C 
ATOM      5  C   UNL     1      -9.478   0.049  22.510  0.00  0.00    +0.000 C 
ATOM      6  C   UNL     1     -10.381  -1.033  22.528  0.00  0.00    +0.000 C 
ATOM      7  C   UNL     1      -8.945  -2.993  22.649  0.00  0.00    +0.000 C 
ATOM      8  C   UNL     1     -11.269  -3.190  21.710  0.00  0.00    +0.000 C 
ATOM      9  C   UNL     1      -9.801   1.511  22.640  0.00  0.00    +0.000 C 
ATOM     10  C   UNL     1      -8.104  -0.403  22.575  0.00  0.00    +0.000 C 
ATOM     11  C   UNL     1      -7.821  -1.874  22.868  0.00  0.00    +0.000 C 
ATOM     12  C   UNL     1      -8.533  -3.817  21.424  0.00  0.00    +0.000 C 
ATOM     13  C   UNL     1      -8.668   2.427  22.202  0.00  0.00    +0.000 A 
ATOM     14  C   UNL     1     -10.725  -3.499  20.358  0.00  0.00    +0.000 C 
ATOM     15  C   UNL     1      -7.090   0.466  22.413  0.00  0.00    +0.000 C 
ATOM     16  C   UNL     1      -9.329  -4.039  20.352  0.00  0.00    +0.000 C 
ATOM     17  C   UNL     1      -7.348   1.897  22.062  0.00  0.00    +0.000 A 
ATOM     18  C   UNL     1     -10.219   1.786  24.099  0.00  0.00    +0.000 C 
ATOM     19  C   UNL     1      -8.876   3.800  21.932  0.00  0.00    +0.000 A 
ATOM     20  C   UNL     1      -6.330   2.755  21.590  0.00  0.00    +0.000 A 
ATOM     21  C   UNL     1      -7.837   4.620  21.502  0.00  0.00    +0.000 A 
ATOM     22  C   UNL     1      -6.571   4.098  21.316  0.00  0.00    +0.000 A 
ENDROOT
BRANCH  16  23
ATOM     23  C   UNL     1      -8.913  -4.889  19.200  0.00  0.00    +0.000 C 
ATOM     24  O   UNL     1      -8.298  -5.936  19.354  0.00  0.00    +0.000 OA
ATOM     25  N   UNL     1      -9.233  -4.442  17.956  0.00  0.00    +0.000 N 
ATOM     26  H   UNL     1      -9.478  -3.469  17.812  0.00  0.00    +0.000 HD
ATOM     27  H   UNL     1      -8.848  -4.955  17.174  0.00  0.00    +0.000 HD
ENDBRANCH  16  23
BRANCH   8  28
ATOM     28  N   UNL     1     -12.274  -4.050  22.275  0.00  0.00    +0.000 NA
ATOM     29  C   UNL     1     -11.826  -5.417  22.500  0.00  0.00    +0.000 C 
ATOM     30  C   UNL     1     -12.840  -3.555  23.513  0.00  0.00    +0.000 C 
ENDBRANCH   8  28
BRANCH  12  31
ATOM     31  O   UNL     1      -7.271  -4.412  21.507  0.00  0.00    +0.000 OA
ATOM     32  H   UNL     1      -7.041  -4.520  22.458  0.00  0.00    +0.000 HD
ENDBRANCH  12  31
BRANCH   7  33
ATOM     33  O   UNL     1      -8.909  -3.919  23.736  0.00  0.00    +0.000 OA
ATOM     34  H   UNL     1      -8.045  -4.370  23.721  0.00  0.00    +0.000 HD
ENDBRANCH   7  33
BRANCH  15  35
ATOM     35  O   UNL     1      -5.767   0.115  22.575  0.00  0.00    +0.000 OA
ATOM     36  H   UNL     1      -5.195   0.662  21.996  0.00  0.00    +0.000 HD
ENDBRANCH  15  35
BRANCH   9  37
ATOM     37  O   UNL     1     -10.950   1.728  21.846  0.00  0.00    +0.000 OA
ATOM     38  H   UNL     1     -10.762   2.611  21.478  0.00  0.00    +0.000 HD
ENDBRANCH   9  37
BRANCH  20  39
ATOM     39  O   UNL     1      -5.067   2.293  21.335  0.00  0.00    +0.000 OA
ATOM     40  H   UNL     1      -4.752   1.773  22.095  0.00  0.00    +0.000 HD
ENDBRANCH  20  39
TORSDOF 7
ENDMDL
MODEL 2
REMARK VINA RESULT:      -6.3      2.495      3.370
REMARK  Name = Chlortetracycline.pdbqt.pdb
REMARK  7 active torsions:
REMARK  status: ('A' for Active; 'I' for Inactive)
REMARK    1  A    between atoms: C_7  and  O_30
REMARK    2  A    between atoms: C_8  and  N_32
REMARK    3  A    between atoms: C_9  and  O_37
REMARK    4  A    between atoms: C_12  and  O_28
REMARK    5  A    between atoms: C_15  and  O_35
REMARK    6  A    between atoms: C_16  and  C_23
REMARK    7  A    between atoms: C_20  and  O_39
REMARK                            x       y       z     vdW  Elec       q    Type
REMARK                         _______ _______ _______ _____ _____    ______ ____
ROOT
ATOM      1 CL   UNL     1      -4.569   4.312  20.389  0.00  0.00    +0.000 Cl
ATOM      2  O   UNL     1      -5.983  -2.131  24.607  0.00  0.00    +0.000 OA
ATOM      3  O   UNL     1      -9.962  -2.043  19.901  0.00  0.00    +0.000 OA
ATOM      4  C   UNL     1      -8.939  -0.647  22.878  0.00  0.00    +0.000 C 
ATOM      5  C   UNL     1      -6.710   0.674  22.377  0.00  0.00    +0.000 C 
ATOM      6  C   UNL     1      -8.088   0.385  22.430  0.00  0.00    +0.000 C 
ATOM      7  C   UNL     1      -8.192  -1.761  23.573  0.00  0.00    +0.000 C 
ATOM      8  C   UNL     1     -10.065  -1.051  22.055  0.00  0.00    +0.000 C 
ATOM      9  C   UNL     1      -6.063   1.965  21.959  0.00  0.00    +0.000 C 
ATOM     10  C   UNL     1      -5.922  -0.367  23.002  0.00  0.00    +0.000 C 
ATOM     11  C   UNL     1      -6.634  -1.461  23.792  0.00  0.00    +0.000 C 
ATOM     12  C   UNL     1      -8.298  -3.103  22.844  0.00  0.00    +0.000 C 
ATOM     13  C   UNL     1      -4.581   1.831  21.647  0.00  0.00    +0.000 A 
ATOM     14  C   UNL     1      -9.741  -2.146  21.099  0.00  0.00    +0.000 C 
ATOM     15  C   UNL     1      -4.579  -0.352  22.916  0.00  0.00    +0.000 C 
ATOM     16  C   UNL     1      -8.985  -3.294  21.693  0.00  0.00    +0.000 C 
ATOM     17  C   UNL     1      -3.869   0.676  22.093  0.00  0.00    +0.000 A 
ATOM     18  C   UNL     1      -6.319   3.014  23.061  0.00  0.00    +0.000 C 
ATOM     19  C   UNL     1      -3.873   2.825  20.931  0.00  0.00    +0.000 A 
ATOM     20  C   UNL     1      -2.509   0.547  21.734  0.00  0.00    +0.000 A 
ATOM     21  C   UNL     1      -2.523   2.676  20.626  0.00  0.00    +0.000 A 
ATOM     22  C   UNL     1      -1.845   1.535  21.012  0.00  0.00    +0.000 A 
ENDROOT
BRANCH  16  23
ATOM     23  C   UNL     1      -9.110  -4.627  21.038  0.00  0.00    +0.000 C 
ATOM     24  O   UNL     1      -9.834  -5.506  21.486  0.00  0.00    +0.000 OA
ATOM     25  N   UNL     1      -8.366  -4.837  19.919  0.00  0.00    +0.000 N 
ATOM     26  H   UNL     1      -7.574  -4.238  19.714  0.00  0.00    +0.000 HD
ATOM     27  H   UNL     1      -8.360  -5.777  19.545  0.00  0.00    +0.000 HD
ENDBRANCH  16  23
BRANCH   8  28
ATOM     28  N   UNL     1     -11.422  -0.891  22.504  0.00  0.00    +0.000 NA
ATOM     29  C   UNL     1     -12.002  -2.097  23.079  0.00  0.00    +0.000 C 
ATOM     30  C   UNL     1     -11.602   0.188  23.454  0.00  0.00    +0.000 C 
ENDBRANCH   8  28
BRANCH  12  31
ATOM     31  O   UNL     1      -7.688  -4.181  23.492  0.00  0.00    +0.000 OA
ATOM     32  H   UNL     1      -8.195  -4.376  24.313  0.00  0.00    +0.000 HD
ENDBRANCH  12  31
BRANCH   7  33
ATOM     33  O   UNL     1      -8.813  -1.988  24.840  0.00  0.00    +0.000 OA
ATOM     34  H   UNL     1      -8.612  -2.901  25.116  0.00  0.00    +0.000 HD
ENDBRANCH   7  33
BRANCH  15  35
ATOM     35  O   UNL     1      -3.775  -1.252  23.583  0.00  0.00    +0.000 OA
ATOM     36  H   UNL     1      -4.203  -1.541  24.415  0.00  0.00    +0.000 HD
ENDBRANCH  15  35
BRANCH   9  37
ATOM     37  O   UNL     1      -6.773   2.404  20.817  0.00  0.00    +0.000 OA
ATOM     38  H   UNL     1      -7.404   1.672  20.693  0.00  0.00    +0.000 HD
ENDBRANCH   9  37
BRANCH  20  39
ATOM     39  O   UNL     1      -1.792  -0.579  22.038  0.00  0.00    +0.000 OA
ATOM     40  H   UNL     1      -0.858  -0.441  21.805  0.00  0.00    +0.000 HD
ENDBRANCH  20  39
TORSDOF 7
ENDMDL
MODEL 3
REMARK VINA RESULT:      -5.9     16.427     18.686
REMARK  Name = Chlortetracycline.pdbqt.pdb
REMARK  7 active torsions:
REMARK  status: ('A' for Active; 'I' for Inactive)
REMARK    1  A    between atoms: C_7  and  O_30
REMARK    2  A    between atoms: C_8  and  N_32
REMARK    3  A    between atoms: C_9  and  O_37
REMARK    4  A    between atoms: C_12  and  O_28
REMARK    5  A    between atoms: C_15  and  O_35
REMARK    6  A    between atoms: C_16  and  C_23
REMARK    7  A    between atoms: C_20  and  O_39
REMARK                            x       y       z     vdW  Elec       q    Type
REMARK                         _______ _______ _______ _____ _____    ______ ____
ROOT
ATOM      1 CL   UNL     1     -24.118  -1.764   6.944  0.00  0.00    +0.000 Cl
ATOM      2  O   UNL     1     -21.080  -6.195  12.640  0.00  0.00    +0.000 OA
ATOM      3  O   UNL     1     -26.858  -4.764  14.239  0.00  0.00    +0.000 OA
ATOM      4  C   UNL     1     -23.627  -3.691  13.721  0.00  0.00    +0.000 C 
ATOM      5  C   UNL     1     -23.237  -3.668  11.111  0.00  0.00    +0.000 C 
ATOM      6  C   UNL     1     -23.684  -3.253  12.382  0.00  0.00    +0.000 C 
ATOM      7  C   UNL     1     -22.789  -4.935  13.895  0.00  0.00    +0.000 C 
ATOM      8  C   UNL     1     -24.814  -3.599  14.553  0.00  0.00    +0.000 C 
ATOM      9  C   UNL     1     -23.320  -2.904   9.819  0.00  0.00    +0.000 C 
ATOM     10  C   UNL     1     -22.446  -4.878  11.193  0.00  0.00    +0.000 C 
ATOM     11  C   UNL     1     -22.025  -5.396  12.565  0.00  0.00    +0.000 C 
ATOM     12  C   UNL     1     -23.596  -6.138  14.395  0.00  0.00    +0.000 C 
ATOM     13  C   UNL     1     -23.106  -3.768   8.586  0.00  0.00    +0.000 A 
ATOM     14  C   UNL     1     -25.667  -4.819  14.509  0.00  0.00    +0.000 C 
ATOM     15  C   UNL     1     -22.060  -5.519  10.075  0.00  0.00    +0.000 C 
ATOM     16  C   UNL     1     -24.923  -6.110  14.659  0.00  0.00    +0.000 C 
ATOM     17  C   UNL     1     -22.517  -5.062   8.726  0.00  0.00    +0.000 A 
ATOM     18  C   UNL     1     -22.310  -1.741   9.879  0.00  0.00    +0.000 C 
ATOM     19  C   UNL     1     -23.467  -3.327   7.290  0.00  0.00    +0.000 A 
ATOM     20  C   UNL     1     -22.390  -5.868   7.573  0.00  0.00    +0.000 A 
ATOM     21  C   UNL     1     -23.293  -4.140   6.174  0.00  0.00    +0.000 A 
ATOM     22  C   UNL     1     -22.771  -5.412   6.314  0.00  0.00    +0.000 A 
ENDROOT
BRANCH  16  23
ATOM     23  C   UNL     1     -25.666  -7.286  15.194  0.00  0.00    +0.000 C 
ATOM     24  O   UNL     1     -25.545  -8.404  14.712  0.00  0.00    +0.000 OA
ATOM     25  N   UNL     1     -26.507  -7.063  16.239  0.00  0.00    +0.000 N 
ATOM     26  H   UNL     1     -26.820  -6.121  16.448  0.00  0.00    +0.000 HD
ATOM     27  H   UNL     1     -27.098  -7.833  16.522  0.00  0.00    +0.000 HD
ENDBRANCH  16  23
BRANCH   8  28
ATOM     28  N   UNL     1     -24.854  -2.757  15.719  0.00  0.00    +0.000 NA
ATOM     29  C   UNL     1     -24.570  -3.455  16.965  0.00  0.00    +0.000 C 
ATOM     30  C   UNL     1     -23.977  -1.606  15.641  0.00  0.00    +0.000 C 
ENDBRANCH   8  28
BRANCH  12  31
ATOM     31  O   UNL     1     -22.847  -7.292  14.646  0.00  0.00    +0.000 OA
ATOM     32  H   UNL     1     -23.181  -7.704  15.475  0.00  0.00    +0.000 HD
ENDBRANCH  12  31
BRANCH   7  33
ATOM     33  O   UNL     1     -21.834  -4.687  14.928  0.00  0.00    +0.000 OA
ATOM     34  H   UNL     1     -21.992  -3.790  15.277  0.00  0.00    +0.000 HD
ENDBRANCH   7  33
BRANCH  15  35
ATOM     35  O   UNL     1     -21.216  -6.609  10.088  0.00  0.00    +0.000 OA
ATOM     36  H   UNL     1     -20.469  -6.454  10.704  0.00  0.00    +0.000 HD
ENDBRANCH  15  35
BRANCH   9  37
ATOM     37  O   UNL     1     -24.606  -2.317   9.797  0.00  0.00    +0.000 OA
ATOM     38  H   UNL     1     -25.169  -3.099   9.646  0.00  0.00    +0.000 HD
ENDBRANCH   9  37
BRANCH  20  39
ATOM     39  O   UNL     1     -21.930  -7.155   7.647  0.00  0.00    +0.000 OA
ATOM     40  H   UNL     1     -21.232  -7.211   8.322  0.00  0.00    +0.000 HD
ENDBRANCH  20  39
TORSDOF 7
ENDMDL
MODEL 4
REMARK VINA RESULT:      -5.9     16.555     18.341
REMARK  Name = Chlortetracycline.pdbqt.pdb
REMARK  7 active torsions:
REMARK  status: ('A' for Active; 'I' for Inactive)
REMARK    1  A    between atoms: C_7  and  O_30
REMARK    2  A    between atoms: C_8  and  N_32
REMARK    3  A    between atoms: C_9  and  O_37
REMARK    4  A    between atoms: C_12  and  O_28
REMARK    5  A    between atoms: C_15  and  O_35
REMARK    6  A    between atoms: C_16  and  C_23
REMARK    7  A    between atoms: C_20  and  O_39
REMARK                            x       y       z     vdW  Elec       q    Type
REMARK                         _______ _______ _______ _____ _____    ______ ____
ROOT
ATOM      1 CL   UNL     1     -23.980   2.002  10.324  0.00  0.00    +0.000 Cl
ATOM      2  O   UNL     1     -20.575  -5.022   9.717  0.00  0.00    +0.000 OA
ATOM      3  O   UNL     1     -26.016  -5.797  12.505  0.00  0.00    +0.000 OA
ATOM      4  C   UNL     1     -22.808  -4.556  12.670  0.00  0.00    +0.000 C 
ATOM      5  C   UNL     1     -22.732  -2.423  11.118  0.00  0.00    +0.000 C 
ATOM      6  C   UNL     1     -22.996  -3.224  12.247  0.00  0.00    +0.000 C 
ATOM      7  C   UNL     1     -22.037  -5.385  11.670  0.00  0.00    +0.000 C 
ATOM      8  C   UNL     1     -23.879  -5.239  13.374  0.00  0.00    +0.000 C 
ATOM      9  C   UNL     1     -22.920  -0.938  10.988  0.00  0.00    +0.000 C 
ATOM     10  C   UNL     1     -22.016  -3.160  10.098  0.00  0.00    +0.000 C 
ATOM     11  C   UNL     1     -21.468  -4.544  10.431  0.00  0.00    +0.000 C 
ATOM     12  C   UNL     1     -22.854  -6.546  11.094  0.00  0.00    +0.000 C 
ATOM     13  C   UNL     1     -22.911  -0.446   9.548  0.00  0.00    +0.000 A 
ATOM     14  C   UNL     1     -24.808  -5.977  12.473  0.00  0.00    +0.000 C 
ATOM     15  C   UNL     1     -21.808  -2.619   8.883  0.00  0.00    +0.000 C 
ATOM     16  C   UNL     1     -24.136  -6.819  11.433  0.00  0.00    +0.000 C 
ATOM     17  C   UNL     1     -22.393  -1.291   8.519  0.00  0.00    +0.000 A 
ATOM     18  C   UNL     1     -21.837  -0.237  11.833  0.00  0.00    +0.000 C 
ATOM     19  C   UNL     1     -23.394   0.835   9.191  0.00  0.00    +0.000 A 
ATOM     20  C   UNL     1     -22.456  -0.835   7.184  0.00  0.00    +0.000 A 
ATOM     21  C   UNL     1     -23.408   1.261   7.865  0.00  0.00    +0.000 A 
ATOM     22  C   UNL     1     -22.955   0.425   6.862  0.00  0.00    +0.000 A 
ENDROOT
BRANCH  16  23
ATOM     23  C   UNL     1     -24.883  -7.989  10.892  0.00  0.00    +0.000 C 
ATOM     24  O   UNL     1     -24.490  -9.138  11.042  0.00  0.00    +0.000 OA
ATOM     25  N   UNL     1     -26.025  -7.726  10.199  0.00  0.00    +0.000 N 
ATOM     26  H   UNL     1     -26.196  -6.795   9.835  0.00  0.00    +0.000 HD
ATOM     27  H   UNL     1     -26.465  -8.507   9.732  0.00  0.00    +0.000 HD
ENDBRANCH  16  23
BRANCH   8  28
ATOM     28  N   UNL     1     -23.725  -5.679  14.735  0.00  0.00    +0.000 NA
ATOM     29  C   UNL     1     -24.783  -5.226  15.628  0.00  0.00    +0.000 C 
ATOM     30  C   UNL     1     -23.605  -7.116  14.877  0.00  0.00    +0.000 C 
ENDBRANCH   8  28
BRANCH  12  31
ATOM     31  O   UNL     1     -22.156  -7.387  10.222  0.00  0.00    +0.000 OA
ATOM     32  H   UNL     1     -21.779  -6.838   9.498  0.00  0.00    +0.000 HD
ENDBRANCH  12  31
BRANCH   7  33
ATOM     33  O   UNL     1     -20.952  -6.011  12.355  0.00  0.00    +0.000 OA
ATOM     34  H   UNL     1     -20.205  -5.385  12.376  0.00  0.00    +0.000 HD
ENDBRANCH   7  33
BRANCH  15  35
ATOM     35  O   UNL     1     -21.040  -3.226   7.913  0.00  0.00    +0.000 OA
ATOM     36  H   UNL     1     -20.682  -2.557   7.293  0.00  0.00    +0.000 HD
ENDBRANCH  15  35
BRANCH   9  37
ATOM     37  O   UNL     1     -24.159  -0.646  11.603  0.00  0.00    +0.000 OA
ATOM     38  H   UNL     1     -24.658  -1.464  11.422  0.00  0.00    +0.000 HD
ENDBRANCH   9  37
BRANCH  20  39
ATOM     39  O   UNL     1     -22.074  -1.630   6.137  0.00  0.00    +0.000 OA
ATOM     40  H   UNL     1     -22.801  -2.233   5.906  0.00  0.00    +0.000 HD
ENDBRANCH  20  39
TORSDOF 7
ENDMDL
MODEL 5
REMARK VINA RESULT:      -5.9      4.458      7.124
REMARK  Name = Chlortetracycline.pdbqt.pdb
REMARK  7 active torsions:
REMARK  status: ('A' for Active; 'I' for Inactive)
REMARK    1  A    between atoms: C_7  and  O_30
REMARK    2  A    between atoms: C_8  and  N_32
REMARK    3  A    between atoms: C_9  and  O_37
REMARK    4  A    between atoms: C_12  and  O_28
REMARK    5  A    between atoms: C_15  and  O_35
REMARK    6  A    between atoms: C_16  and  C_23
REMARK    7  A    between atoms: C_20  and  O_39
REMARK                            x       y       z     vdW  Elec       q    Type
REMARK                         _______ _______ _______ _____ _____    ______ ____
ROOT
ATOM      1 CL   UNL     1     -13.895   1.639  25.479  0.00  0.00    +0.000 Cl
ATOM      2  O   UNL     1     -13.551  -6.179  25.232  0.00  0.00    +0.000 OA
ATOM      3  O   UNL     1      -7.795  -4.021  24.783  0.00  0.00    +0.000 OA
ATOM      4  C   UNL     1     -10.894  -4.382  23.325  0.00  0.00    +0.000 C 
ATOM      5  C   UNL     1     -12.527  -2.730  24.579  0.00  0.00    +0.000 C 
ATOM      6  C   UNL     1     -11.524  -3.175  23.694  0.00  0.00    +0.000 C 
ATOM      7  C   UNL     1     -11.491  -5.587  24.012  0.00  0.00    +0.000 C 
ATOM      8  C   UNL     1      -9.455  -4.405  23.130  0.00  0.00    +0.000 C 
ATOM      9  C   UNL     1     -13.122  -1.353  24.668  0.00  0.00    +0.000 C 
ATOM     10  C   UNL     1     -13.129  -3.832  25.299  0.00  0.00    +0.000 C 
ATOM     11  C   UNL     1     -12.797  -5.261  24.880  0.00  0.00    +0.000 C 
ATOM     12  C   UNL     1     -10.500  -6.305  24.934  0.00  0.00    +0.000 C 
ATOM     13  C   UNL     1     -13.888  -1.102  25.958  0.00  0.00    +0.000 A 
ATOM     14  C   UNL     1      -8.693  -4.738  24.366  0.00  0.00    +0.000 C 
ATOM     15  C   UNL     1     -13.996  -3.601  26.303  0.00  0.00    +0.000 C 
ATOM     16  C   UNL     1      -9.218  -5.915  25.128  0.00  0.00    +0.000 C 
ATOM     17  C   UNL     1     -14.284  -2.209  26.769  0.00  0.00    +0.000 A 
ATOM     18  C   UNL     1     -14.011  -1.129  23.428  0.00  0.00    +0.000 C 
ATOM     19  C   UNL     1     -14.233   0.204  26.382  0.00  0.00    +0.000 A 
ATOM     20  C   UNL     1     -14.936  -1.943  27.993  0.00  0.00    +0.000 A 
ATOM     21  C   UNL     1     -14.907   0.422  27.581  0.00  0.00    +0.000 A 
ATOM     22  C   UNL     1     -15.245  -0.645  28.392  0.00  0.00    +0.000 A 
ENDROOT
BRANCH  16  23
ATOM     23  C   UNL     1      -8.267  -6.668  25.993  0.00  0.00    +0.000 C 
ATOM     24  O   UNL     1      -8.481  -6.858  27.183  0.00  0.00    +0.000 OA
ATOM     25  N   UNL     1      -7.128  -7.127  25.406  0.00  0.00    +0.000 N 
ATOM     26  H   UNL     1      -6.819  -6.738  24.522  0.00  0.00    +0.000 HD
ATOM     27  H   UNL     1      -6.431  -7.531  26.017  0.00  0.00    +0.000 HD
ENDBRANCH  16  23
BRANCH   8  28
ATOM     28  N   UNL     1      -8.873  -4.695  21.847  0.00  0.00    +0.000 NA
ATOM     29  C   UNL     1      -9.844  -4.809  20.768  0.00  0.00    +0.000 C 
ATOM     30  C   UNL     1      -7.856  -3.748  21.437  0.00  0.00    +0.000 C 
ENDBRANCH   8  28
BRANCH  12  31
ATOM     31  O   UNL     1     -10.984  -7.473  25.532  0.00  0.00    +0.000 OA
ATOM     32  H   UNL     1     -10.256  -8.135  25.552  0.00  0.00    +0.000 HD
ENDBRANCH  12  31
BRANCH   7  33
ATOM     33  O   UNL     1     -11.817  -6.552  23.011  0.00  0.00    +0.000 OA
ATOM     34  H   UNL     1     -12.760  -6.448  22.786  0.00  0.00    +0.000 HD
ENDBRANCH   7  33
BRANCH  15  35
ATOM     35  O   UNL     1     -14.683  -4.607  26.948  0.00  0.00    +0.000 OA
ATOM     36  H   UNL     1     -15.473  -4.245  27.401  0.00  0.00    +0.000 HD
ENDBRANCH  15  35
BRANCH   9  37
ATOM     37  O   UNL     1     -12.038  -0.452  24.551  0.00  0.00    +0.000 OA
ATOM     38  H   UNL     1     -12.379   0.169  23.881  0.00  0.00    +0.000 HD
ENDBRANCH   9  37
BRANCH  20  39
ATOM     39  O   UNL     1     -15.253  -2.946  28.868  0.00  0.00    +0.000 OA
ATOM     40  H   UNL     1     -16.217  -2.974  28.994  0.00  0.00    +0.000 HD
ENDBRANCH  20  39
TORSDOF 7
ENDMDL
MODEL 6
REMARK VINA RESULT:      -5.7     17.350     20.371
REMARK  Name = Chlortetracycline.pdbqt.pdb
REMARK  7 active torsions:
REMARK  status: ('A' for Active; 'I' for Inactive)
REMARK    1  A    between atoms: C_7  and  O_30
REMARK    2  A    between atoms: C_8  and  N_32
REMARK    3  A    between atoms: C_9  and  O_37
REMARK    4  A    between atoms: C_12  and  O_28
REMARK    5  A    between atoms: C_15  and  O_35
REMARK    6  A    between atoms: C_16  and  C_23
REMARK    7  A    between atoms: C_20  and  O_39
REMARK                            x       y       z     vdW  Elec       q    Type
REMARK                         _______ _______ _______ _____ _____    ______ ____
ROOT
ATOM      1 CL   UNL     1     -26.578  -8.074  13.021  0.00  0.00    +0.000 Cl
ATOM      2  O   UNL     1     -20.200  -5.605   9.210  0.00  0.00    +0.000 OA
ATOM      3  O   UNL     1     -25.133  -3.281   6.338  0.00  0.00    +0.000 OA
ATOM      4  C   UNL     1     -23.258  -6.061   7.120  0.00  0.00    +0.000 C 
ATOM      5  C   UNL     1     -23.692  -6.584   9.670  0.00  0.00    +0.000 C 
ATOM      6  C   UNL     1     -23.912  -6.528   8.279  0.00  0.00    +0.000 C 
ATOM      7  C   UNL     1     -21.880  -5.512   7.407  0.00  0.00    +0.000 C 
ATOM      8  C   UNL     1     -24.023  -5.366   6.101  0.00  0.00    +0.000 C 
ATOM      9  C   UNL     1     -24.527  -7.296  10.699  0.00  0.00    +0.000 C 
ATOM     10  C   UNL     1     -22.397  -6.047  10.028  0.00  0.00    +0.000 C 
ATOM     11  C   UNL     1     -21.399  -5.720   8.920  0.00  0.00    +0.000 C 
ATOM     12  C   UNL     1     -21.750  -4.019   7.090  0.00  0.00    +0.000 C 
ATOM     13  C   UNL     1     -24.246  -6.850  12.125  0.00  0.00    +0.000 A 
ATOM     14  C   UNL     1     -24.074  -3.890   6.298  0.00  0.00    +0.000 C 
ATOM     15  C   UNL     1     -22.064  -5.868  11.319  0.00  0.00    +0.000 C 
ATOM     16  C   UNL     1     -22.754  -3.253   6.603  0.00  0.00    +0.000 C 
ATOM     17  C   UNL     1     -23.051  -6.122  12.414  0.00  0.00    +0.000 A 
ATOM     18  C   UNL     1     -24.315  -8.814  10.527  0.00  0.00    +0.000 C 
ATOM     19  C   UNL     1     -25.133  -7.140  13.190  0.00  0.00    +0.000 A 
ATOM     20  C   UNL     1     -22.848  -5.664  13.734  0.00  0.00    +0.000 A 
ATOM     21  C   UNL     1     -24.879  -6.700  14.486  0.00  0.00    +0.000 A 
ATOM     22  C   UNL     1     -23.749  -5.951  14.756  0.00  0.00    +0.000 A 
ENDROOT
BRANCH  16  23
ATOM     23  C   UNL     1     -22.577  -1.814   6.257  0.00  0.00    +0.000 C 
ATOM     24  O   UNL     1     -22.144  -1.000   7.062  0.00  0.00    +0.000 OA
ATOM     25  N   UNL     1     -22.935  -1.431   5.001  0.00  0.00    +0.000 N 
ATOM     26  H   UNL     1     -23.543  -2.021   4.444  0.00  0.00    +0.000 HD
ATOM     27  H   UNL     1     -22.927  -0.439   4.807  0.00  0.00    +0.000 HD
ENDBRANCH  16  23
BRANCH   8  28
ATOM     28  N   UNL     1     -24.171  -5.901   4.774  0.00  0.00    +0.000 NA
ATOM     29  C   UNL     1     -23.124  -5.492   3.849  0.00  0.00    +0.000 C 
ATOM     30  C   UNL     1     -24.266  -7.346   4.732  0.00  0.00    +0.000 C 
ENDBRANCH   8  28
BRANCH  12  31
ATOM     31  O   UNL     1     -20.470  -3.485   7.265  0.00  0.00    +0.000 OA
ATOM     32  H   UNL     1     -20.129  -3.780   8.140  0.00  0.00    +0.000 HD
ENDBRANCH  12  31
BRANCH   7  33
ATOM     33  O   UNL     1     -20.956  -6.151   6.525  0.00  0.00    +0.000 OA
ATOM     34  H   UNL     1     -20.919  -5.634   5.699  0.00  0.00    +0.000 HD
ENDBRANCH   7  33
BRANCH  15  35
ATOM     35  O   UNL     1     -20.808  -5.466  11.722  0.00  0.00    +0.000 OA
ATOM     36  H   UNL     1     -20.865  -4.635  12.239  0.00  0.00    +0.000 HD
ENDBRANCH  15  35
BRANCH   9  37
ATOM     37  O   UNL     1     -25.873  -7.038  10.354  0.00  0.00    +0.000 OA
ATOM     38  H   UNL     1     -25.778  -6.728   9.434  0.00  0.00    +0.000 HD
ENDBRANCH   9  37
BRANCH  20  39
ATOM     39  O   UNL     1     -21.779  -4.876  14.062  0.00  0.00    +0.000 OA
ATOM     40  H   UNL     1     -22.051  -3.942  14.056  0.00  0.00    +0.000 HD
ENDBRANCH  20  39
TORSDOF 7
ENDMDL
MODEL 7
REMARK VINA RESULT:      -5.7     20.963     24.471
REMARK  Name = Chlortetracycline.pdbqt.pdb
REMARK  7 active torsions:
REMARK  status: ('A' for Active; 'I' for Inactive)
REMARK    1  A    between atoms: C_7  and  O_30
REMARK    2  A    between atoms: C_8  and  N_32
REMARK    3  A    between atoms: C_9  and  O_37
REMARK    4  A    between atoms: C_12  and  O_28
REMARK    5  A    between atoms: C_15  and  O_35
REMARK    6  A    between atoms: C_16  and  C_23
REMARK    7  A    between atoms: C_20  and  O_39
REMARK                            x       y       z     vdW  Elec       q    Type
REMARK                         _______ _______ _______ _____ _____    ______ ____
ROOT
ATOM      1 CL   UNL     1     -19.383 -14.046   4.057  0.00  0.00    +0.000 Cl
ATOM      2  O   UNL     1     -11.580 -14.539   3.634  0.00  0.00    +0.000 OA
ATOM      3  O   UNL     1     -13.553 -11.513  -1.359  0.00  0.00    +0.000 OA
ATOM      4  C   UNL     1     -13.377 -14.490   0.365  0.00  0.00    +0.000 C 
ATOM      5  C   UNL     1     -15.019 -14.282   2.420  0.00  0.00    +0.000 C 
ATOM      6  C   UNL     1     -14.585 -14.468   1.092  0.00  0.00    +0.000 C 
ATOM      7  C   UNL     1     -12.160 -14.338   1.246  0.00  0.00    +0.000 C 
ATOM      8  C   UNL     1     -13.314 -13.836  -0.931  0.00  0.00    +0.000 C 
ATOM      9  C   UNL     1     -16.411 -14.461   2.960  0.00  0.00    +0.000 C 
ATOM     10  C   UNL     1     -13.904 -14.100   3.325  0.00  0.00    +0.000 C 
ATOM     11  C   UNL     1     -12.488 -14.344   2.814  0.00  0.00    +0.000 C 
ATOM     12  C   UNL     1     -11.362 -13.063   0.954  0.00  0.00    +0.000 C 
ATOM     13  C   UNL     1     -16.623 -13.819   4.323  0.00  0.00    +0.000 A 
ATOM     14  C   UNL     1     -12.891 -12.409  -0.857  0.00  0.00    +0.000 C 
ATOM     15  C   UNL     1     -14.115 -13.752   4.608  0.00  0.00    +0.000 C 
ATOM     16  C   UNL     1     -11.696 -12.154   0.008  0.00  0.00    +0.000 C 
ATOM     17  C   UNL     1     -15.490 -13.446   5.109  0.00  0.00    +0.000 A 
ATOM     18  C   UNL     1     -16.728 -15.969   2.988  0.00  0.00    +0.000 C 
ATOM     19  C   UNL     1     -17.916 -13.585   4.848  0.00  0.00    +0.000 A 
ATOM     20  C   UNL     1     -15.717 -12.793   6.341  0.00  0.00    +0.000 A 
ATOM     21  C   UNL     1     -18.096 -12.969   6.083  0.00  0.00    +0.000 A 
ATOM     22  C   UNL     1     -17.003 -12.560   6.822  0.00  0.00    +0.000 A 
ENDROOT
BRANCH  16  23
ATOM     23  C   UNL     1     -10.866 -10.951  -0.284  0.00  0.00    +0.000 C 
ATOM     24  O   UNL     1      -9.751 -11.035  -0.781  0.00  0.00    +0.000 OA
ATOM     25  N   UNL     1     -11.396  -9.741   0.043  0.00  0.00    +0.000 N 
ATOM     26  H   UNL     1     -12.169  -9.684   0.697  0.00  0.00    +0.000 HD
ATOM     27  H   UNL     1     -10.788  -8.938  -0.044  0.00  0.00    +0.000 HD
ENDBRANCH  16  23
BRANCH   8  28
ATOM     28  N   UNL     1     -13.069 -14.578  -2.138  0.00  0.00    +0.000 NA
ATOM     29  C   UNL     1     -11.721 -14.423  -2.667  0.00  0.00    +0.000 C 
ATOM     30  C   UNL     1     -13.342 -15.996  -2.020  0.00  0.00    +0.000 C 
ENDBRANCH   8  28
BRANCH  12  31
ATOM     31  O   UNL     1     -10.183 -12.919   1.692  0.00  0.00    +0.000 OA
ATOM     32  H   UNL     1      -9.865 -11.993   1.589  0.00  0.00    +0.000 HD
ENDBRANCH  12  31
BRANCH   7  33
ATOM     33  O   UNL     1     -11.260 -15.405   0.946  0.00  0.00    +0.000 OA
ATOM     34  H   UNL     1     -11.491 -15.759   0.067  0.00  0.00    +0.000 HD
ENDBRANCH   7  33
BRANCH  15  35
ATOM     35  O   UNL     1     -13.102 -13.673   5.540  0.00  0.00    +0.000 OA
ATOM     36  H   UNL     1     -13.462 -13.783   6.445  0.00  0.00    +0.000 HD
ENDBRANCH  15  35
BRANCH   9  37
ATOM     37  O   UNL     1     -17.277 -13.887   2.001  0.00  0.00    +0.000 OA
ATOM     38  H   UNL     1     -17.054 -14.407   1.208  0.00  0.00    +0.000 HD
ENDBRANCH   9  37
BRANCH  20  39
ATOM     39  O   UNL     1     -14.682 -12.316   7.099  0.00  0.00    +0.000 OA
ATOM     40  H   UNL     1     -14.380 -11.466   6.737  0.00  0.00    +0.000 HD
ENDBRANCH  20  39
TORSDOF 7
ENDMDL
MODEL 8
REMARK VINA RESULT:      -5.7     16.709     19.116
REMARK  Name = Chlortetracycline.pdbqt.pdb
REMARK  7 active torsions:
REMARK  status: ('A' for Active; 'I' for Inactive)
REMARK    1  A    between atoms: C_7  and  O_30
REMARK    2  A    between atoms: C_8  and  N_32
REMARK    3  A    between atoms: C_9  and  O_37
REMARK    4  A    between atoms: C_12  and  O_28
REMARK    5  A    between atoms: C_15  and  O_35
REMARK    6  A    between atoms: C_16  and  C_23
REMARK    7  A    between atoms: C_20  and  O_39
REMARK                            x       y       z     vdW  Elec       q    Type
REMARK                         _______ _______ _______ _____ _____    ______ ____
ROOT
ATOM      1 CL   UNL     1     -28.268  -4.460  15.124  0.00  0.00    +0.000 Cl
ATOM      2  O   UNL     1     -21.213  -6.340  12.298  0.00  0.00    +0.000 OA
ATOM      3  O   UNL     1     -24.467  -3.806   7.718  0.00  0.00    +0.000 OA
ATOM      4  C   UNL     1     -24.025  -6.475   9.849  0.00  0.00    +0.000 C 
ATOM      5  C   UNL     1     -24.809  -5.683  12.241  0.00  0.00    +0.000 C 
ATOM      6  C   UNL     1     -24.891  -6.138  10.910  0.00  0.00    +0.000 C 
ATOM      7  C   UNL     1     -22.568  -6.403  10.238  0.00  0.00    +0.000 C 
ATOM      8  C   UNL     1     -24.348  -6.044   8.500  0.00  0.00    +0.000 C 
ATOM      9  C   UNL     1     -25.934  -5.537  13.228  0.00  0.00    +0.000 C 
ATOM     10  C   UNL     1     -23.435  -5.560  12.679  0.00  0.00    +0.000 C 
ATOM     11  C   UNL     1     -22.323  -6.118  11.795  0.00  0.00    +0.000 C 
ATOM     12  C   UNL     1     -21.787  -5.343   9.454  0.00  0.00    +0.000 C 
ATOM     13  C   UNL     1     -25.583  -4.672  14.428  0.00  0.00    +0.000 A 
ATOM     14  C   UNL     1     -23.773  -4.717   8.146  0.00  0.00    +0.000 C 
ATOM     15  C   UNL     1     -23.142  -4.993  13.864  0.00  0.00    +0.000 C 
ATOM     16  C   UNL     1     -22.330  -4.543   8.506  0.00  0.00    +0.000 C 
ATOM     17  C   UNL     1     -24.213  -4.384  14.713  0.00  0.00    +0.000 A 
ATOM     18  C   UNL     1     -26.385  -6.948  13.658  0.00  0.00    +0.000 C 
ATOM     19  C   UNL     1     -26.576  -4.143  15.287  0.00  0.00    +0.000 A 
ATOM     20  C   UNL     1     -23.920  -3.525  15.795  0.00  0.00    +0.000 A 
ATOM     21  C   UNL     1     -26.243  -3.327  16.364  0.00  0.00    +0.000 A 
ATOM     22  C   UNL     1     -24.922  -3.006  16.610  0.00  0.00    +0.000 A 
ENDROOT
BRANCH  16  23
ATOM     23  C   UNL     1     -21.529  -3.557   7.727  0.00  0.00    +0.000 C 
ATOM     24  O   UNL     1     -20.543  -3.886   7.081  0.00  0.00    +0.000 OA
ATOM     25  N   UNL     1     -21.931  -2.258   7.775  0.00  0.00    +0.000 N 
ATOM     26  H   UNL     1     -22.552  -1.944   8.513  0.00  0.00    +0.000 HD
ATOM     27  H   UNL     1     -21.321  -1.575   7.345  0.00  0.00    +0.000 HD
ENDBRANCH  16  23
BRANCH   8  28
ATOM     28  N   UNL     1     -24.625  -6.990   7.452  0.00  0.00    +0.000 NA
ATOM     29  C   UNL     1     -23.469  -7.320   6.630  0.00  0.00    +0.000 C 
ATOM     30  C   UNL     1     -25.208  -8.230   7.922  0.00  0.00    +0.000 C 
ENDBRANCH   8  28
BRANCH  12  31
ATOM     31  O   UNL     1     -20.417  -5.294   9.724  0.00  0.00    +0.000 OA
ATOM     32  H   UNL     1     -19.942  -5.764   9.001  0.00  0.00    +0.000 HD
ENDBRANCH  12  31
BRANCH   7  33
ATOM     33  O   UNL     1     -21.952  -7.642   9.881  0.00  0.00    +0.000 OA
ATOM     34  H   UNL     1     -21.100  -7.444   9.449  0.00  0.00    +0.000 HD
ENDBRANCH   7  33
BRANCH  15  35
ATOM     35  O   UNL     1     -21.865  -4.950  14.381  0.00  0.00    +0.000 OA
ATOM     36  H   UNL     1     -21.262  -5.508  13.846  0.00  0.00    +0.000 HD
ENDBRANCH  15  35
BRANCH   9  37
ATOM     37  O   UNL     1     -27.013  -4.974  12.508  0.00  0.00    +0.000 OA
ATOM     38  H   UNL     1     -27.773  -5.278  13.038  0.00  0.00    +0.000 HD
ENDBRANCH   9  37
BRANCH  20  39
ATOM     39  O   UNL     1     -22.640  -3.124  16.064  0.00  0.00    +0.000 OA
ATOM     40  H   UNL     1     -22.064  -3.351  15.314  0.00  0.00    +0.000 HD
ENDBRANCH  20  39
TORSDOF 7
ENDMDL
MODEL 9
REMARK VINA RESULT:      -5.7     14.771     17.536
REMARK  Name = Chlortetracycline.pdbqt.pdb
REMARK  7 active torsions:
REMARK  status: ('A' for Active; 'I' for Inactive)
REMARK    1  A    between atoms: C_7  and  O_30
REMARK    2  A    between atoms: C_8  and  N_32
REMARK    3  A    between atoms: C_9  and  O_37
REMARK    4  A    between atoms: C_12  and  O_28
REMARK    5  A    between atoms: C_15  and  O_35
REMARK    6  A    between atoms: C_16  and  C_23
REMARK    7  A    between atoms: C_20  and  O_39
REMARK                            x       y       z     vdW  Elec       q    Type
REMARK                         _______ _______ _______ _____ _____    ______ ____
ROOT
ATOM      1 CL   UNL     1       1.027   2.206   3.461  0.00  0.00    +0.000 Cl
ATOM      2  O   UNL     1      -2.554   2.425  10.421  0.00  0.00    +0.000 OA
ATOM      3  O   UNL     1      -4.876   6.964   6.959  0.00  0.00    +0.000 OA
ATOM      4  C   UNL     1      -2.177   5.710   8.691  0.00  0.00    +0.000 C 
ATOM      5  C   UNL     1      -1.219   3.706   7.267  0.00  0.00    +0.000 C 
ATOM      6  C   UNL     1      -1.477   5.030   7.672  0.00  0.00    +0.000 C 
ATOM      7  C   UNL     1      -2.789   4.774   9.706  0.00  0.00    +0.000 C 
ATOM      8  C   UNL     1      -2.959   6.887   8.355  0.00  0.00    +0.000 C 
ATOM      9  C   UNL     1      -0.284   3.248   6.182  0.00  0.00    +0.000 C 
ATOM     10  C   UNL     1      -1.801   2.745   8.180  0.00  0.00    +0.000 C 
ATOM     11  C   UNL     1      -2.384   3.238   9.501  0.00  0.00    +0.000 C 
ATOM     12  C   UNL     1      -4.319   4.840   9.739  0.00  0.00    +0.000 C 
ATOM     13  C   UNL     1      -0.519   1.812   5.740  0.00  0.00    +0.000 A 
ATOM     14  C   UNL     1      -4.374   6.582   8.005  0.00  0.00    +0.000 C 
ATOM     15  C   UNL     1      -1.799   1.432   7.883  0.00  0.00    +0.000 C 
ATOM     16  C   UNL     1      -5.065   5.647   8.948  0.00  0.00    +0.000 C 
ATOM     17  C   UNL     1      -1.290   0.939   6.566  0.00  0.00    +0.000 A 
ATOM     18  C   UNL     1       1.164   3.462   6.669  0.00  0.00    +0.000 C 
ATOM     19  C   UNL     1       0.013   1.303   4.531  0.00  0.00    +0.000 A 
ATOM     20  C   UNL     1      -1.547  -0.370   6.100  0.00  0.00    +0.000 A 
ATOM     21  C   UNL     1      -0.235  -0.005   4.124  0.00  0.00    +0.000 A 
ATOM     22  C   UNL     1      -1.025  -0.835   4.896  0.00  0.00    +0.000 A 
ENDROOT
BRANCH  16  23
ATOM     23  C   UNL     1      -6.550   5.723   9.044  0.00  0.00    +0.000 C 
ATOM     24  O   UNL     1      -7.115   6.220  10.009  0.00  0.00    +0.000 OA
ATOM     25  N   UNL     1      -7.264   5.195   8.013  0.00  0.00    +0.000 N 
ATOM     26  H   UNL     1      -6.824   4.545   7.369  0.00  0.00    +0.000 HD
ATOM     27  H   UNL     1      -8.266   5.139   8.133  0.00  0.00    +0.000 HD
ENDBRANCH  16  23
BRANCH   8  28
ATOM     28  N   UNL     1      -2.631   8.185   8.884  0.00  0.00    +0.000 NA
ATOM     29  C   UNL     1      -3.366   8.537  10.090  0.00  0.00    +0.000 C 
ATOM     30  C   UNL     1      -1.219   8.370   9.150  0.00  0.00    +0.000 C 
ENDBRANCH   8  28
BRANCH  12  31
ATOM     31  O   UNL     1      -4.926   4.048  10.718  0.00  0.00    +0.000 OA
ATOM     32  H   UNL     1      -5.305   4.642  11.406  0.00  0.00    +0.000 HD
ENDBRANCH  12  31
BRANCH   7  33
ATOM     33  O   UNL     1      -2.381   5.201  11.006  0.00  0.00    +0.000 OA
ATOM     34  H   UNL     1      -1.887   6.037  10.909  0.00  0.00    +0.000 HD
ENDBRANCH   7  33
BRANCH  15  35
ATOM     35  O   UNL     1      -2.238   0.464   8.761  0.00  0.00    +0.000 OA
ATOM     36  H   UNL     1      -1.919   0.656   9.668  0.00  0.00    +0.000 HD
ENDBRANCH  15  35
BRANCH   9  37
ATOM     37  O   UNL     1      -0.478   4.138   5.100  0.00  0.00    +0.000 OA
ATOM     38  H   UNL     1      -0.713   4.959   5.570  0.00  0.00    +0.000 HD
ENDBRANCH   9  37
BRANCH  20  39
ATOM     39  O   UNL     1      -2.362  -1.227   6.789  0.00  0.00    +0.000 OA
ATOM     40  H   UNL     1      -2.566  -0.850   7.662  0.00  0.00    +0.000 HD
ENDBRANCH  20  39
TORSDOF 7
ENDMDL
