MODEL 1
REMARK VINA RESULT:      -6.1      0.000      0.000
REMARK  Name = Ciclopirox.pdbqt.pdb
REMARK  2 active torsions:
REMARK  status: ('A' for Active; 'I' for Inactive)
REMARK    1  A    between atoms: N_2  and  O_15
REMARK    2  A    between atoms: C_3  and  C_9
REMARK                            x       y       z     vdW  Elec       q    Type
REMARK                         _______ _______ _______ _____ _____    ______ ____
ROOT
ATOM      1  O   UNL     1      -8.192  -4.253  25.022  0.00  0.00    +0.000 OA
ATOM      2  N   UNL     1      -8.659  -4.448  22.735  0.00  0.00    +0.000 N 
ATOM      3  C   UNL     1      -9.607  -4.687  21.731  0.00  0.00    +0.000 C 
ATOM      4  C   UNL     1     -10.782  -4.956  22.243  0.00  0.00    +0.000 C 
ATOM      5  C   UNL     1     -11.353  -5.092  23.542  0.00  0.00    +0.000 C 
ATOM      6  C   UNL     1      -8.966  -4.495  24.107  0.00  0.00    +0.000 C 
ATOM      7  C   UNL     1     -10.351  -4.841  24.331  0.00  0.00    +0.000 C 
ATOM      8  C   UNL     1     -12.309  -6.199  23.837  0.00  0.00    +0.000 C 
ENDROOT
BRANCH   3   9
ATOM      9  C   UNL     1      -9.345  -4.630  20.322  0.00  0.00    +0.000 A 
ATOM     10  C   UNL     1     -10.071  -3.787  19.401  0.00  0.00    +0.000 A 
ATOM     11  C   UNL     1     -10.101  -3.782  17.855  0.00  0.00    +0.000 A 
ATOM     12  C   UNL     1      -9.223  -4.836  17.155  0.00  0.00    +0.000 A 
ATOM     13  C   UNL     1      -8.406  -5.784  18.052  0.00  0.00    +0.000 A 
ATOM     14  C   UNL     1      -8.554  -5.577  19.576  0.00  0.00    +0.000 A 
ENDBRANCH   3   9
BRANCH   2  15
ATOM     15  O   UNL     1      -7.358  -4.054  22.367  0.00  0.00    +0.000 OA
ATOM     16  H   UNL     1      -7.041  -3.590  23.169  0.00  0.00    +0.000 HD
ENDBRANCH   2  15
TORSDOF 2
ENDMDL
MODEL 2
REMARK VINA RESULT:      -5.8      3.592      4.684
REMARK  Name = Ciclopirox.pdbqt.pdb
REMARK  2 active torsions:
REMARK  status: ('A' for Active; 'I' for Inactive)
REMARK    1  A    between atoms: N_2  and  O_15
REMARK    2  A    between atoms: C_3  and  C_9
REMARK                            x       y       z     vdW  Elec       q    Type
REMARK                         _______ _______ _______ _____ _____    ______ ____
ROOT
ATOM      1  O   UNL     1     -11.462  -0.026  23.555  0.00  0.00    +0.000 OA
ATOM      2  N   UNL     1     -10.673  -1.450  21.872  0.00  0.00    +0.000 N 
ATOM      3  C   UNL     1      -9.869  -1.617  20.736  0.00  0.00    +0.000 C 
ATOM      4  C   UNL     1      -9.290  -0.493  20.395  0.00  0.00    +0.000 C 
ATOM      5  C   UNL     1      -9.270   0.856  20.854  0.00  0.00    +0.000 C 
ATOM      6  C   UNL     1     -10.812  -0.219  22.538  0.00  0.00    +0.000 C 
ATOM      7  C   UNL     1     -10.053   0.826  21.890  0.00  0.00    +0.000 C 
ATOM      8  C   UNL     1      -9.321   1.986  19.880  0.00  0.00    +0.000 C 
ENDROOT
BRANCH   3   9
ATOM      9  C   UNL     1      -9.681  -2.855  20.037  0.00  0.00    +0.000 A 
ATOM     10  C   UNL     1      -8.783  -3.899  20.473  0.00  0.00    +0.000 A 
ATOM     11  C   UNL     1      -8.271  -5.158  19.735  0.00  0.00    +0.000 A 
ATOM     12  C   UNL     1      -8.787  -5.359  18.298  0.00  0.00    +0.000 A 
ATOM     13  C   UNL     1      -9.754  -4.299  17.739  0.00  0.00    +0.000 A 
ATOM     14  C   UNL     1     -10.109  -3.132  18.688  0.00  0.00    +0.000 A 
ENDBRANCH   3   9
BRANCH   2  15
ATOM     15  O   UNL     1     -11.303  -2.577  22.435  0.00  0.00    +0.000 OA
ATOM     16  H   UNL     1     -11.288  -2.372  23.392  0.00  0.00    +0.000 HD
ENDBRANCH   2  15
TORSDOF 2
ENDMDL
MODEL 3
REMARK VINA RESULT:      -5.7      3.875      5.113
REMARK  Name = Ciclopirox.pdbqt.pdb
REMARK  2 active torsions:
REMARK  status: ('A' for Active; 'I' for Inactive)
REMARK    1  A    between atoms: N_2  and  O_15
REMARK    2  A    between atoms: C_3  and  C_9
REMARK                            x       y       z     vdW  Elec       q    Type
REMARK                         _______ _______ _______ _____ _____    ______ ____
ROOT
ATOM      1  O   UNL     1     -12.082  -4.110  22.471  0.00  0.00    +0.000 OA
ATOM      2  N   UNL     1     -10.634  -2.447  21.683  0.00  0.00    +0.000 N 
ATOM      3  C   UNL     1      -9.647  -2.067  20.763  0.00  0.00    +0.000 C 
ATOM      4  C   UNL     1      -9.327  -3.063  19.974  0.00  0.00    +0.000 C 
ATOM      5  C   UNL     1      -9.694  -4.430  19.810  0.00  0.00    +0.000 C 
ATOM      6  C   UNL     1     -11.190  -3.738  21.722  0.00  0.00    +0.000 C 
ATOM      7  C   UNL     1     -10.599  -4.602  20.726  0.00  0.00    +0.000 C 
ATOM      8  C   UNL     1      -8.653  -5.467  19.547  0.00  0.00    +0.000 C 
ENDROOT
BRANCH   3   9
ATOM      9  C   UNL     1      -9.066  -0.759  20.673  0.00  0.00    +0.000 A 
ATOM     10  C   UNL     1      -7.986  -0.298  21.513  0.00  0.00    +0.000 A 
ATOM     11  C   UNL     1      -7.418   1.124  21.729  0.00  0.00    +0.000 A 
ATOM     12  C   UNL     1      -8.094   2.254  20.930  0.00  0.00    +0.000 A 
ATOM     13  C   UNL     1      -9.258   1.863  20.001  0.00  0.00    +0.000 A 
ATOM     14  C   UNL     1      -9.630   0.364  19.967  0.00  0.00    +0.000 A 
ENDBRANCH   3   9
BRANCH   2  15
ATOM     15  O   UNL     1     -11.166  -1.476  22.554  0.00  0.00    +0.000 OA
ATOM     16  H   UNL     1     -10.435  -0.828  22.622  0.00  0.00    +0.000 HD
ENDBRANCH   2  15
TORSDOF 2
ENDMDL
MODEL 4
REMARK VINA RESULT:      -5.6      2.055      2.109
REMARK  Name = Ciclopirox.pdbqt.pdb
REMARK  2 active torsions:
REMARK  status: ('A' for Active; 'I' for Inactive)
REMARK    1  A    between atoms: N_2  and  O_15
REMARK    2  A    between atoms: C_3  and  C_9
REMARK                            x       y       z     vdW  Elec       q    Type
REMARK                         _______ _______ _______ _____ _____    ______ ____
ROOT
ATOM      1  O   UNL     1      -9.282  -0.982  24.008  0.00  0.00    +0.000 OA
ATOM      2  N   UNL     1      -9.247  -2.386  22.134  0.00  0.00    +0.000 N 
ATOM      3  C   UNL     1      -9.962  -3.197  21.242  0.00  0.00    +0.000 C 
ATOM      4  C   UNL     1     -11.228  -3.262  21.571  0.00  0.00    +0.000 C 
ATOM      5  C   UNL     1     -12.071  -2.748  22.598  0.00  0.00    +0.000 C 
ATOM      6  C   UNL     1      -9.847  -1.735  23.227  0.00  0.00    +0.000 C 
ATOM      7  C   UNL     1     -11.257  -2.033  23.316  0.00  0.00    +0.000 C 
ATOM      8  C   UNL     1     -13.104  -3.617  23.235  0.00  0.00    +0.000 C 
ENDROOT
BRANCH   3   9
ATOM      9  C   UNL     1      -9.398  -3.863  20.104  0.00  0.00    +0.000 A 
ATOM     10  C   UNL     1      -9.848  -3.660  18.746  0.00  0.00    +0.000 A 
ATOM     11  C   UNL     1      -9.543  -4.456  17.457  0.00  0.00    +0.000 A 
ATOM     12  C   UNL     1      -8.609  -5.671  17.614  0.00  0.00    +0.000 A 
ATOM     13  C   UNL     1      -8.072  -5.971  19.025  0.00  0.00    +0.000 A 
ATOM     14  C   UNL     1      -8.532  -5.015  20.148  0.00  0.00    +0.000 A 
ENDBRANCH   3   9
BRANCH   2  15
ATOM     15  O   UNL     1      -7.885  -2.129  21.882  0.00  0.00    +0.000 OA
ATOM     16  H   UNL     1      -7.529  -3.024  21.709  0.00  0.00    +0.000 HD
ENDBRANCH   2  15
TORSDOF 2
ENDMDL
MODEL 5
REMARK VINA RESULT:      -5.6      2.183      2.251
REMARK  Name = Ciclopirox.pdbqt.pdb
REMARK  2 active torsions:
REMARK  status: ('A' for Active; 'I' for Inactive)
REMARK    1  A    between atoms: N_2  and  O_15
REMARK    2  A    between atoms: C_3  and  C_9
REMARK                            x       y       z     vdW  Elec       q    Type
REMARK                         _______ _______ _______ _____ _____    ______ ____
ROOT
ATOM      1  O   UNL     1     -12.150  -1.651  24.038  0.00  0.00    +0.000 OA
ATOM      2  N   UNL     1     -11.146  -2.843  22.290  0.00  0.00    +0.000 N 
ATOM      3  C   UNL     1     -11.007  -4.058  21.605  0.00  0.00    +0.000 C 
ATOM      4  C   UNL     1     -11.718  -5.004  22.169  0.00  0.00    +0.000 C 
ATOM      5  C   UNL     1     -12.577  -5.137  23.298  0.00  0.00    +0.000 C 
ATOM      6  C   UNL     1     -11.957  -2.694  23.429  0.00  0.00    +0.000 C 
ATOM      7  C   UNL     1     -12.589  -3.938  23.801  0.00  0.00    +0.000 C 
ATOM      8  C   UNL     1     -12.492  -6.342  24.175  0.00  0.00    +0.000 C 
ENDROOT
BRANCH   3   9
ATOM      9  C   UNL     1     -10.209  -4.253  20.430  0.00  0.00    +0.000 A 
ATOM     10  C   UNL     1     -10.573  -3.768  19.119  0.00  0.00    +0.000 A 
ATOM     11  C   UNL     1      -9.982  -4.094  17.728  0.00  0.00    +0.000 A 
ATOM     12  C   UNL     1      -8.812  -5.095  17.705  0.00  0.00    +0.000 A 
ATOM     13  C   UNL     1      -8.346  -5.670  19.055  0.00  0.00    +0.000 A 
ATOM     14  C   UNL     1      -9.109  -5.177  20.305  0.00  0.00    +0.000 A 
ENDBRANCH   3   9
BRANCH   2  15
ATOM     15  O   UNL     1     -10.522  -1.691  21.772  0.00  0.00    +0.000 OA
ATOM     16  H   UNL     1     -10.998  -1.555  20.927  0.00  0.00    +0.000 HD
ENDBRANCH   2  15
TORSDOF 2
ENDMDL
MODEL 6
REMARK VINA RESULT:      -5.0     17.429     19.088
REMARK  Name = Ciclopirox.pdbqt.pdb
REMARK  2 active torsions:
REMARK  status: ('A' for Active; 'I' for Inactive)
REMARK    1  A    between atoms: N_2  and  O_15
REMARK    2  A    between atoms: C_3  and  C_9
REMARK                            x       y       z     vdW  Elec       q    Type
REMARK                         _______ _______ _______ _____ _____    ______ ____
ROOT
ATOM      1  O   UNL     1       9.090 -13.265  12.598  0.00  0.00    +0.000 OA
ATOM      2  N   UNL     1       7.070 -12.105  12.362  0.00  0.00    +0.000 N 
ATOM      3  C   UNL     1       5.829 -11.753  12.912  0.00  0.00    +0.000 C 
ATOM      4  C   UNL     1       5.647 -12.324  14.076  0.00  0.00    +0.000 C 
ATOM      5  C   UNL     1       6.359 -13.220  14.926  0.00  0.00    +0.000 C 
ATOM      6  C   UNL     1       7.980 -12.960  13.009  0.00  0.00    +0.000 C 
ATOM      7  C   UNL     1       7.461 -13.433  14.271  0.00  0.00    +0.000 C 
ATOM      8  C   UNL     1       5.645 -14.332  15.620  0.00  0.00    +0.000 C 
ENDROOT
BRANCH   3   9
ATOM      9  C   UNL     1       4.879 -10.870  12.299  0.00  0.00    +0.000 A 
ATOM     10  C   UNL     1       4.970  -9.429  12.347  0.00  0.00    +0.000 A 
ATOM     11  C   UNL     1       3.934  -8.344  11.976  0.00  0.00    +0.000 A 
ATOM     12  C   UNL     1       2.571  -8.852  11.468  0.00  0.00    +0.000 A 
ATOM     13  C   UNL     1       2.374 -10.377  11.378  0.00  0.00    +0.000 A 
ATOM     14  C   UNL     1       3.576 -11.246  11.812  0.00  0.00    +0.000 A 
ENDBRANCH   3   9
BRANCH   2  15
ATOM     15  O   UNL     1       7.474 -11.511  11.151  0.00  0.00    +0.000 OA
ATOM     16  H   UNL     1       8.422 -11.748  11.104  0.00  0.00    +0.000 HD
ENDBRANCH   2  15
TORSDOF 2
ENDMDL
MODEL 7
REMARK VINA RESULT:      -4.9     17.169     18.105
REMARK  Name = Ciclopirox.pdbqt.pdb
REMARK  2 active torsions:
REMARK  status: ('A' for Active; 'I' for Inactive)
REMARK    1  A    between atoms: N_2  and  O_15
REMARK    2  A    between atoms: C_3  and  C_9
REMARK                            x       y       z     vdW  Elec       q    Type
REMARK                         _______ _______ _______ _____ _____    ______ ____
ROOT
ATOM      1  O   UNL     1       6.619 -11.149  11.723  0.00  0.00    +0.000 OA
ATOM      2  N   UNL     1       6.298  -8.960  12.490  0.00  0.00    +0.000 N 
ATOM      3  C   UNL     1       5.406  -7.912  12.757  0.00  0.00    +0.000 C 
ATOM      4  C   UNL     1       4.183  -8.233  12.417  0.00  0.00    +0.000 C 
ATOM      5  C   UNL     1       3.516  -9.349  11.833  0.00  0.00    +0.000 C 
ATOM      6  C   UNL     1       5.894 -10.187  11.934  0.00  0.00    +0.000 C 
ATOM      7  C   UNL     1       4.477 -10.207  11.658  0.00  0.00    +0.000 C 
ATOM      8  C   UNL     1       2.465  -9.144  10.793  0.00  0.00    +0.000 C 
ENDROOT
BRANCH   3   9
ATOM      9  C   UNL     1       5.768  -6.653  13.340  0.00  0.00    +0.000 A 
ATOM     10  C   UNL     1       5.677  -6.364  14.753  0.00  0.00    +0.000 A 
ATOM     11  C   UNL     1       5.776  -5.021  15.512  0.00  0.00    +0.000 A 
ATOM     12  C   UNL     1       6.010  -3.768  14.647  0.00  0.00    +0.000 A 
ATOM     13  C   UNL     1       6.123  -3.971  13.125  0.00  0.00    +0.000 A 
ATOM     14  C   UNL     1       5.989  -5.425  12.619  0.00  0.00    +0.000 A 
ENDBRANCH   3   9
BRANCH   2  15
ATOM     15  O   UNL     1       7.646  -8.825  12.876  0.00  0.00    +0.000 OA
ATOM     16  H   UNL     1       7.587  -8.815  13.853  0.00  0.00    +0.000 HD
ENDBRANCH   2  15
TORSDOF 2
ENDMDL
MODEL 8
REMARK VINA RESULT:      -4.9      4.212      5.217
REMARK  Name = Ciclopirox.pdbqt.pdb
REMARK  2 active torsions:
REMARK  status: ('A' for Active; 'I' for Inactive)
REMARK    1  A    between atoms: N_2  and  O_15
REMARK    2  A    between atoms: C_3  and  C_9
REMARK                            x       y       z     vdW  Elec       q    Type
REMARK                         _______ _______ _______ _____ _____    ______ ____
ROOT
ATOM      1  O   UNL     1      -7.963   2.436  22.161  0.00  0.00    +0.000 OA
ATOM      2  N   UNL     1      -8.563   0.376  21.220  0.00  0.00    +0.000 N 
ATOM      3  C   UNL     1      -8.355  -1.009  21.158  0.00  0.00    +0.000 C 
ATOM      4  C   UNL     1      -7.371  -1.376  21.941  0.00  0.00    +0.000 C 
ATOM      5  C   UNL     1      -6.444  -0.748  22.823  0.00  0.00    +0.000 C 
ATOM      6  C   UNL     1      -7.797   1.231  22.034  0.00  0.00    +0.000 C 
ATOM      7  C   UNL     1      -6.778   0.506  22.757  0.00  0.00    +0.000 C 
ATOM      8  C   UNL     1      -5.011  -1.166  22.836  0.00  0.00    +0.000 C 
ENDROOT
BRANCH   3   9
ATOM      9  C   UNL     1      -9.122  -1.920  20.360  0.00  0.00    +0.000 A 
ATOM     10  C   UNL     1      -8.933  -3.353  20.366  0.00  0.00    +0.000 A 
ATOM     11  C   UNL     1      -9.474  -4.441  19.412  0.00  0.00    +0.000 A 
ATOM     12  C   UNL     1     -10.364  -3.949  18.255  0.00  0.00    +0.000 A 
ATOM     13  C   UNL     1     -10.628  -2.435  18.162  0.00  0.00    +0.000 A 
ATOM     14  C   UNL     1      -9.966  -1.559  19.249  0.00  0.00    +0.000 A 
ENDBRANCH   3   9
BRANCH   2  15
ATOM     15  O   UNL     1      -9.641   0.938  20.510  0.00  0.00    +0.000 OA
ATOM     16  H   UNL     1      -9.660   1.858  20.844  0.00  0.00    +0.000 HD
ENDBRANCH   2  15
TORSDOF 2
ENDMDL
MODEL 9
REMARK VINA RESULT:      -4.8      1.983      5.221
REMARK  Name = Ciclopirox.pdbqt.pdb
REMARK  2 active torsions:
REMARK  status: ('A' for Active; 'I' for Inactive)
REMARK    1  A    between atoms: N_2  and  O_15
REMARK    2  A    between atoms: C_3  and  C_9
REMARK                            x       y       z     vdW  Elec       q    Type
REMARK                         _______ _______ _______ _____ _____    ______ ____
ROOT
ATOM      1  O   UNL     1      -9.969  -0.999  21.207  0.00  0.00    +0.000 OA
ATOM      2  N   UNL     1     -10.319  -3.090  22.203  0.00  0.00    +0.000 N 
ATOM      3  C   UNL     1     -10.121  -4.477  22.158  0.00  0.00    +0.000 C 
ATOM      4  C   UNL     1      -9.476  -4.829  21.074  0.00  0.00    +0.000 C 
ATOM      5  C   UNL     1      -8.938  -4.187  19.920  0.00  0.00    +0.000 C 
ATOM      6  C   UNL     1      -9.864  -2.218  21.198  0.00  0.00    +0.000 C 
ATOM      7  C   UNL     1      -9.207  -2.933  20.129  0.00  0.00    +0.000 C 
ATOM      8  C   UNL     1      -9.105  -4.798  18.568  0.00  0.00    +0.000 C 
ENDROOT
BRANCH   3   9
ATOM      9  C   UNL     1     -10.548  -5.402  23.167  0.00  0.00    +0.000 A 
ATOM     10  C   UNL     1     -11.917  -5.830  23.341  0.00  0.00    +0.000 A 
ATOM     11  C   UNL     1     -12.589  -6.599  24.501  0.00  0.00    +0.000 A 
ATOM     12  C   UNL     1     -11.675  -6.988  25.678  0.00  0.00    +0.000 A 
ATOM     13  C   UNL     1     -10.194  -6.578  25.587  0.00  0.00    +0.000 A 
ATOM     14  C   UNL     1      -9.775  -5.812  24.313  0.00  0.00    +0.000 A 
ENDBRANCH   3   9
BRANCH   2  15
ATOM     15  O   UNL     1     -10.917  -2.522  23.344  0.00  0.00    +0.000 OA
ATOM     16  H   UNL     1     -10.386  -2.901  24.074  0.00  0.00    +0.000 HD
ENDBRANCH   2  15
TORSDOF 2
ENDMDL
