MODEL 1
REMARK VINA RESULT:      -7.0      0.000      0.000
REMARK  Name = 
REMARK  5 active torsions:
REMARK  status: ('A' for Active; 'I' for Inactive)
REMARK    1  A    between atoms: O_5  and  C_10
REMARK    2  A    between atoms: N_9  and  C_20
REMARK    3  A    between atoms: N_9  and  C_25
REMARK    4  A    between atoms: C_10  and  C_11
REMARK    5  A    between atoms: C_18  and  C_19
REMARK                            x       y       z     vdW  Elec       q    Type
REMARK                         _______ _______ _______ _____ _____    ______ ____
ROOT
ATOM      1  F   UNL     1      -8.789  -6.070  19.445  0.00  0.00    +0.000 F 
ATOM      2  F   UNL     1      -9.482  -4.930  17.098  0.00  0.00    +0.000 F 
ATOM      3  C   UNL     1      -9.975  -2.825  20.589  0.00  0.00    +0.000 A 
ATOM      4  C   UNL     1      -9.446  -4.133  20.666  0.00  0.00    +0.000 A 
ATOM      5  C   UNL     1     -10.320  -2.233  19.362  0.00  0.00    +0.000 A 
ATOM      6  C   UNL     1      -9.299  -4.829  19.458  0.00  0.00    +0.000 A 
ATOM      7  C   UNL     1     -10.150  -2.951  18.181  0.00  0.00    +0.000 A 
ATOM      8  C   UNL     1      -9.641  -4.242  18.238  0.00  0.00    +0.000 A 
ENDROOT
BRANCH   3  14
ATOM      9  O   UNL     1     -11.317  -2.003  22.313  0.00  0.00    +0.000 OA
ATOM     10  N   UNL     1      -9.097  -1.395  22.351  0.00  0.00    +0.000 N 
ATOM     11  C   UNL     1      -8.343   0.552  22.340  0.00  0.00    +0.000 C 
ATOM     12  C   UNL     1      -7.986  -0.783  21.625  0.00  0.00    +0.000 C 
ATOM     13  C   UNL     1      -9.150  -0.324  23.345  0.00  0.00    +0.000 C 
ATOM     14  C   UNL     1     -10.188  -2.056  21.834  0.00  0.00    +0.000 C 
BRANCH  11  16
ATOM     15  N   UNL     1      -9.448   2.772  22.377  0.00  0.00    +0.000 NA
ATOM     16  C   UNL     1      -9.247   1.546  21.563  0.00  0.00    +0.000 C 
ATOM     17  C   UNL     1      -8.628   1.933  20.209  0.00  0.00    +0.000 C 
ATOM     18  C   UNL     1      -9.516   2.933  19.466  0.00  0.00    +0.000 C 
ATOM     19  C   UNL     1     -10.402   3.668  21.709  0.00  0.00    +0.000 C 
ATOM     20  C   UNL     1      -9.870   4.123  20.351  0.00  0.00    +0.000 C 
ATOM     21  H   UNL     1      -8.555   3.268  22.421  0.00  0.00    +0.000 HD
ENDBRANCH  11  16
BRANCH  11  22
ATOM     22  O   UNL     1      -7.209   1.257  22.923  0.00  0.00    +0.000 OA
ATOM     23  H   UNL     1      -7.483   1.386  23.850  0.00  0.00    +0.000 HD
ENDBRANCH  11  22
ENDBRANCH   3  14
BRANCH   4  24
ATOM     24  N   UNL     1      -9.173  -4.709  21.925  0.00  0.00    +0.000 N 
ATOM     25  H   UNL     1      -8.212  -4.552  22.249  0.00  0.00    +0.000 HD
BRANCH  24  28
ATOM     26  I   UNL     1     -12.694  -7.192  26.524  0.00  0.00    +0.000 I 
ATOM     27  F   UNL     1      -8.158  -5.271  24.406  0.00  0.00    +0.000 F 
ATOM     28  C   UNL     1     -10.006  -5.255  22.920  0.00  0.00    +0.000 A 
ATOM     29  C   UNL     1      -9.452  -5.548  24.180  0.00  0.00    +0.000 A 
ATOM     30  C   UNL     1     -11.357  -5.556  22.727  0.00  0.00    +0.000 A 
ATOM     31  C   UNL     1     -10.202  -6.101  25.215  0.00  0.00    +0.000 A 
ATOM     32  C   UNL     1     -12.126  -6.114  23.757  0.00  0.00    +0.000 A 
ATOM     33  C   UNL     1     -11.546  -6.381  24.997  0.00  0.00    +0.000 A 
ENDBRANCH  24  28
ENDBRANCH   4  24
TORSDOF 5
ENDMDL
MODEL 2
REMARK VINA RESULT:      -6.9      3.811      6.262
REMARK  Name = 
REMARK  5 active torsions:
REMARK  status: ('A' for Active; 'I' for Inactive)
REMARK    1  A    between atoms: O_5  and  C_10
REMARK    2  A    between atoms: N_9  and  C_20
REMARK    3  A    between atoms: N_9  and  C_25
REMARK    4  A    between atoms: C_10  and  C_11
REMARK    5  A    between atoms: C_18  and  C_19
REMARK                            x       y       z     vdW  Elec       q    Type
REMARK                         _______ _______ _______ _____ _____    ______ ____
ROOT
ATOM      1  F   UNL     1      -7.492  -4.941  20.029  0.00  0.00    +0.000 F 
ATOM      2  F   UNL     1      -8.828  -5.055  17.686  0.00  0.00    +0.000 F 
ATOM      3  C   UNL     1     -10.619  -3.323  20.950  0.00  0.00    +0.000 A 
ATOM      4  C   UNL     1      -9.315  -3.844  21.101  0.00  0.00    +0.000 A 
ATOM      5  C   UNL     1     -11.303  -3.373  19.723  0.00  0.00    +0.000 A 
ATOM      6  C   UNL     1      -8.735  -4.437  19.971  0.00  0.00    +0.000 A 
ATOM      7  C   UNL     1     -10.690  -3.960  18.619  0.00  0.00    +0.000 A 
ATOM      8  C   UNL     1      -9.412  -4.487  18.752  0.00  0.00    +0.000 A 
ENDROOT
BRANCH   3  14
ATOM      9  O   UNL     1     -10.889  -1.648  22.553  0.00  0.00    +0.000 OA
ATOM     10  N   UNL     1     -12.327  -3.441  22.680  0.00  0.00    +0.000 N 
ATOM     11  C   UNL     1     -12.587  -4.709  24.317  0.00  0.00    +0.000 C 
ATOM     12  C   UNL     1     -12.462  -4.893  22.777  0.00  0.00    +0.000 C 
ATOM     13  C   UNL     1     -12.891  -3.213  24.009  0.00  0.00    +0.000 C 
ATOM     14  C   UNL     1     -11.298  -2.719  22.117  0.00  0.00    +0.000 C 
BRANCH  11  16
ATOM     15  N   UNL     1     -11.651  -5.100  26.580  0.00  0.00    +0.000 NA
ATOM     16  C   UNL     1     -11.292  -4.890  25.154  0.00  0.00    +0.000 C 
ATOM     17  C   UNL     1     -10.461  -6.087  24.659  0.00  0.00    +0.000 C 
ATOM     18  C   UNL     1      -9.203  -6.268  25.509  0.00  0.00    +0.000 C 
ATOM     19  C   UNL     1     -10.434  -5.148  27.403  0.00  0.00    +0.000 C 
ATOM     20  C   UNL     1      -9.540  -6.318  26.995  0.00  0.00    +0.000 C 
ATOM     21  H   UNL     1     -12.099  -6.017  26.658  0.00  0.00    +0.000 HD
ENDBRANCH  11  16
BRANCH  11  22
ATOM     22  O   UNL     1     -13.687  -5.439  24.933  0.00  0.00    +0.000 OA
ATOM     23  H   UNL     1     -14.468  -5.109  24.451  0.00  0.00    +0.000 HD
ENDBRANCH  11  22
ENDBRANCH   3  14
BRANCH   4  24
ATOM     24  N   UNL     1      -8.693  -3.828  22.368  0.00  0.00    +0.000 N 
ATOM     25  H   UNL     1      -8.862  -4.678  22.919  0.00  0.00    +0.000 HD
BRANCH  24  28
ATOM     26  I   UNL     1      -4.452  -0.058  25.108  0.00  0.00    +0.000 I 
ATOM     27  F   UNL     1      -8.914  -3.029  24.979  0.00  0.00    +0.000 F 
ATOM     28  C   UNL     1      -7.713  -2.993  22.935  0.00  0.00    +0.000 A 
ATOM     29  C   UNL     1      -7.861  -2.585  24.273  0.00  0.00    +0.000 A 
ATOM     30  C   UNL     1      -6.602  -2.511  22.236  0.00  0.00    +0.000 A 
ATOM     31  C   UNL     1      -6.944  -1.750  24.905  0.00  0.00    +0.000 A 
ATOM     32  C   UNL     1      -5.670  -1.668  22.857  0.00  0.00    +0.000 A 
ATOM     33  C   UNL     1      -5.844  -1.294  24.189  0.00  0.00    +0.000 A 
ENDBRANCH  24  28
ENDBRANCH   4  24
TORSDOF 5
ENDMDL
MODEL 3
REMARK VINA RESULT:      -6.9      3.361      5.188
REMARK  Name = 
REMARK  5 active torsions:
REMARK  status: ('A' for Active; 'I' for Inactive)
REMARK    1  A    between atoms: O_5  and  C_10
REMARK    2  A    between atoms: N_9  and  C_20
REMARK    3  A    between atoms: N_9  and  C_25
REMARK    4  A    between atoms: C_10  and  C_11
REMARK    5  A    between atoms: C_18  and  C_19
REMARK                            x       y       z     vdW  Elec       q    Type
REMARK                         _______ _______ _______ _____ _____    ______ ____
ROOT
ATOM      1  F   UNL     1     -11.493  -6.084  22.165  0.00  0.00    +0.000 F 
ATOM      2  F   UNL     1     -13.151  -7.034  24.073  0.00  0.00    +0.000 F 
ATOM      3  C   UNL     1     -12.282  -3.022  23.966  0.00  0.00    +0.000 A 
ATOM      4  C   UNL     1     -11.691  -3.860  22.994  0.00  0.00    +0.000 A 
ATOM      5  C   UNL     1     -13.156  -3.521  24.947  0.00  0.00    +0.000 A 
ATOM      6  C   UNL     1     -12.001  -5.225  23.062  0.00  0.00    +0.000 A 
ATOM      7  C   UNL     1     -13.448  -4.882  24.978  0.00  0.00    +0.000 A 
ATOM      8  C   UNL     1     -12.868  -5.723  24.036  0.00  0.00    +0.000 A 
ENDROOT
BRANCH   3  14
ATOM      9  O   UNL     1     -12.391  -0.875  23.056  0.00  0.00    +0.000 OA
ATOM     10  N   UNL     1     -11.148  -1.122  24.978  0.00  0.00    +0.000 N 
ATOM     11  C   UNL     1      -9.128  -0.652  25.218  0.00  0.00    +0.000 C 
ATOM     12  C   UNL     1     -10.054  -1.828  25.643  0.00  0.00    +0.000 C 
ATOM     13  C   UNL     1     -10.438   0.157  24.980  0.00  0.00    +0.000 C 
ATOM     14  C   UNL     1     -11.963  -1.577  23.966  0.00  0.00    +0.000 C 
BRANCH  11  16
ATOM     15  N   UNL     1      -7.373   0.304  23.751  0.00  0.00    +0.000 NA
ATOM     16  C   UNL     1      -8.305  -0.840  23.917  0.00  0.00    +0.000 C 
ATOM     17  C   UNL     1      -7.497  -2.150  23.943  0.00  0.00    +0.000 C 
ATOM     18  C   UNL     1      -6.670  -2.309  22.666  0.00  0.00    +0.000 C 
ATOM     19  C   UNL     1      -6.676   0.203  22.461  0.00  0.00    +0.000 C 
ATOM     20  C   UNL     1      -5.830  -1.067  22.392  0.00  0.00    +0.000 C 
ATOM     21  H   UNL     1      -6.659   0.235  24.481  0.00  0.00    +0.000 HD
ENDBRANCH  11  16
BRANCH  11  22
ATOM     22  O   UNL     1      -8.276  -0.131  26.279  0.00  0.00    +0.000 OA
ATOM     23  H   UNL     1      -8.079   0.776  25.977  0.00  0.00    +0.000 HD
ENDBRANCH  11  22
ENDBRANCH   3  14
BRANCH   4  24
ATOM     24  N   UNL     1     -10.771  -3.324  22.067  0.00  0.00    +0.000 N 
ATOM     25  H   UNL     1     -10.257  -2.509  22.424  0.00  0.00    +0.000 HD
BRANCH  24  28
ATOM     26  I   UNL     1      -8.258  -5.588  16.751  0.00  0.00    +0.000 I 
ATOM     27  F   UNL     1      -8.570  -4.955  22.066  0.00  0.00    +0.000 F 
ATOM     28  C   UNL     1     -10.255  -3.810  20.852  0.00  0.00    +0.000 A 
ATOM     29  C   UNL     1      -9.114  -4.633  20.881  0.00  0.00    +0.000 A 
ATOM     30  C   UNL     1     -10.792  -3.501  19.599  0.00  0.00    +0.000 A 
ATOM     31  C   UNL     1      -8.532  -5.145  19.725  0.00  0.00    +0.000 A 
ATOM     32  C   UNL     1     -10.218  -4.007  18.424  0.00  0.00    +0.000 A 
ATOM     33  C   UNL     1      -9.093  -4.829  18.493  0.00  0.00    +0.000 A 
ENDBRANCH  24  28
ENDBRANCH   4  24
TORSDOF 5
ENDMDL
MODEL 4
REMARK VINA RESULT:      -6.6     18.140     20.362
REMARK  Name = 
REMARK  5 active torsions:
REMARK  status: ('A' for Active; 'I' for Inactive)
REMARK    1  A    between atoms: O_5  and  C_10
REMARK    2  A    between atoms: N_9  and  C_20
REMARK    3  A    between atoms: N_9  and  C_25
REMARK    4  A    between atoms: C_10  and  C_11
REMARK    5  A    between atoms: C_18  and  C_19
REMARK                            x       y       z     vdW  Elec       q    Type
REMARK                         _______ _______ _______ _____ _____    ______ ____
ROOT
ATOM      1  F   UNL     1       4.177  -7.403  11.825  0.00  0.00    +0.000 F 
ATOM      2  F   UNL     1       2.270  -8.401  10.196  0.00  0.00    +0.000 F 
ATOM      3  C   UNL     1       4.143 -10.888  12.873  0.00  0.00    +0.000 A 
ATOM      4  C   UNL     1       4.530  -9.530  12.838  0.00  0.00    +0.000 A 
ATOM      5  C   UNL     1       3.139 -11.397  12.031  0.00  0.00    +0.000 A 
ATOM      6  C   UNL     1       3.878  -8.708  11.908  0.00  0.00    +0.000 A 
ATOM      7  C   UNL     1       2.506 -10.549  11.126  0.00  0.00    +0.000 A 
ATOM      8  C   UNL     1       2.880  -9.212  11.072  0.00  0.00    +0.000 A 
ENDROOT
BRANCH   3  14
ATOM      9  O   UNL     1       4.806 -11.557  15.008  0.00  0.00    +0.000 OA
ATOM     10  N   UNL     1       5.485 -12.882  13.252  0.00  0.00    +0.000 N 
ATOM     11  C   UNL     1       7.452 -13.371  12.754  0.00  0.00    +0.000 C 
ATOM     12  C   UNL     1       6.180 -12.945  11.967  0.00  0.00    +0.000 C 
ATOM     13  C   UNL     1       6.487 -13.701  13.932  0.00  0.00    +0.000 C 
ATOM     14  C   UNL     1       4.822 -11.811  13.808  0.00  0.00    +0.000 C 
BRANCH  11  16
ATOM     15  N   UNL     1       9.848 -12.764  12.956  0.00  0.00    +0.000 NA
ATOM     16  C   UNL     1       8.464 -12.250  13.115  0.00  0.00    +0.000 C 
ATOM     17  C   UNL     1       8.277 -11.011  12.221  0.00  0.00    +0.000 C 
ATOM     18  C   UNL     1       9.297  -9.927  12.570  0.00  0.00    +0.000 C 
ATOM     19  C   UNL     1      10.815 -11.755  13.413  0.00  0.00    +0.000 C 
ATOM     20  C   UNL     1      10.717 -10.481  12.575  0.00  0.00    +0.000 C 
ATOM     21  H   UNL     1      10.017 -12.905  11.957  0.00  0.00    +0.000 HD
ENDBRANCH  11  16
BRANCH  11  22
ATOM     22  O   UNL     1       8.156 -14.522  12.204  0.00  0.00    +0.000 OA
ATOM     23  H   UNL     1       7.439 -15.167  12.053  0.00  0.00    +0.000 HD
ENDBRANCH  11  22
ENDBRANCH   3  14
BRANCH   4  24
ATOM     24  N   UNL     1       5.587  -9.078  13.657  0.00  0.00    +0.000 N 
ATOM     25  H   UNL     1       6.502  -9.462  13.395  0.00  0.00    +0.000 HD
BRANCH  24  28
ATOM     26  I   UNL     1       6.152  -4.325  17.756  0.00  0.00    +0.000 I 
ATOM     27  F   UNL     1       6.875  -6.744  13.026  0.00  0.00    +0.000 F 
ATOM     28  C   UNL     1       5.677  -8.043  14.607  0.00  0.00    +0.000 A 
ATOM     29  C   UNL     1       6.358  -6.862  14.260  0.00  0.00    +0.000 A 
ATOM     30  C   UNL     1       5.153  -8.125  15.900  0.00  0.00    +0.000 A 
ATOM     31  C   UNL     1       6.504  -5.797  15.144  0.00  0.00    +0.000 A 
ATOM     32  C   UNL     1       5.291  -7.062  16.803  0.00  0.00    +0.000 A 
ATOM     33  C   UNL     1       5.964  -5.902  16.420  0.00  0.00    +0.000 A 
ENDBRANCH  24  28
ENDBRANCH   4  24
TORSDOF 5
ENDMDL
MODEL 5
REMARK VINA RESULT:      -6.5     17.375     19.532
REMARK  Name = 
REMARK  5 active torsions:
REMARK  status: ('A' for Active; 'I' for Inactive)
REMARK    1  A    between atoms: O_5  and  C_10
REMARK    2  A    between atoms: N_9  and  C_20
REMARK    3  A    between atoms: N_9  and  C_25
REMARK    4  A    between atoms: C_10  and  C_11
REMARK    5  A    between atoms: C_18  and  C_19
REMARK                            x       y       z     vdW  Elec       q    Type
REMARK                         _______ _______ _______ _____ _____    ______ ____
ROOT
ATOM      1  F   UNL     1       3.995  -7.668  12.426  0.00  0.00    +0.000 F 
ATOM      2  F   UNL     1       2.179  -8.594  10.655  0.00  0.00    +0.000 F 
ATOM      3  C   UNL     1       4.192 -11.246  13.061  0.00  0.00    +0.000 A 
ATOM      4  C   UNL     1       4.483  -9.869  13.192  0.00  0.00    +0.000 A 
ATOM      5  C   UNL     1       3.234 -11.719  12.147  0.00  0.00    +0.000 A 
ATOM      6  C   UNL     1       3.786  -8.991  12.351  0.00  0.00    +0.000 A 
ATOM      7  C   UNL     1       2.554 -10.816  11.334  0.00  0.00    +0.000 A 
ATOM      8  C   UNL     1       2.835  -9.460  11.443  0.00  0.00    +0.000 A 
ENDROOT
BRANCH   3  14
ATOM      9  O   UNL     1       6.097 -12.466  13.634  0.00  0.00    +0.000 OA
ATOM     10  N   UNL     1       4.207 -12.848  14.892  0.00  0.00    +0.000 N 
ATOM     11  C   UNL     1       3.249 -14.681  15.166  0.00  0.00    +0.000 C 
ATOM     12  C   UNL     1       2.793 -13.220  14.890  0.00  0.00    +0.000 C 
ATOM     13  C   UNL     1       4.615 -14.065  15.590  0.00  0.00    +0.000 C 
ATOM     14  C   UNL     1       4.923 -12.223  13.895  0.00  0.00    +0.000 C 
BRANCH  11  16
ATOM     15  N   UNL     1       3.466 -17.030  14.401  0.00  0.00    +0.000 NA
ATOM     16  C   UNL     1       3.379 -15.621  13.938  0.00  0.00    +0.000 C 
ATOM     17  C   UNL     1       2.180 -15.475  12.984  0.00  0.00    +0.000 C 
ATOM     18  C   UNL     1       2.309 -16.426  11.793  0.00  0.00    +0.000 C 
ATOM     19  C   UNL     1       3.715 -17.921  13.258  0.00  0.00    +0.000 C 
ATOM     20  C   UNL     1       2.567 -17.857  12.252  0.00  0.00    +0.000 C 
ATOM     21  H   UNL     1       2.555 -17.290  14.787  0.00  0.00    +0.000 HD
ENDBRANCH  11  16
BRANCH  11  22
ATOM     22  O   UNL     1       2.527 -15.355  16.238  0.00  0.00    +0.000 OA
ATOM     23  H   UNL     1       3.220 -15.893  16.665  0.00  0.00    +0.000 HD
ENDBRANCH  11  22
ENDBRANCH   3  14
BRANCH   4  24
ATOM     24  N   UNL     1       5.497  -9.446  14.078  0.00  0.00    +0.000 N 
ATOM     25  H   UNL     1       6.409  -9.315  13.625  0.00  0.00    +0.000 HD
BRANCH  24  28
ATOM     26  I   UNL     1       5.370  -7.006  19.886  0.00  0.00    +0.000 I 
ATOM     27  F   UNL     1       5.363  -6.748  14.531  0.00  0.00    +0.000 F 
ATOM     28  C   UNL     1       5.462  -8.953  15.396  0.00  0.00    +0.000 A 
ATOM     29  C   UNL     1       5.409  -7.562  15.598  0.00  0.00    +0.000 A 
ATOM     30  C   UNL     1       5.507  -9.766  16.532  0.00  0.00    +0.000 A 
ATOM     31  C   UNL     1       5.384  -6.992  16.867  0.00  0.00    +0.000 A 
ATOM     32  C   UNL     1       5.483  -9.209  17.818  0.00  0.00    +0.000 A 
ATOM     33  C   UNL     1       5.420  -7.825  17.979  0.00  0.00    +0.000 A 
ENDBRANCH  24  28
ENDBRANCH   4  24
TORSDOF 5
ENDMDL
MODEL 6
REMARK VINA RESULT:      -6.4     17.742     20.580
REMARK  Name = 
REMARK  5 active torsions:
REMARK  status: ('A' for Active; 'I' for Inactive)
REMARK    1  A    between atoms: O_5  and  C_10
REMARK    2  A    between atoms: N_9  and  C_20
REMARK    3  A    between atoms: N_9  and  C_25
REMARK    4  A    between atoms: C_10  and  C_11
REMARK    5  A    between atoms: C_18  and  C_19
REMARK                            x       y       z     vdW  Elec       q    Type
REMARK                         _______ _______ _______ _____ _____    ______ ____
ROOT
ATOM      1  F   UNL     1     -25.266  -1.832   6.347  0.00  0.00    +0.000 F 
ATOM      2  F   UNL     1     -24.991   0.551   7.586  0.00  0.00    +0.000 F 
ATOM      3  C   UNL     1     -22.235  -2.414   8.274  0.00  0.00    +0.000 A 
ATOM      4  C   UNL     1     -23.303  -2.686   7.391  0.00  0.00    +0.000 A 
ATOM      5  C   UNL     1     -22.090  -1.166   8.904  0.00  0.00    +0.000 A 
ATOM      6  C   UNL     1     -24.232  -1.657   7.184  0.00  0.00    +0.000 A 
ATOM      7  C   UNL     1     -23.027  -0.164   8.667  0.00  0.00    +0.000 A 
ATOM      8  C   UNL     1     -24.090  -0.417   7.808  0.00  0.00    +0.000 A 
ENDROOT
BRANCH   3  14
ATOM      9  O   UNL     1     -20.465  -3.814   7.676  0.00  0.00    +0.000 OA
ATOM     10  N   UNL     1     -21.301  -4.057   9.807  0.00  0.00    +0.000 N 
ATOM     11  C   UNL     1     -22.079  -5.804  10.643  0.00  0.00    +0.000 C 
ATOM     12  C   UNL     1     -22.480  -4.301  10.636  0.00  0.00    +0.000 C 
ATOM     13  C   UNL     1     -20.672  -5.323  10.177  0.00  0.00    +0.000 C 
ATOM     14  C   UNL     1     -21.244  -3.474   8.561  0.00  0.00    +0.000 C 
BRANCH  11  16
ATOM     15  N   UNL     1     -22.073  -8.033   9.557  0.00  0.00    +0.000 NA
ATOM     16  C   UNL     1     -22.767  -6.720   9.597  0.00  0.00    +0.000 C 
ATOM     17  C   UNL     1     -24.253  -6.944   9.931  0.00  0.00    +0.000 C 
ATOM     18  C   UNL     1     -24.911  -7.869   8.908  0.00  0.00    +0.000 C 
ATOM     19  C   UNL     1     -22.634  -8.866   8.484  0.00  0.00    +0.000 C 
ATOM     20  C   UNL     1     -24.114  -9.157   8.731  0.00  0.00    +0.000 C 
ATOM     21  H   UNL     1     -22.264  -8.515  10.439  0.00  0.00    +0.000 HD
ENDBRANCH  11  16
BRANCH  11  22
ATOM     22  O   UNL     1     -22.101  -6.437  11.956  0.00  0.00    +0.000 OA
ATOM     23  H   UNL     1     -21.201  -6.804  12.038  0.00  0.00    +0.000 HD
ENDBRANCH  11  22
ENDBRANCH   3  14
BRANCH   4  24
ATOM     24  N   UNL     1     -23.443  -3.975   6.831  0.00  0.00    +0.000 N 
ATOM     25  H   UNL     1     -23.988  -4.619   7.415  0.00  0.00    +0.000 HD
BRANCH  24  28
ATOM     26  I   UNL     1     -22.114  -6.420   1.178  0.00  0.00    +0.000 I 
ATOM     27  F   UNL     1     -21.930  -6.238   6.533  0.00  0.00    +0.000 F 
ATOM     28  C   UNL     1     -23.183  -4.484   5.545  0.00  0.00    +0.000 A 
ATOM     29  C   UNL     1     -22.390  -5.640   5.422  0.00  0.00    +0.000 A 
ATOM     30  C   UNL     1     -23.644  -3.893   4.366  0.00  0.00    +0.000 A 
ATOM     31  C   UNL     1     -22.074  -6.201   4.188  0.00  0.00    +0.000 A 
ATOM     32  C   UNL     1     -23.336  -4.445   3.115  0.00  0.00    +0.000 A 
ATOM     33  C   UNL     1     -22.555  -5.598   3.032  0.00  0.00    +0.000 A 
ENDBRANCH  24  28
ENDBRANCH   4  24
TORSDOF 5
ENDMDL
MODEL 7
REMARK VINA RESULT:      -6.3      3.105      4.942
REMARK  Name = 
REMARK  5 active torsions:
REMARK  status: ('A' for Active; 'I' for Inactive)
REMARK    1  A    between atoms: O_5  and  C_10
REMARK    2  A    between atoms: N_9  and  C_20
REMARK    3  A    between atoms: N_9  and  C_25
REMARK    4  A    between atoms: C_10  and  C_11
REMARK    5  A    between atoms: C_18  and  C_19
REMARK                            x       y       z     vdW  Elec       q    Type
REMARK                         _______ _______ _______ _____ _____    ______ ____
ROOT
ATOM      1  F   UNL     1     -10.887  -5.912  21.954  0.00  0.00    +0.000 F 
ATOM      2  F   UNL     1     -12.581  -5.367  23.983  0.00  0.00    +0.000 F 
ATOM      3  C   UNL     1      -9.667  -2.647  22.999  0.00  0.00    +0.000 A 
ATOM      4  C   UNL     1      -9.741  -3.846  22.256  0.00  0.00    +0.000 A 
ATOM      5  C   UNL     1     -10.562  -2.364  24.045  0.00  0.00    +0.000 A 
ATOM      6  C   UNL     1     -10.741  -4.758  22.622  0.00  0.00    +0.000 A 
ATOM      7  C   UNL     1     -11.549  -3.289  24.374  0.00  0.00    +0.000 A 
ATOM      8  C   UNL     1     -11.631  -4.478  23.660  0.00  0.00    +0.000 A 
ENDROOT
BRANCH   3  14
ATOM      9  O   UNL     1      -7.539  -1.731  23.278  0.00  0.00    +0.000 OA
ATOM     10  N   UNL     1      -8.923  -0.686  21.765  0.00  0.00    +0.000 N 
ATOM     11  C   UNL     1      -9.521   1.313  21.805  0.00  0.00    +0.000 C 
ATOM     12  C   UNL     1     -10.218  -0.050  21.531  0.00  0.00    +0.000 C 
ATOM     13  C   UNL     1      -8.180   0.557  21.566  0.00  0.00    +0.000 C 
ATOM     14  C   UNL     1      -8.609  -1.663  22.683  0.00  0.00    +0.000 C 
BRANCH  11  16
ATOM     15  N   UNL     1      -9.383   3.347  23.216  0.00  0.00    +0.000 NA
ATOM     16  C   UNL     1      -9.630   1.883  23.244  0.00  0.00    +0.000 C 
ATOM     17  C   UNL     1     -11.018   1.615  23.854  0.00  0.00    +0.000 C 
ATOM     18  C   UNL     1     -11.120   2.205  25.261  0.00  0.00    +0.000 C 
ATOM     19  C   UNL     1      -9.360   3.879  24.586  0.00  0.00    +0.000 C 
ATOM     20  C   UNL     1     -10.706   3.672  25.279  0.00  0.00    +0.000 C 
ATOM     21  H   UNL     1     -10.173   3.789  22.739  0.00  0.00    +0.000 HD
ENDBRANCH  11  16
BRANCH  11  22
ATOM     22  O   UNL     1      -9.813   2.356  20.830  0.00  0.00    +0.000 OA
ATOM     23  H   UNL     1     -10.408   1.908  20.200  0.00  0.00    +0.000 HD
ENDBRANCH  11  22
ENDBRANCH   3  14
BRANCH   4  24
ATOM     24  N   UNL     1      -8.782  -4.115  21.256  0.00  0.00    +0.000 N 
ATOM     25  H   UNL     1      -7.820  -4.165  21.612  0.00  0.00    +0.000 HD
BRANCH  24  28
ATOM     26  I   UNL     1      -9.469  -5.881  15.246  0.00  0.00    +0.000 I 
ATOM     27  F   UNL     1     -10.249  -2.658  19.459  0.00  0.00    +0.000 F 
ATOM     28  C   UNL     1      -8.896  -4.550  19.922  0.00  0.00    +0.000 A 
ATOM     29  C   UNL     1      -9.669  -3.789  19.026  0.00  0.00    +0.000 A 
ATOM     30  C   UNL     1      -8.307  -5.718  19.431  0.00  0.00    +0.000 A 
ATOM     31  C   UNL     1      -9.844  -4.154  17.694  0.00  0.00    +0.000 A 
ATOM     32  C   UNL     1      -8.474  -6.101  18.093  0.00  0.00    +0.000 A 
ATOM     33  C   UNL     1      -9.239  -5.317  17.230  0.00  0.00    +0.000 A 
ENDBRANCH  24  28
ENDBRANCH   4  24
TORSDOF 5
ENDMDL
MODEL 8
REMARK VINA RESULT:      -6.2      4.155      6.429
REMARK  Name = 
REMARK  5 active torsions:
REMARK  status: ('A' for Active; 'I' for Inactive)
REMARK    1  A    between atoms: O_5  and  C_10
REMARK    2  A    between atoms: N_9  and  C_20
REMARK    3  A    between atoms: N_9  and  C_25
REMARK    4  A    between atoms: C_10  and  C_11
REMARK    5  A    between atoms: C_18  and  C_19
REMARK                            x       y       z     vdW  Elec       q    Type
REMARK                         _______ _______ _______ _____ _____    ______ ____
ROOT
ATOM      1  F   UNL     1     -14.440  -6.766  27.139  0.00  0.00    +0.000 F 
ATOM      2  F   UNL     1     -14.650  -4.186  27.906  0.00  0.00    +0.000 F 
ATOM      3  C   UNL     1     -11.901  -5.224  25.037  0.00  0.00    +0.000 A 
ATOM      4  C   UNL     1     -12.706  -6.244  25.592  0.00  0.00    +0.000 A 
ATOM      5  C   UNL     1     -12.027  -3.880  25.431  0.00  0.00    +0.000 A 
ATOM      6  C   UNL     1     -13.628  -5.859  26.575  0.00  0.00    +0.000 A 
ATOM      7  C   UNL     1     -12.960  -3.534  26.404  0.00  0.00    +0.000 A 
ATOM      8  C   UNL     1     -13.754  -4.525  26.968  0.00  0.00    +0.000 A 
ENDROOT
BRANCH   3  14
ATOM      9  O   UNL     1      -9.769  -5.923  24.395  0.00  0.00    +0.000 OA
ATOM     10  N   UNL     1     -11.249  -5.432  22.702  0.00  0.00    +0.000 N 
ATOM     11  C   UNL     1     -10.977  -4.024  21.185  0.00  0.00    +0.000 C 
ATOM     12  C   UNL     1     -12.151  -4.441  22.117  0.00  0.00    +0.000 C 
ATOM     13  C   UNL     1     -10.325  -5.386  21.570  0.00  0.00    +0.000 C 
ATOM     14  C   UNL     1     -10.885  -5.575  24.022  0.00  0.00    +0.000 C 
BRANCH  11  16
ATOM     15  N   UNL     1      -8.834  -3.294  22.199  0.00  0.00    +0.000 NA
ATOM     16  C   UNL     1     -10.120  -2.811  21.633  0.00  0.00    +0.000 C 
ATOM     17  C   UNL     1      -9.830  -1.859  20.459  0.00  0.00    +0.000 C 
ATOM     18  C   UNL     1      -8.964  -0.682  20.910  0.00  0.00    +0.000 C 
ATOM     19  C   UNL     1      -8.066  -2.164  22.741  0.00  0.00    +0.000 C 
ATOM     20  C   UNL     1      -7.716  -1.161  21.643  0.00  0.00    +0.000 C 
ATOM     21  H   UNL     1      -8.283  -3.688  21.431  0.00  0.00    +0.000 HD
ENDBRANCH  11  16
BRANCH  11  22
ATOM     22  O   UNL     1     -11.329  -3.896  19.777  0.00  0.00    +0.000 OA
ATOM     23  H   UNL     1     -10.544  -3.461  19.393  0.00  0.00    +0.000 HD
ENDBRANCH  11  22
ENDBRANCH   3  14
BRANCH   4  24
ATOM     24  N   UNL     1     -12.502  -7.588  25.211  0.00  0.00    +0.000 N 
ATOM     25  H   UNL     1     -12.713  -7.770  24.223  0.00  0.00    +0.000 HD
BRANCH  24  28
ATOM     26  I   UNL     1      -9.846 -12.532  28.075  0.00  0.00    +0.000 I 
ATOM     27  F   UNL     1     -13.897  -9.876  25.776  0.00  0.00    +0.000 F 
ATOM     28  C   UNL     1     -11.858  -8.667  25.844  0.00  0.00    +0.000 A 
ATOM     29  C   UNL     1     -12.604  -9.823  26.136  0.00  0.00    +0.000 A 
ATOM     30  C   UNL     1     -10.516  -8.653  26.233  0.00  0.00    +0.000 A 
ATOM     31  C   UNL     1     -12.048 -10.930  26.772  0.00  0.00    +0.000 A 
ATOM     32  C   UNL     1      -9.940  -9.759  26.875  0.00  0.00    +0.000 A 
ATOM     33  C   UNL     1     -10.708 -10.892  27.138  0.00  0.00    +0.000 A 
ENDBRANCH  24  28
ENDBRANCH   4  24
TORSDOF 5
ENDMDL
MODEL 9
REMARK VINA RESULT:      -6.2     19.908     22.719
REMARK  Name = 
REMARK  5 active torsions:
REMARK  status: ('A' for Active; 'I' for Inactive)
REMARK    1  A    between atoms: O_5  and  C_10
REMARK    2  A    between atoms: N_9  and  C_20
REMARK    3  A    between atoms: N_9  and  C_25
REMARK    4  A    between atoms: C_10  and  C_11
REMARK    5  A    between atoms: C_18  and  C_19
REMARK                            x       y       z     vdW  Elec       q    Type
REMARK                         _______ _______ _______ _____ _____    ______ ____
ROOT
ATOM      1  F   UNL     1       1.105  -4.963   2.057  0.00  0.00    +0.000 F 
ATOM      2  F   UNL     1       1.032  -7.660   2.141  0.00  0.00    +0.000 F 
ATOM      3  C   UNL     1      -2.451  -5.561   1.573  0.00  0.00    +0.000 A 
ATOM      4  C   UNL     1      -1.249  -4.834   1.722  0.00  0.00    +0.000 A 
ATOM      5  C   UNL     1      -2.479  -6.966   1.604  0.00  0.00    +0.000 A 
ATOM      6  C   UNL     1      -0.079  -5.579   1.923  0.00  0.00    +0.000 A 
ATOM      7  C   UNL     1      -1.295  -7.673   1.795  0.00  0.00    +0.000 A 
ATOM      8  C   UNL     1      -0.105  -6.974   1.953  0.00  0.00    +0.000 A 
ENDROOT
BRANCH   3  14
ATOM      9  O   UNL     1      -4.438  -4.634   2.374  0.00  0.00    +0.000 OA
ATOM     10  N   UNL     1      -4.052  -4.455   0.112  0.00  0.00    +0.000 N 
ATOM     11  C   UNL     1      -5.284  -5.162  -1.417  0.00  0.00    +0.000 C 
ATOM     12  C   UNL     1      -3.754  -5.157  -1.136  0.00  0.00    +0.000 C 
ATOM     13  C   UNL     1      -5.382  -4.045  -0.335  0.00  0.00    +0.000 C 
ATOM     14  C   UNL     1      -3.724  -4.828   1.396  0.00  0.00    +0.000 C 
BRANCH  11  16
ATOM     15  N   UNL     1      -7.494  -6.287  -1.408  0.00  0.00    +0.000 NA
ATOM     16  C   UNL     1      -6.068  -6.441  -1.020  0.00  0.00    +0.000 C 
ATOM     17  C   UNL     1      -5.490  -7.693  -1.702  0.00  0.00    +0.000 C 
ATOM     18  C   UNL     1      -6.288  -8.941  -1.322  0.00  0.00    +0.000 C 
ATOM     19  C   UNL     1      -8.273  -7.437  -0.926  0.00  0.00    +0.000 C 
ATOM     20  C   UNL     1      -7.781  -8.738  -1.559  0.00  0.00    +0.000 C 
ATOM     21  H   UNL     1      -7.544  -6.302  -2.430  0.00  0.00    +0.000 HD
ENDBRANCH  11  16
BRANCH  11  22
ATOM     22  O   UNL     1      -5.661  -4.741  -2.761  0.00  0.00    +0.000 OA
ATOM     23  H   UNL     1      -5.012  -5.201  -3.325  0.00  0.00    +0.000 HD
ENDBRANCH  11  22
ENDBRANCH   3  14
BRANCH   4  24
ATOM     24  N   UNL     1      -1.279  -3.423   1.748  0.00  0.00    +0.000 N 
ATOM     25  H   UNL     1      -1.547  -3.001   0.852  0.00  0.00    +0.000 HD
BRANCH  24  28
ATOM     26  I   UNL     1      -0.840   0.772   6.430  0.00  0.00    +0.000 I 
ATOM     27  F   UNL     1       1.003  -1.980   2.213  0.00  0.00    +0.000 F 
ATOM     28  C   UNL     1      -1.236  -2.491   2.803  0.00  0.00    +0.000 A 
ATOM     29  C   UNL     1      -0.046  -1.776   3.027  0.00  0.00    +0.000 A 
ATOM     30  C   UNL     1      -2.305  -2.249   3.670  0.00  0.00    +0.000 A 
ATOM     31  C   UNL     1       0.084  -0.847   4.055  0.00  0.00    +0.000 A 
ATOM     32  C   UNL     1      -2.191  -1.317   4.711  0.00  0.00    +0.000 A 
ATOM     33  C   UNL     1      -0.998  -0.618   4.897  0.00  0.00    +0.000 A 
ENDBRANCH  24  28
ENDBRANCH   4  24
TORSDOF 5
ENDMDL
