MODEL 1
REMARK VINA RESULT:      -6.4      0.000      0.000
REMARK  Name = COUMESTROL.pdbqt.pdb
REMARK  2 active torsions:
REMARK  status: ('A' for Active; 'I' for Inactive)
REMARK    1  A    between atoms: C_16  and  O_19
REMARK    2  A    between atoms: C_18  and  O_21
REMARK                            x       y       z     vdW  Elec       q    Type
REMARK                         _______ _______ _______ _____ _____    ______ ____
ROOT
ATOM      1  O   UNL     1     -11.406  -2.483  21.494  0.00  0.00    +0.000 OA
ATOM      2  O   UNL     1      -8.025  -4.761  21.239  0.00  0.00    +0.000 OA
ATOM      3  O   UNL     1      -7.735  -4.426  23.506  0.00  0.00    +0.000 OA
ATOM      4  C   UNL     1      -9.611  -3.430  22.491  0.00  0.00    +0.000 A 
ATOM      5  C   UNL     1     -10.304  -3.245  21.323  0.00  0.00    +0.000 A 
ATOM      6  C   UNL     1     -10.334  -2.725  23.485  0.00  0.00    +0.000 A 
ATOM      7  C   UNL     1      -9.942  -3.779  20.045  0.00  0.00    +0.000 A 
ATOM      8  C   UNL     1     -11.429  -2.160  22.824  0.00  0.00    +0.000 A 
ATOM      9  C   UNL     1      -8.770  -4.550  20.037  0.00  0.00    +0.000 A 
ATOM     10  C   UNL     1      -8.402  -4.222  22.499  0.00  0.00    +0.000 A 
ATOM     11  C   UNL     1     -10.192  -2.500  24.864  0.00  0.00    +0.000 A 
ATOM     12  C   UNL     1     -10.653  -3.585  18.868  0.00  0.00    +0.000 A 
ATOM     13  C   UNL     1     -12.403  -1.377  23.443  0.00  0.00    +0.000 A 
ATOM     14  C   UNL     1      -8.293  -5.134  18.870  0.00  0.00    +0.000 A 
ATOM     15  C   UNL     1     -11.151  -1.719  25.516  0.00  0.00    +0.000 A 
ATOM     16  C   UNL     1     -12.224  -1.177  24.814  0.00  0.00    +0.000 A 
ATOM     17  C   UNL     1     -10.186  -4.164  17.689  0.00  0.00    +0.000 A 
ATOM     18  C   UNL     1      -9.016  -4.930  17.700  0.00  0.00    +0.000 A 
ENDROOT
BRANCH  16  19
ATOM     19  O   UNL     1     -13.126  -0.422  25.516  0.00  0.00    +0.000 OA
ATOM     20  H   UNL     1     -14.021  -0.653  25.213  0.00  0.00    +0.000 HD
ENDBRANCH  16  19
BRANCH  18  21
ATOM     21  O   UNL     1      -8.553  -5.500  16.548  0.00  0.00    +0.000 OA
ATOM     22  H   UNL     1      -8.350  -4.791  15.913  0.00  0.00    +0.000 HD
ENDBRANCH  18  21
TORSDOF 2
ENDMDL
MODEL 2
REMARK VINA RESULT:      -6.1      0.937      6.185
REMARK  Name = COUMESTROL.pdbqt.pdb
REMARK  2 active torsions:
REMARK  status: ('A' for Active; 'I' for Inactive)
REMARK    1  A    between atoms: C_16  and  O_19
REMARK    2  A    between atoms: C_18  and  O_21
REMARK                            x       y       z     vdW  Elec       q    Type
REMARK                         _______ _______ _______ _____ _____    ______ ____
ROOT
ATOM      1  O   UNL     1     -11.311  -3.063  20.958  0.00  0.00    +0.000 OA
ATOM      2  O   UNL     1      -9.433  -3.397  24.570  0.00  0.00    +0.000 OA
ATOM      3  O   UNL     1      -7.767  -4.582  23.494  0.00  0.00    +0.000 OA
ATOM      4  C   UNL     1      -9.570  -3.812  22.191  0.00  0.00    +0.000 A 
ATOM      5  C   UNL     1     -10.757  -3.128  22.188  0.00  0.00    +0.000 A 
ATOM      6  C   UNL     1      -9.354  -4.216  20.849  0.00  0.00    +0.000 A 
ATOM      7  C   UNL     1     -11.378  -2.532  23.333  0.00  0.00    +0.000 A 
ATOM      8  C   UNL     1     -10.451  -3.732  20.130  0.00  0.00    +0.000 A 
ATOM      9  C   UNL     1     -10.674  -2.688  24.536  0.00  0.00    +0.000 A 
ATOM     10  C   UNL     1      -8.833  -3.982  23.422  0.00  0.00    +0.000 A 
ATOM     11  C   UNL     1      -8.361  -4.931  20.161  0.00  0.00    +0.000 A 
ATOM     12  C   UNL     1     -12.583  -1.840  23.317  0.00  0.00    +0.000 A 
ATOM     13  C   UNL     1     -10.634  -3.911  18.759  0.00  0.00    +0.000 A 
ATOM     14  C   UNL     1     -11.153  -2.164  25.730  0.00  0.00    +0.000 A 
ATOM     15  C   UNL     1      -8.513  -5.130  18.785  0.00  0.00    +0.000 A 
ATOM     16  C   UNL     1      -9.625  -4.628  18.112  0.00  0.00    +0.000 A 
ATOM     17  C   UNL     1     -13.075  -1.308  24.509  0.00  0.00    +0.000 A 
ATOM     18  C   UNL     1     -12.360  -1.474  25.698  0.00  0.00    +0.000 A 
ENDROOT
BRANCH  16  19
ATOM     19  O   UNL     1      -9.708  -4.859  16.765  0.00  0.00    +0.000 OA
ATOM     20  H   UNL     1      -9.926  -5.797  16.628  0.00  0.00    +0.000 HD
ENDBRANCH  16  19
BRANCH  18  21
ATOM     21  O   UNL     1     -12.836  -0.956  26.869  0.00  0.00    +0.000 OA
ATOM     22  H   UNL     1     -12.332  -0.150  27.077  0.00  0.00    +0.000 HD
ENDBRANCH  18  21
TORSDOF 2
ENDMDL
MODEL 3
REMARK VINA RESULT:      -6.1     15.425     18.665
REMARK  Name = COUMESTROL.pdbqt.pdb
REMARK  2 active torsions:
REMARK  status: ('A' for Active; 'I' for Inactive)
REMARK    1  A    between atoms: C_16  and  O_19
REMARK    2  A    between atoms: C_18  and  O_21
REMARK                            x       y       z     vdW  Elec       q    Type
REMARK                         _______ _______ _______ _____ _____    ______ ____
ROOT
ATOM      1  O   UNL     1     -23.474  -7.127   8.641  0.00  0.00    +0.000 OA
ATOM      2  O   UNL     1     -20.576  -5.158  10.741  0.00  0.00    +0.000 OA
ATOM      3  O   UNL     1     -19.672  -4.513   8.715  0.00  0.00    +0.000 OA
ATOM      4  C   UNL     1     -21.611  -5.846   8.665  0.00  0.00    +0.000 A 
ATOM      5  C   UNL     1     -22.555  -6.504   9.410  0.00  0.00    +0.000 A 
ATOM      6  C   UNL     1     -21.962  -6.071   7.310  0.00  0.00    +0.000 A 
ATOM      7  C   UNL     1     -22.603  -6.553  10.840  0.00  0.00    +0.000 A 
ATOM      8  C   UNL     1     -23.113  -6.864   7.347  0.00  0.00    +0.000 A 
ATOM      9  C   UNL     1     -21.575  -5.854  11.490  0.00  0.00    +0.000 A 
ATOM     10  C   UNL     1     -20.546  -5.121   9.319  0.00  0.00    +0.000 A 
ATOM     11  C   UNL     1     -21.442  -5.699   6.060  0.00  0.00    +0.000 A 
ATOM     12  C   UNL     1     -23.566  -7.224  11.584  0.00  0.00    +0.000 A 
ATOM     13  C   UNL     1     -23.792  -7.318   6.217  0.00  0.00    +0.000 A 
ATOM     14  C   UNL     1     -21.490  -5.812  12.876  0.00  0.00    +0.000 A 
ATOM     15  C   UNL     1     -22.098  -6.137   4.906  0.00  0.00    +0.000 A 
ATOM     16  C   UNL     1     -23.243  -6.926   4.994  0.00  0.00    +0.000 A 
ATOM     17  C   UNL     1     -23.493  -7.190  12.976  0.00  0.00    +0.000 A 
ATOM     18  C   UNL     1     -22.461  -6.488  13.606  0.00  0.00    +0.000 A 
ENDROOT
BRANCH  16  19
ATOM     19  O   UNL     1     -23.834  -7.318   3.823  0.00  0.00    +0.000 OA
ATOM     20  H   UNL     1     -23.959  -8.283   3.851  0.00  0.00    +0.000 HD
ENDBRANCH  16  19
BRANCH  18  21
ATOM     21  O   UNL     1     -22.384  -6.450  14.970  0.00  0.00    +0.000 OA
ATOM     22  H   UNL     1     -21.451  -6.336  15.222  0.00  0.00    +0.000 HD
ENDBRANCH  18  21
TORSDOF 2
ENDMDL
MODEL 4
REMARK VINA RESULT:      -6.0     15.027     17.711
REMARK  Name = COUMESTROL.pdbqt.pdb
REMARK  2 active torsions:
REMARK  status: ('A' for Active; 'I' for Inactive)
REMARK    1  A    between atoms: C_16  and  O_19
REMARK    2  A    between atoms: C_18  and  O_21
REMARK                            x       y       z     vdW  Elec       q    Type
REMARK                         _______ _______ _______ _____ _____    ______ ____
ROOT
ATOM      1  O   UNL     1     -23.273  -2.701  10.233  0.00  0.00    +0.000 OA
ATOM      2  O   UNL     1     -21.256  -6.214  10.752  0.00  0.00    +0.000 OA
ATOM      3  O   UNL     1     -20.602  -6.062   8.541  0.00  0.00    +0.000 OA
ATOM      4  C   UNL     1     -21.965  -4.342   9.394  0.00  0.00    +0.000 A 
ATOM      5  C   UNL     1     -22.634  -3.863  10.489  0.00  0.00    +0.000 A 
ATOM      6  C   UNL     1     -22.199  -3.405   8.357  0.00  0.00    +0.000 A 
ATOM      7  C   UNL     1     -22.680  -4.487  11.777  0.00  0.00    +0.000 A 
ATOM      8  C   UNL     1     -23.009  -2.414   8.922  0.00  0.00    +0.000 A 
ATOM      9  C   UNL     1     -21.964  -5.689  11.877  0.00  0.00    +0.000 A 
ATOM     10  C   UNL     1     -21.222  -5.578   9.481  0.00  0.00    +0.000 A 
ATOM     11  C   UNL     1     -21.823  -3.278   7.010  0.00  0.00    +0.000 A 
ATOM     12  C   UNL     1     -23.363  -3.991  12.881  0.00  0.00    +0.000 A 
ATOM     13  C   UNL     1     -23.476  -1.294   8.235  0.00  0.00    +0.000 A 
ATOM     14  C   UNL     1     -21.916  -6.408  13.065  0.00  0.00    +0.000 A 
ATOM     15  C   UNL     1     -22.274  -2.166   6.291  0.00  0.00    +0.000 A 
ATOM     16  C   UNL     1     -23.079  -1.205   6.899  0.00  0.00    +0.000 A 
ATOM     17  C   UNL     1     -23.324  -4.703  14.079  0.00  0.00    +0.000 A 
ATOM     18  C   UNL     1     -22.605  -5.899  14.160  0.00  0.00    +0.000 A 
ENDROOT
BRANCH  16  19
ATOM     19  O   UNL     1     -23.484  -0.143   6.135  0.00  0.00    +0.000 OA
ATOM     20  H   UNL     1     -24.291  -0.400   5.656  0.00  0.00    +0.000 HD
ENDBRANCH  16  19
BRANCH  18  21
ATOM     21  O   UNL     1     -22.562  -6.601  15.331  0.00  0.00    +0.000 OA
ATOM     22  H   UNL     1     -21.707  -7.063  15.382  0.00  0.00    +0.000 HD
ENDBRANCH  18  21
TORSDOF 2
ENDMDL
MODEL 5
REMARK VINA RESULT:      -6.0      2.643      6.653
REMARK  Name = COUMESTROL.pdbqt.pdb
REMARK  2 active torsions:
REMARK  status: ('A' for Active; 'I' for Inactive)
REMARK    1  A    between atoms: C_16  and  O_19
REMARK    2  A    between atoms: C_18  and  O_21
REMARK                            x       y       z     vdW  Elec       q    Type
REMARK                         _______ _______ _______ _____ _____    ______ ____
ROOT
ATOM      1  O   UNL     1      -9.472  -5.706  21.958  0.00  0.00    +0.000 OA
ATOM      2  O   UNL     1     -12.199  -3.753  24.288  0.00  0.00    +0.000 OA
ATOM      3  O   UNL     1     -12.778  -2.520  22.422  0.00  0.00    +0.000 OA
ATOM      4  C   UNL     1     -11.090  -4.142  22.174  0.00  0.00    +0.000 A 
ATOM      5  C   UNL     1     -10.347  -5.110  22.797  0.00  0.00    +0.000 A 
ATOM      6  C   UNL     1     -10.649  -4.123  20.827  0.00  0.00    +0.000 A 
ATOM      7  C   UNL     1     -10.451  -5.483  24.176  0.00  0.00    +0.000 A 
ATOM      8  C   UNL     1      -9.653  -5.101  20.744  0.00  0.00    +0.000 A 
ATOM      9  C   UNL     1     -11.408  -4.768  24.910  0.00  0.00    +0.000 A 
ATOM     10  C   UNL     1     -12.081  -3.397  22.917  0.00  0.00    +0.000 A 
ATOM     11  C   UNL     1     -10.973  -3.394  19.671  0.00  0.00    +0.000 A 
ATOM     12  C   UNL     1      -9.691  -6.467  24.796  0.00  0.00    +0.000 A 
ATOM     13  C   UNL     1      -8.950  -5.411  19.580  0.00  0.00    +0.000 A 
ATOM     14  C   UNL     1     -11.623  -5.019  26.260  0.00  0.00    +0.000 A 
ATOM     15  C   UNL     1     -10.287  -3.678  18.487  0.00  0.00    +0.000 A 
ATOM     16  C   UNL     1      -9.302  -4.664  18.454  0.00  0.00    +0.000 A 
ATOM     17  C   UNL     1      -9.895  -6.729  26.150  0.00  0.00    +0.000 A 
ATOM     18  C   UNL     1     -10.854  -6.006  26.867  0.00  0.00    +0.000 A 
ENDROOT
BRANCH  16  19
ATOM     19  O   UNL     1      -8.671  -4.889  17.260  0.00  0.00    +0.000 OA
ATOM     20  H   UNL     1      -9.283  -4.657  16.541  0.00  0.00    +0.000 HD
ENDBRANCH  16  19
BRANCH  18  21
ATOM     21  O   UNL     1     -11.060  -6.258  28.194  0.00  0.00    +0.000 OA
ATOM     22  H   UNL     1     -11.531  -5.500  28.581  0.00  0.00    +0.000 HD
ENDBRANCH  18  21
TORSDOF 2
ENDMDL
MODEL 6
REMARK VINA RESULT:      -5.7      3.731      6.008
REMARK  Name = COUMESTROL.pdbqt.pdb
REMARK  2 active torsions:
REMARK  status: ('A' for Active; 'I' for Inactive)
REMARK    1  A    between atoms: C_16  and  O_19
REMARK    2  A    between atoms: C_18  and  O_21
REMARK                            x       y       z     vdW  Elec       q    Type
REMARK                         _______ _______ _______ _____ _____    ______ ____
ROOT
ATOM      1  O   UNL     1      -8.432  -0.906  20.839  0.00  0.00    +0.000 OA
ATOM      2  O   UNL     1      -6.431  -2.408  24.068  0.00  0.00    +0.000 OA
ATOM      3  O   UNL     1      -7.594  -4.381  23.759  0.00  0.00    +0.000 OA
ATOM      4  C   UNL     1      -8.029  -2.615  22.264  0.00  0.00    +0.000 A 
ATOM      5  C   UNL     1      -7.729  -1.325  21.914  0.00  0.00    +0.000 A 
ATOM      6  C   UNL     1      -9.005  -3.051  21.333  0.00  0.00    +0.000 A 
ATOM      7  C   UNL     1      -6.785  -0.479  22.580  0.00  0.00    +0.000 A 
ATOM      8  C   UNL     1      -9.220  -1.965  20.478  0.00  0.00    +0.000 A 
ATOM      9  C   UNL     1      -6.138  -1.064  23.679  0.00  0.00    +0.000 A 
ATOM     10  C   UNL     1      -7.372  -3.233  23.392  0.00  0.00    +0.000 A 
ATOM     11  C   UNL     1      -9.731  -4.233  21.113  0.00  0.00    +0.000 A 
ATOM     12  C   UNL     1      -6.489   0.829  22.215  0.00  0.00    +0.000 A 
ATOM     13  C   UNL     1     -10.114  -1.972  19.408  0.00  0.00    +0.000 A 
ATOM     14  C   UNL     1      -5.197  -0.366  24.423  0.00  0.00    +0.000 A 
ATOM     15  C   UNL     1     -10.636  -4.274  20.049  0.00  0.00    +0.000 A 
ATOM     16  C   UNL     1     -10.815  -3.165  19.224  0.00  0.00    +0.000 A 
ATOM     17  C   UNL     1      -5.546   1.542  22.954  0.00  0.00    +0.000 A 
ATOM     18  C   UNL     1      -4.911   0.942  24.046  0.00  0.00    +0.000 A 
ENDROOT
BRANCH  16  19
ATOM     19  O   UNL     1     -11.719  -3.276  18.201  0.00  0.00    +0.000 OA
ATOM     20  H   UNL     1     -11.757  -4.208  17.925  0.00  0.00    +0.000 HD
ENDBRANCH  16  19
BRANCH  18  21
ATOM     21  O   UNL     1      -3.986   1.635  24.774  0.00  0.00    +0.000 OA
ATOM     22  H   UNL     1      -4.281   2.560  24.845  0.00  0.00    +0.000 HD
ENDBRANCH  18  21
TORSDOF 2
ENDMDL
MODEL 7
REMARK VINA RESULT:      -5.7      3.629      5.307
REMARK  Name = COUMESTROL.pdbqt.pdb
REMARK  2 active torsions:
REMARK  status: ('A' for Active; 'I' for Inactive)
REMARK    1  A    between atoms: C_16  and  O_19
REMARK    2  A    between atoms: C_18  and  O_21
REMARK                            x       y       z     vdW  Elec       q    Type
REMARK                         _______ _______ _______ _____ _____    ______ ____
ROOT
ATOM      1  O   UNL     1      -8.197  -5.391  24.533  0.00  0.00    +0.000 OA
ATOM      2  O   UNL     1     -11.685  -4.853  22.476  0.00  0.00    +0.000 OA
ATOM      3  O   UNL     1     -12.656  -6.395  23.896  0.00  0.00    +0.000 OA
ATOM      4  C   UNL     1     -10.381  -5.891  24.230  0.00  0.00    +0.000 A 
ATOM      5  C   UNL     1      -9.307  -5.155  23.801  0.00  0.00    +0.000 A 
ATOM      6  C   UNL     1      -9.911  -6.658  25.326  0.00  0.00    +0.000 A 
ATOM      7  C   UNL     1      -9.314  -4.230  22.708  0.00  0.00    +0.000 A 
ATOM      8  C   UNL     1      -8.563  -6.316  25.473  0.00  0.00    +0.000 A 
ATOM      9  C   UNL     1     -10.547  -4.099  22.052  0.00  0.00    +0.000 A 
ATOM     10  C   UNL     1     -11.658  -5.768  23.565  0.00  0.00    +0.000 A 
ATOM     11  C   UNL     1     -10.466  -7.598  26.208  0.00  0.00    +0.000 A 
ATOM     12  C   UNL     1      -8.218  -3.489  22.283  0.00  0.00    +0.000 A 
ATOM     13  C   UNL     1      -7.718  -6.849  26.446  0.00  0.00    +0.000 A 
ATOM     14  C   UNL     1     -10.707  -3.239  20.973  0.00  0.00    +0.000 A 
ATOM     15  C   UNL     1      -9.647  -8.153  27.196  0.00  0.00    +0.000 A 
ATOM     16  C   UNL     1      -8.309  -7.781  27.302  0.00  0.00    +0.000 A 
ATOM     17  C   UNL     1      -8.364  -2.622  21.201  0.00  0.00    +0.000 A 
ATOM     18  C   UNL     1      -9.600  -2.505  20.559  0.00  0.00    +0.000 A 
ENDROOT
BRANCH  16  19
ATOM     19  O   UNL     1      -7.565  -8.364  28.293  0.00  0.00    +0.000 OA
ATOM     20  H   UNL     1      -8.174  -8.725  28.961  0.00  0.00    +0.000 HD
ENDBRANCH  16  19
BRANCH  18  21
ATOM     21  O   UNL     1      -9.751  -1.657  19.498  0.00  0.00    +0.000 OA
ATOM     22  H   UNL     1      -9.224  -0.856  19.667  0.00  0.00    +0.000 HD
ENDBRANCH  18  21
TORSDOF 2
ENDMDL
MODEL 8
REMARK VINA RESULT:      -5.7     16.357     18.396
REMARK  Name = COUMESTROL.pdbqt.pdb
REMARK  2 active torsions:
REMARK  status: ('A' for Active; 'I' for Inactive)
REMARK    1  A    between atoms: C_16  and  O_19
REMARK    2  A    between atoms: C_18  and  O_21
REMARK                            x       y       z     vdW  Elec       q    Type
REMARK                         _______ _______ _______ _____ _____    ______ ____
ROOT
ATOM      1  O   UNL     1     -21.805  -3.137  10.242  0.00  0.00    +0.000 OA
ATOM      2  O   UNL     1     -22.246  -0.168   7.471  0.00  0.00    +0.000 OA
ATOM      3  O   UNL     1     -22.431  -1.818   5.864  0.00  0.00    +0.000 OA
ATOM      4  C   UNL     1     -22.112  -2.502   8.094  0.00  0.00    +0.000 A 
ATOM      5  C   UNL     1     -21.943  -2.096   9.392  0.00  0.00    +0.000 A 
ATOM      6  C   UNL     1     -22.078  -3.919   8.125  0.00  0.00    +0.000 A 
ATOM      7  C   UNL     1     -21.910  -0.738   9.843  0.00  0.00    +0.000 A 
ATOM      8  C   UNL     1     -21.887  -4.261   9.467  0.00  0.00    +0.000 A 
ATOM      9  C   UNL     1     -22.068   0.224   8.834  0.00  0.00    +0.000 A 
ATOM     10  C   UNL     1     -22.276  -1.524   7.043  0.00  0.00    +0.000 A 
ATOM     11  C   UNL     1     -22.186  -4.949   7.177  0.00  0.00    +0.000 A 
ATOM     12  C   UNL     1     -21.738  -0.339  11.163  0.00  0.00    +0.000 A 
ATOM     13  C   UNL     1     -21.795  -5.570   9.940  0.00  0.00    +0.000 A 
ATOM     14  C   UNL     1     -22.058   1.583   9.120  0.00  0.00    +0.000 A 
ATOM     15  C   UNL     1     -22.098  -6.274   7.616  0.00  0.00    +0.000 A 
ATOM     16  C   UNL     1     -21.907  -6.565   8.965  0.00  0.00    +0.000 A 
ATOM     17  C   UNL     1     -21.726   1.023  11.464  0.00  0.00    +0.000 A 
ATOM     18  C   UNL     1     -21.885   1.967  10.445  0.00  0.00    +0.000 A 
ENDROOT
BRANCH  16  19
ATOM     19  O   UNL     1     -21.831  -7.884   9.325  0.00  0.00    +0.000 OA
ATOM     20  H   UNL     1     -20.966  -8.038   9.744  0.00  0.00    +0.000 HD
ENDBRANCH  16  19
BRANCH  18  21
ATOM     21  O   UNL     1     -21.874   3.302  10.733  0.00  0.00    +0.000 OA
ATOM     22  H   UNL     1     -21.501   3.778   9.970  0.00  0.00    +0.000 HD
ENDBRANCH  18  21
TORSDOF 2
ENDMDL
MODEL 9
REMARK VINA RESULT:      -5.6     18.240     19.330
REMARK  Name = COUMESTROL.pdbqt.pdb
REMARK  2 active torsions:
REMARK  status: ('A' for Active; 'I' for Inactive)
REMARK    1  A    between atoms: C_16  and  O_19
REMARK    2  A    between atoms: C_18  and  O_21
REMARK                            x       y       z     vdW  Elec       q    Type
REMARK                         _______ _______ _______ _____ _____    ______ ____
ROOT
ATOM      1  O   UNL     1       3.674 -13.159  12.198  0.00  0.00    +0.000 OA
ATOM      2  O   UNL     1       2.913 -15.258  15.618  0.00  0.00    +0.000 OA
ATOM      3  O   UNL     1       3.707 -13.441  16.804  0.00  0.00    +0.000 OA
ATOM      4  C   UNL     1       3.695 -13.286  14.455  0.00  0.00    +0.000 A 
ATOM      5  C   UNL     1       3.393 -13.920  13.278  0.00  0.00    +0.000 A 
ATOM      6  C   UNL     1       4.211 -12.018  14.090  0.00  0.00    +0.000 A 
ATOM      7  C   UNL     1       2.841 -15.236  13.157  0.00  0.00    +0.000 A 
ATOM      8  C   UNL     1       4.178 -11.987  12.692  0.00  0.00    +0.000 A 
ATOM      9  C   UNL     1       2.608 -15.893  14.374  0.00  0.00    +0.000 A 
ATOM     10  C   UNL     1       3.460 -13.949  15.717  0.00  0.00    +0.000 A 
ATOM     11  C   UNL     1       4.700 -10.894  14.775  0.00  0.00    +0.000 A 
ATOM     12  C   UNL     1       2.539 -15.867  11.957  0.00  0.00    +0.000 A 
ATOM     13  C   UNL     1       4.602 -10.907  11.919  0.00  0.00    +0.000 A 
ATOM     14  C   UNL     1       2.076 -17.175  14.416  0.00  0.00    +0.000 A 
ATOM     15  C   UNL     1       5.134  -9.793  14.031  0.00  0.00    +0.000 A 
ATOM     16  C   UNL     1       5.081  -9.810  12.639  0.00  0.00    +0.000 A 
ATOM     17  C   UNL     1       2.005 -17.155  11.984  0.00  0.00    +0.000 A 
ATOM     18  C   UNL     1       1.779 -17.794  13.206  0.00  0.00    +0.000 A 
ENDROOT
BRANCH  16  19
ATOM     19  O   UNL     1       5.523  -8.697  11.974  0.00  0.00    +0.000 OA
ATOM     20  H   UNL     1       5.424  -7.929  12.563  0.00  0.00    +0.000 HD
ENDBRANCH  16  19
BRANCH  18  21
ATOM     21  O   UNL     1       1.255 -19.056  13.240  0.00  0.00    +0.000 OA
ATOM     22  H   UNL     1       1.242 -19.359  14.165  0.00  0.00    +0.000 HD
ENDBRANCH  18  21
TORSDOF 2
ENDMDL
