MODEL 1
REMARK VINA RESULT:      -6.2      0.000      0.000
REMARK  Name = CP466722.pdbqt.pdb
REMARK  3 active torsions:
REMARK  status: ('A' for Active; 'I' for Inactive)
REMARK    1  A    between atoms: C_5  and  C_23
REMARK    2  A    between atoms: C_14  and  O_16
REMARK    3  A    between atoms: C_15  and  O_18
REMARK                            x       y       z     vdW  Elec       q    Type
REMARK                         _______ _______ _______ _____ _____    ______ ____
ROOT
ATOM      1  N   UNL     1     -12.598  -4.179  24.224  0.00  0.00    +0.000 N 
ATOM      2  N   UNL     1     -11.640  -4.704  23.424  0.00  0.00    +0.000 NA
ATOM      3  N   UNL     1     -12.679  -2.971  22.374  0.00  0.00    +0.000 NA
ATOM      4  C   UNL     1     -13.208  -3.111  23.563  0.00  0.00    +0.000 A 
ATOM      5  C   UNL     1     -11.718  -3.953  22.315  0.00  0.00    +0.000 A 
ATOM      6  C   UNL     1     -12.913  -4.711  25.519  0.00  0.00    +0.000 A 
ATOM      7  N   UNL     1     -13.986  -4.174  26.159  0.00  0.00    +0.000 NA
ATOM      8  C   UNL     1     -14.292  -4.687  27.355  0.00  0.00    +0.000 A 
ATOM      9  N   UNL     1     -13.639  -5.682  27.963  0.00  0.00    +0.000 NA
ATOM     10  C   UNL     1     -12.587  -6.205  27.331  0.00  0.00    +0.000 A 
ATOM     11  C   UNL     1     -12.148  -5.755  26.079  0.00  0.00    +0.000 A 
ATOM     12  C   UNL     1     -11.907  -7.245  27.949  0.00  0.00    +0.000 A 
ATOM     13  C   UNL     1     -11.000  -6.359  25.513  0.00  0.00    +0.000 A 
ATOM     14  C   UNL     1     -10.305  -7.375  26.158  0.00  0.00    +0.000 A 
ATOM     15  C   UNL     1     -10.797  -7.859  27.364  0.00  0.00    +0.000 A 
ATOM     16  N   UNL     1     -14.186  -2.342  24.080  0.00  0.00    +0.000 N 
ATOM     17  H   UNL     1     -14.721  -1.758  23.446  0.00  0.00    +0.000 HD
ATOM     18  H   UNL     1     -14.686  -2.657  24.910  0.00  0.00    +0.000 HD
ENDROOT
BRANCH   5  19
ATOM     19  C   UNL     1     -10.873  -4.145  21.133  0.00  0.00    +0.000 A 
ATOM     20  N   UNL     1     -11.261  -3.558  19.968  0.00  0.00    +0.000 NA
ATOM     21  C   UNL     1     -10.466  -3.750  18.892  0.00  0.00    +0.000 A 
ATOM     22  C   UNL     1      -9.300  -4.495  18.911  0.00  0.00    +0.000 A 
ATOM     23  C   UNL     1      -8.928  -5.079  20.114  0.00  0.00    +0.000 A 
ATOM     24  C   UNL     1      -9.717  -4.908  21.244  0.00  0.00    +0.000 A 
ENDBRANCH   5  19
BRANCH  14  25
ATOM     25  O   UNL     1      -9.217  -7.919  25.530  0.00  0.00    +0.000 OA
ATOM     26  C   UNL     1      -8.065  -7.160  25.797  0.00  0.00    +0.000 C 
ENDBRANCH  14  25
BRANCH  15  27
ATOM     27  O   UNL     1     -10.161  -8.872  28.030  0.00  0.00    +0.000 OA
ATOM     28  C   UNL     1      -9.456  -8.359  29.133  0.00  0.00    +0.000 C 
ENDBRANCH  15  27
TORSDOF 3
ENDMDL
MODEL 2
REMARK VINA RESULT:      -6.2      4.262      5.833
REMARK  Name = CP466722.pdbqt.pdb
REMARK  3 active torsions:
REMARK  status: ('A' for Active; 'I' for Inactive)
REMARK    1  A    between atoms: C_5  and  C_23
REMARK    2  A    between atoms: C_14  and  O_16
REMARK    3  A    between atoms: C_15  and  O_18
REMARK                            x       y       z     vdW  Elec       q    Type
REMARK                         _______ _______ _______ _____ _____    ______ ____
ROOT
ATOM      1  N   UNL     1     -12.257  -3.730  23.251  0.00  0.00    +0.000 N 
ATOM      2  N   UNL     1     -11.485  -3.315  22.219  0.00  0.00    +0.000 NA
ATOM      3  N   UNL     1     -11.895  -5.548  22.045  0.00  0.00    +0.000 NA
ATOM      4  C   UNL     1     -12.505  -5.098  23.111  0.00  0.00    +0.000 A 
ATOM      5  C   UNL     1     -11.283  -4.438  21.513  0.00  0.00    +0.000 A 
ATOM      6  C   UNL     1     -12.684  -2.859  24.308  0.00  0.00    +0.000 A 
ATOM      7  N   UNL     1     -13.341  -3.435  25.350  0.00  0.00    +0.000 NA
ATOM      8  C   UNL     1     -13.718  -2.625  26.345  0.00  0.00    +0.000 A 
ATOM      9  N   UNL     1     -13.494  -1.309  26.402  0.00  0.00    +0.000 NA
ATOM     10  C   UNL     1     -12.849  -0.749  25.377  0.00  0.00    +0.000 A 
ATOM     11  C   UNL     1     -12.409  -1.478  24.263  0.00  0.00    +0.000 A 
ATOM     12  C   UNL     1     -12.603   0.616  25.429  0.00  0.00    +0.000 A 
ATOM     13  C   UNL     1     -11.764  -0.777  23.216  0.00  0.00    +0.000 A 
ATOM     14  C   UNL     1     -11.556   0.596  23.262  0.00  0.00    +0.000 A 
ATOM     15  C   UNL     1     -11.931   1.290  24.407  0.00  0.00    +0.000 A 
ATOM     16  N   UNL     1     -13.264  -5.832  23.948  0.00  0.00    +0.000 N 
ATOM     17  H   UNL     1     -13.188  -6.842  23.901  0.00  0.00    +0.000 HD
ATOM     18  H   UNL     1     -13.512  -5.455  24.862  0.00  0.00    +0.000 HD
ENDROOT
BRANCH   5  19
ATOM     19  C   UNL     1     -10.482  -4.503  20.287  0.00  0.00    +0.000 A 
ATOM     20  N   UNL     1      -9.397  -5.325  20.275  0.00  0.00    +0.000 NA
ATOM     21  C   UNL     1      -8.675  -5.366  19.134  0.00  0.00    +0.000 A 
ATOM     22  C   UNL     1      -8.974  -4.636  17.998  0.00  0.00    +0.000 A 
ATOM     23  C   UNL     1     -10.088  -3.808  18.038  0.00  0.00    +0.000 A 
ATOM     24  C   UNL     1     -10.858  -3.734  19.192  0.00  0.00    +0.000 A 
ENDBRANCH   5  19
BRANCH  14  25
ATOM     25  O   UNL     1     -10.904   1.191  22.216  0.00  0.00    +0.000 OA
ATOM     26  C   UNL     1      -9.852   0.375  21.765  0.00  0.00    +0.000 C 
ENDBRANCH  14  25
BRANCH  15  27
ATOM     27  O   UNL     1     -11.731   2.640  24.511  0.00  0.00    +0.000 OA
ATOM     28  C   UNL     1     -10.585   2.902  25.282  0.00  0.00    +0.000 C 
ENDBRANCH  15  27
TORSDOF 3
ENDMDL
MODEL 3
REMARK VINA RESULT:      -6.1     17.772     20.107
REMARK  Name = CP466722.pdbqt.pdb
REMARK  3 active torsions:
REMARK  status: ('A' for Active; 'I' for Inactive)
REMARK    1  A    between atoms: C_5  and  C_23
REMARK    2  A    between atoms: C_14  and  O_16
REMARK    3  A    between atoms: C_15  and  O_18
REMARK                            x       y       z     vdW  Elec       q    Type
REMARK                         _______ _______ _______ _____ _____    ______ ____
ROOT
ATOM      1  N   UNL     1     -22.411  -2.465   7.049  0.00  0.00    +0.000 N 
ATOM      2  N   UNL     1     -22.060  -2.250   8.338  0.00  0.00    +0.000 NA
ATOM      3  N   UNL     1     -22.270  -0.266   7.240  0.00  0.00    +0.000 NA
ATOM      4  C   UNL     1     -22.547  -1.233   6.404  0.00  0.00    +0.000 A 
ATOM      5  C   UNL     1     -21.981  -0.913   8.419  0.00  0.00    +0.000 A 
ATOM      6  C   UNL     1     -22.562  -3.777   6.488  0.00  0.00    +0.000 A 
ATOM      7  N   UNL     1     -22.785  -3.849   5.148  0.00  0.00    +0.000 NA
ATOM      8  C   UNL     1     -22.903  -5.073   4.623  0.00  0.00    +0.000 A 
ATOM      9  N   UNL     1     -22.811  -6.221   5.302  0.00  0.00    +0.000 NA
ATOM     10  C   UNL     1     -22.593  -6.144   6.616  0.00  0.00    +0.000 A 
ATOM     11  C   UNL     1     -22.462  -4.926   7.297  0.00  0.00    +0.000 A 
ATOM     12  C   UNL     1     -22.486  -7.329   7.330  0.00  0.00    +0.000 A 
ATOM     13  C   UNL     1     -22.265  -4.959   8.698  0.00  0.00    +0.000 A 
ATOM     14  C   UNL     1     -22.198  -6.152   9.408  0.00  0.00    +0.000 A 
ATOM     15  C   UNL     1     -22.254  -7.350   8.707  0.00  0.00    +0.000 A 
ATOM     16  N   UNL     1     -22.915  -1.074   5.117  0.00  0.00    +0.000 N 
ATOM     17  H   UNL     1     -22.754  -0.173   4.681  0.00  0.00    +0.000 HD
ATOM     18  H   UNL     1     -22.893  -1.875   4.486  0.00  0.00    +0.000 HD
ENDROOT
BRANCH   5  19
ATOM     19  C   UNL     1     -21.616  -0.184   9.638  0.00  0.00    +0.000 A 
ATOM     20  N   UNL     1     -20.923   0.980   9.503  0.00  0.00    +0.000 NA
ATOM     21  C   UNL     1     -20.598   1.632  10.640  0.00  0.00    +0.000 A 
ATOM     22  C   UNL     1     -20.926   1.192  11.910  0.00  0.00    +0.000 A 
ATOM     23  C   UNL     1     -21.636   0.003  12.016  0.00  0.00    +0.000 A 
ATOM     24  C   UNL     1     -21.989  -0.701  10.872  0.00  0.00    +0.000 A 
ENDBRANCH   5  19
BRANCH  14  25
ATOM     25  O   UNL     1     -21.983  -6.094  10.759  0.00  0.00    +0.000 OA
ATOM     26  C   UNL     1     -22.235  -4.798  11.241  0.00  0.00    +0.000 C 
ENDBRANCH  14  25
BRANCH  15  27
ATOM     27  O   UNL     1     -22.172  -8.553   9.356  0.00  0.00    +0.000 OA
ATOM     28  C   UNL     1     -23.445  -9.145   9.441  0.00  0.00    +0.000 C 
ENDBRANCH  15  27
TORSDOF 3
ENDMDL
MODEL 4
REMARK VINA RESULT:      -6.0     16.159     18.157
REMARK  Name = CP466722.pdbqt.pdb
REMARK  3 active torsions:
REMARK  status: ('A' for Active; 'I' for Inactive)
REMARK    1  A    between atoms: C_5  and  C_23
REMARK    2  A    between atoms: C_14  and  O_16
REMARK    3  A    between atoms: C_15  and  O_18
REMARK                            x       y       z     vdW  Elec       q    Type
REMARK                         _______ _______ _______ _____ _____    ______ ____
ROOT
ATOM      1  N   UNL     1     -24.380  -7.825  10.019  0.00  0.00    +0.000 N 
ATOM      2  N   UNL     1     -23.203  -7.159  10.093  0.00  0.00    +0.000 NA
ATOM      3  N   UNL     1     -23.837  -7.395   7.919  0.00  0.00    +0.000 NA
ATOM      4  C   UNL     1     -24.752  -7.942   8.678  0.00  0.00    +0.000 A 
ATOM      5  C   UNL     1     -22.903  -6.917   8.808  0.00  0.00    +0.000 A 
ATOM      6  C   UNL     1     -25.062  -8.338  11.173  0.00  0.00    +0.000 A 
ATOM      7  N   UNL     1     -26.162  -9.103  10.944  0.00  0.00    +0.000 NA
ATOM      8  C   UNL     1     -26.783  -9.600  12.019  0.00  0.00    +0.000 A 
ATOM      9  N   UNL     1     -26.407  -9.413  13.288  0.00  0.00    +0.000 NA
ATOM     10  C   UNL     1     -25.327  -8.661  13.506  0.00  0.00    +0.000 A 
ATOM     11  C   UNL     1     -24.589  -8.069  12.472  0.00  0.00    +0.000 A 
ATOM     12  C   UNL     1     -24.921  -8.468  14.819  0.00  0.00    +0.000 A 
ATOM     13  C   UNL     1     -23.478  -7.263  12.818  0.00  0.00    +0.000 A 
ATOM     14  C   UNL     1     -23.103  -7.046  14.139  0.00  0.00    +0.000 A 
ATOM     15  C   UNL     1     -23.801  -7.701  15.146  0.00  0.00    +0.000 A 
ATOM     16  N   UNL     1     -25.885  -8.525   8.241  0.00  0.00    +0.000 N 
ATOM     17  H   UNL     1     -25.949  -8.772   7.259  0.00  0.00    +0.000 HD
ATOM     18  H   UNL     1     -26.422  -9.116   8.875  0.00  0.00    +0.000 HD
ENDROOT
BRANCH   5  19
ATOM     19  C   UNL     1     -21.695  -6.215   8.365  0.00  0.00    +0.000 A 
ATOM     20  N   UNL     1     -20.900  -5.650   9.315  0.00  0.00    +0.000 NA
ATOM     21  C   UNL     1     -19.792  -5.009   8.882  0.00  0.00    +0.000 A 
ATOM     22  C   UNL     1     -19.428  -4.898   7.552  0.00  0.00    +0.000 A 
ATOM     23  C   UNL     1     -20.257  -5.487   6.605  0.00  0.00    +0.000 A 
ATOM     24  C   UNL     1     -21.407  -6.155   7.007  0.00  0.00    +0.000 A 
ENDBRANCH   5  19
BRANCH  14  25
ATOM     25  O   UNL     1     -22.002  -6.271  14.384  0.00  0.00    +0.000 OA
ATOM     26  C   UNL     1     -21.276  -6.060  13.199  0.00  0.00    +0.000 C 
ENDBRANCH  14  25
BRANCH  15  27
ATOM     27  O   UNL     1     -23.460  -7.538  16.462  0.00  0.00    +0.000 OA
ATOM     28  C   UNL     1     -23.910  -8.634  17.219  0.00  0.00    +0.000 C 
ENDBRANCH  15  27
TORSDOF 3
ENDMDL
MODEL 5
REMARK VINA RESULT:      -6.0     17.403     20.538
REMARK  Name = CP466722.pdbqt.pdb
REMARK  3 active torsions:
REMARK  status: ('A' for Active; 'I' for Inactive)
REMARK    1  A    between atoms: C_5  and  C_23
REMARK    2  A    between atoms: C_14  and  O_16
REMARK    3  A    between atoms: C_15  and  O_18
REMARK                            x       y       z     vdW  Elec       q    Type
REMARK                         _______ _______ _______ _____ _____    ______ ____
ROOT
ATOM      1  N   UNL     1     -22.829   0.004   7.516  0.00  0.00    +0.000 N 
ATOM      2  N   UNL     1     -21.876  -0.133   8.468  0.00  0.00    +0.000 NA
ATOM      3  N   UNL     1     -22.688   1.995   8.469  0.00  0.00    +0.000 NA
ATOM      4  C   UNL     1     -23.319   1.312   7.549  0.00  0.00    +0.000 A 
ATOM      5  C   UNL     1     -21.814   1.087   9.022  0.00  0.00    +0.000 A 
ATOM      6  C   UNL     1     -23.199  -1.055   6.621  0.00  0.00    +0.000 A 
ATOM      7  N   UNL     1     -24.072  -0.741   5.628  0.00  0.00    +0.000 NA
ATOM      8  C   UNL     1     -24.398  -1.724   4.781  0.00  0.00    +0.000 A 
ATOM      9  N   UNL     1     -23.932  -2.975   4.828  0.00  0.00    +0.000 NA
ATOM     10  C   UNL     1     -23.075  -3.277   5.806  0.00  0.00    +0.000 A 
ATOM     11  C   UNL     1     -22.659  -2.348   6.768  0.00  0.00    +0.000 A 
ATOM     12  C   UNL     1     -22.577  -4.571   5.858  0.00  0.00    +0.000 A 
ATOM     13  C   UNL     1     -21.772  -2.784   7.781  0.00  0.00    +0.000 A 
ATOM     14  C   UNL     1     -21.309  -4.093   7.846  0.00  0.00    +0.000 A 
ATOM     15  C   UNL     1     -21.673  -4.981   6.841  0.00  0.00    +0.000 A 
ATOM     16  N   UNL     1     -24.299   1.788   6.756  0.00  0.00    +0.000 N 
ATOM     17  H   UNL     1     -24.415   2.793   6.689  0.00  0.00    +0.000 HD
ATOM     18  H   UNL     1     -24.574   1.260   5.927  0.00  0.00    +0.000 HD
ENDROOT
BRANCH   5  19
ATOM     19  C   UNL     1     -20.904   1.448  10.113  0.00  0.00    +0.000 A 
ATOM     20  N   UNL     1     -20.097   2.531   9.940  0.00  0.00    +0.000 NA
ATOM     21  C   UNL     1     -19.266   2.842  10.959  0.00  0.00    +0.000 A 
ATOM     22  C   UNL     1     -19.194   2.137  12.147  0.00  0.00    +0.000 A 
ATOM     23  C   UNL     1     -20.032   1.039  12.296  0.00  0.00    +0.000 A 
ATOM     24  C   UNL     1     -20.900   0.682  11.272  0.00  0.00    +0.000 A 
ENDBRANCH   5  19
BRANCH  14  25
ATOM     25  O   UNL     1     -20.436  -4.425   8.847  0.00  0.00    +0.000 OA
ATOM     26  C   UNL     1     -21.130  -4.666  10.045  0.00  0.00    +0.000 C 
ENDBRANCH  14  25
BRANCH  15  27
ATOM     27  O   UNL     1     -21.229  -6.275   6.848  0.00  0.00    +0.000 OA
ATOM     28  C   UNL     1     -22.195  -7.117   7.427  0.00  0.00    +0.000 C 
ENDBRANCH  15  27
TORSDOF 3
ENDMDL
MODEL 6
REMARK VINA RESULT:      -6.0      3.699      5.242
REMARK  Name = CP466722.pdbqt.pdb
REMARK  3 active torsions:
REMARK  status: ('A' for Active; 'I' for Inactive)
REMARK    1  A    between atoms: C_5  and  C_23
REMARK    2  A    between atoms: C_14  and  O_16
REMARK    3  A    between atoms: C_15  and  O_18
REMARK                            x       y       z     vdW  Elec       q    Type
REMARK                         _______ _______ _______ _____ _____    ______ ____
ROOT
ATOM      1  N   UNL     1     -12.686  -4.720  23.975  0.00  0.00    +0.000 N 
ATOM      2  N   UNL     1     -12.154  -3.942  23.003  0.00  0.00    +0.000 NA
ATOM      3  N   UNL     1     -11.743  -6.139  22.565  0.00  0.00    +0.000 NA
ATOM      4  C   UNL     1     -12.432  -6.060  23.674  0.00  0.00    +0.000 A 
ATOM      5  C   UNL     1     -11.591  -4.830  22.170  0.00  0.00    +0.000 A 
ATOM      6  C   UNL     1     -13.355  -4.185  25.127  0.00  0.00    +0.000 A 
ATOM      7  N   UNL     1     -13.721  -5.072  26.090  0.00  0.00    +0.000 NA
ATOM      8  C   UNL     1     -14.323  -4.569  27.173  0.00  0.00    +0.000 A 
ATOM      9  N   UNL     1     -14.584  -3.276  27.385  0.00  0.00    +0.000 NA
ATOM     10  C   UNL     1     -14.223  -2.410  26.436  0.00  0.00    +0.000 A 
ATOM     11  C   UNL     1     -13.595  -2.802  25.246  0.00  0.00    +0.000 A 
ATOM     12  C   UNL     1     -14.480  -1.063  26.650  0.00  0.00    +0.000 A 
ATOM     13  C   UNL     1     -13.285  -1.804  24.292  0.00  0.00    +0.000 A 
ATOM     14  C   UNL     1     -13.582  -0.462  24.501  0.00  0.00    +0.000 A 
ATOM     15  C   UNL     1     -14.135  -0.083  25.718  0.00  0.00    +0.000 A 
ATOM     16  N   UNL     1     -12.845  -7.108  24.415  0.00  0.00    +0.000 N 
ATOM     17  H   UNL     1     -12.414  -8.011  24.249  0.00  0.00    +0.000 HD
ATOM     18  H   UNL     1     -13.176  -6.950  25.366  0.00  0.00    +0.000 HD
ENDROOT
BRANCH   5  19
ATOM     19  C   UNL     1     -10.869  -4.465  20.947  0.00  0.00    +0.000 A 
ATOM     20  N   UNL     1     -11.440  -3.550  20.117  0.00  0.00    +0.000 NA
ATOM     21  C   UNL     1     -10.755  -3.231  18.997  0.00  0.00    +0.000 A 
ATOM     22  C   UNL     1      -9.528  -3.771  18.655  0.00  0.00    +0.000 A 
ATOM     23  C   UNL     1      -8.969  -4.700  19.523  0.00  0.00    +0.000 A 
ATOM     24  C   UNL     1      -9.640  -5.058  20.686  0.00  0.00    +0.000 A 
ENDBRANCH   5  19
BRANCH  14  25
ATOM     25  O   UNL     1     -13.227   0.440  23.535  0.00  0.00    +0.000 OA
ATOM     26  C   UNL     1     -11.830   0.593  23.494  0.00  0.00    +0.000 C 
ENDBRANCH  14  25
BRANCH  15  27
ATOM     27  O   UNL     1     -14.428   1.228  25.982  0.00  0.00    +0.000 OA
ATOM     28  C   UNL     1     -13.490   1.763  26.881  0.00  0.00    +0.000 C 
ENDBRANCH  15  27
TORSDOF 3
ENDMDL
MODEL 7
REMARK VINA RESULT:      -5.8     20.122     21.278
REMARK  Name = CP466722.pdbqt.pdb
REMARK  3 active torsions:
REMARK  status: ('A' for Active; 'I' for Inactive)
REMARK    1  A    between atoms: C_5  and  C_23
REMARK    2  A    between atoms: C_14  and  O_16
REMARK    3  A    between atoms: C_15  and  O_18
REMARK                            x       y       z     vdW  Elec       q    Type
REMARK                         _______ _______ _______ _____ _____    ______ ____
ROOT
ATOM      1  N   UNL     1       5.523 -13.449  14.501  0.00  0.00    +0.000 N 
ATOM      2  N   UNL     1       4.496 -12.976  13.757  0.00  0.00    +0.000 NA
ATOM      3  N   UNL     1       6.083 -11.364  14.020  0.00  0.00    +0.000 NA
ATOM      4  C   UNL     1       6.487 -12.447  14.634  0.00  0.00    +0.000 A 
ATOM      5  C   UNL     1       4.865 -11.715  13.486  0.00  0.00    +0.000 A 
ATOM      6  C   UNL     1       5.537 -14.767  15.068  0.00  0.00    +0.000 A 
ATOM      7  N   UNL     1       6.567 -15.065  15.904  0.00  0.00    +0.000 NA
ATOM      8  C   UNL     1       6.566 -16.286  16.449  0.00  0.00    +0.000 A 
ATOM      9  N   UNL     1       5.637 -17.225  16.246  0.00  0.00    +0.000 NA
ATOM     10  C   UNL     1       4.629 -16.928  15.424  0.00  0.00    +0.000 A 
ATOM     11  C   UNL     1       4.513 -15.691  14.776  0.00  0.00    +0.000 A 
ATOM     12  C   UNL     1       3.653 -17.892  15.214  0.00  0.00    +0.000 A 
ATOM     13  C   UNL     1       3.420 -15.493  13.899  0.00  0.00    +0.000 A 
ATOM     14  C   UNL     1       2.470 -16.480  13.666  0.00  0.00    +0.000 A 
ATOM     15  C   UNL     1       2.559 -17.672  14.375  0.00  0.00    +0.000 A 
ATOM     16  N   UNL     1       7.656 -12.584  15.289  0.00  0.00    +0.000 N 
ATOM     17  H   UNL     1       8.170 -11.744  15.533  0.00  0.00    +0.000 HD
ATOM     18  H   UNL     1       7.788 -13.375  15.919  0.00  0.00    +0.000 HD
ENDROOT
BRANCH   5  19
ATOM     19  C   UNL     1       4.059 -10.775  12.701  0.00  0.00    +0.000 A 
ATOM     20  N   UNL     1       3.110 -11.286  11.870  0.00  0.00    +0.000 NA
ATOM     21  C   UNL     1       2.381 -10.400  11.156  0.00  0.00    +0.000 A 
ATOM     22  C   UNL     1       2.543  -9.027  11.225  0.00  0.00    +0.000 A 
ATOM     23  C   UNL     1       3.518  -8.535  12.083  0.00  0.00    +0.000 A 
ATOM     24  C   UNL     1       4.290  -9.411  12.834  0.00  0.00    +0.000 A 
ENDBRANCH   5  19
BRANCH  14  25
ATOM     25  O   UNL     1       1.432 -16.197  12.820  0.00  0.00    +0.000 OA
ATOM     26  C   UNL     1       1.797 -16.464  11.489  0.00  0.00    +0.000 C 
ENDBRANCH  14  25
BRANCH  15  27
ATOM     27  O   UNL     1       1.637 -18.669  14.198  0.00  0.00    +0.000 OA
ATOM     28  C   UNL     1       2.199 -19.722  13.454  0.00  0.00    +0.000 C 
ENDBRANCH  15  27
TORSDOF 3
ENDMDL
MODEL 8
REMARK VINA RESULT:      -5.6      3.934      7.903
REMARK  Name = CP466722.pdbqt.pdb
REMARK  3 active torsions:
REMARK  status: ('A' for Active; 'I' for Inactive)
REMARK    1  A    between atoms: C_5  and  C_23
REMARK    2  A    between atoms: C_14  and  O_16
REMARK    3  A    between atoms: C_15  and  O_18
REMARK                            x       y       z     vdW  Elec       q    Type
REMARK                         _______ _______ _______ _____ _____    ______ ____
ROOT
ATOM      1  N   UNL     1     -11.949  -4.132  23.198  0.00  0.00    +0.000 N 
ATOM      2  N   UNL     1     -12.446  -3.138  23.970  0.00  0.00    +0.000 NA
ATOM      3  N   UNL     1     -13.326  -5.139  24.605  0.00  0.00    +0.000 NA
ATOM      4  C   UNL     1     -12.494  -5.348  23.618  0.00  0.00    +0.000 A 
ATOM      5  C   UNL     1     -13.275  -3.780  24.807  0.00  0.00    +0.000 A 
ATOM      6  C   UNL     1     -11.043  -3.899  22.110  0.00  0.00    +0.000 A 
ATOM      7  N   UNL     1     -10.729  -4.970  21.333  0.00  0.00    +0.000 NA
ATOM      8  C   UNL     1      -9.903  -4.746  20.306  0.00  0.00    +0.000 A 
ATOM      9  N   UNL     1      -9.372  -3.564  19.980  0.00  0.00    +0.000 NA
ATOM     10  C   UNL     1      -9.683  -2.517  20.746  0.00  0.00    +0.000 A 
ATOM     11  C   UNL     1     -10.527  -2.612  21.861  0.00  0.00    +0.000 A 
ATOM     12  C   UNL     1      -9.146  -1.282  20.412  0.00  0.00    +0.000 A 
ATOM     13  C   UNL     1     -10.764  -1.443  22.624  0.00  0.00    +0.000 A 
ATOM     14  C   UNL     1     -10.190  -0.219  22.301  0.00  0.00    +0.000 A 
ATOM     15  C   UNL     1      -9.416  -0.128  21.150  0.00  0.00    +0.000 A 
ATOM     16  N   UNL     1     -12.195  -6.550  23.086  0.00  0.00    +0.000 N 
ATOM     17  H   UNL     1     -12.810  -7.330  23.291  0.00  0.00    +0.000 HD
ATOM     18  H   UNL     1     -11.717  -6.596  22.187  0.00  0.00    +0.000 HD
ENDROOT
BRANCH   5  19
ATOM     19  C   UNL     1     -14.070  -3.117  25.845  0.00  0.00    +0.000 A 
ATOM     20  N   UNL     1     -14.753  -3.900  26.725  0.00  0.00    +0.000 NA
ATOM     21  C   UNL     1     -15.479  -3.265  27.671  0.00  0.00    +0.000 A 
ATOM     22  C   UNL     1     -15.563  -1.890  27.794  0.00  0.00    +0.000 A 
ATOM     23  C   UNL     1     -14.853  -1.116  26.884  0.00  0.00    +0.000 A 
ATOM     24  C   UNL     1     -14.095  -1.728  25.894  0.00  0.00    +0.000 A 
ENDBRANCH   5  19
BRANCH  14  25
ATOM     25  O   UNL     1     -10.490   0.865  23.080  0.00  0.00    +0.000 OA
ATOM     26  C   UNL     1     -11.728   0.684  23.719  0.00  0.00    +0.000 C 
ENDBRANCH  14  25
BRANCH  15  27
ATOM     27  O   UNL     1      -8.844   1.058  20.777  0.00  0.00    +0.000 OA
ATOM     28  C   UNL     1      -9.534   1.605  19.680  0.00  0.00    +0.000 C 
ENDBRANCH  15  27
TORSDOF 3
ENDMDL
MODEL 9
REMARK VINA RESULT:      -5.6     16.545     18.588
REMARK  Name = CP466722.pdbqt.pdb
REMARK  3 active torsions:
REMARK  status: ('A' for Active; 'I' for Inactive)
REMARK    1  A    between atoms: C_5  and  C_23
REMARK    2  A    between atoms: C_14  and  O_16
REMARK    3  A    between atoms: C_15  and  O_18
REMARK                            x       y       z     vdW  Elec       q    Type
REMARK                         _______ _______ _______ _____ _____    ______ ____
ROOT
ATOM      1  N   UNL     1     -22.800  -6.800  12.148  0.00  0.00    +0.000 N 
ATOM      2  N   UNL     1     -22.602  -6.914  10.814  0.00  0.00    +0.000 NA
ATOM      3  N   UNL     1     -21.195  -5.351  11.687  0.00  0.00    +0.000 NA
ATOM      4  C   UNL     1     -21.916  -5.847  12.659  0.00  0.00    +0.000 A 
ATOM      5  C   UNL     1     -21.629  -6.023  10.569  0.00  0.00    +0.000 A 
ATOM      6  C   UNL     1     -23.805  -7.542  12.855  0.00  0.00    +0.000 A 
ATOM      7  N   UNL     1     -23.986  -7.232  14.167  0.00  0.00    +0.000 NA
ATOM      8  C   UNL     1     -24.939  -7.907  14.818  0.00  0.00    +0.000 A 
ATOM      9  N   UNL     1     -25.725  -8.847  14.286  0.00  0.00    +0.000 NA
ATOM     10  C   UNL     1     -25.543  -9.147  12.999  0.00  0.00    +0.000 A 
ATOM     11  C   UNL     1     -24.572  -8.526  12.201  0.00  0.00    +0.000 A 
ATOM     12  C   UNL     1     -26.361 -10.116  12.433  0.00  0.00    +0.000 A 
ATOM     13  C   UNL     1     -24.442  -8.945  10.856  0.00  0.00    +0.000 A 
ATOM     14  C   UNL     1     -25.241  -9.942  10.310  0.00  0.00    +0.000 A 
ATOM     15  C   UNL     1     -26.248 -10.494  11.093  0.00  0.00    +0.000 A 
ATOM     16  N   UNL     1     -21.821  -5.504  13.959  0.00  0.00    +0.000 N 
ATOM     17  H   UNL     1     -21.330  -4.647  14.193  0.00  0.00    +0.000 HD
ATOM     18  H   UNL     1     -22.563  -5.772  14.604  0.00  0.00    +0.000 HD
ENDROOT
BRANCH   5  19
ATOM     19  C   UNL     1     -21.066  -5.767   9.239  0.00  0.00    +0.000 A 
ATOM     20  N   UNL     1     -19.917  -5.042   9.161  0.00  0.00    +0.000 NA
ATOM     21  C   UNL     1     -19.419  -4.819   7.925  0.00  0.00    +0.000 A 
ATOM     22  C   UNL     1     -20.001  -5.279   6.758  0.00  0.00    +0.000 A 
ATOM     23  C   UNL     1     -21.172  -6.018   6.869  0.00  0.00    +0.000 A 
ATOM     24  C   UNL     1     -21.719  -6.270   8.121  0.00  0.00    +0.000 A 
ENDBRANCH   5  19
BRANCH  14  25
ATOM     25  O   UNL     1     -25.064 -10.270   8.993  0.00  0.00    +0.000 OA
ATOM     26  C   UNL     1     -24.058  -9.473   8.419  0.00  0.00    +0.000 C 
ENDBRANCH  14  25
BRANCH  15  27
ATOM     27  O   UNL     1     -27.075 -11.465  10.598  0.00  0.00    +0.000 OA
ATOM     28  C   UNL     1     -27.334 -12.432  11.585  0.00  0.00    +0.000 C 
ENDBRANCH  15  27
TORSDOF 3
ENDMDL
