MODEL 1
REMARK VINA RESULT:      -5.9      0.000      0.000
REMARK  Name = Curcumin.pdbqt.pdb
REMARK  8 active torsions:
REMARK  status: ('A' for Active; 'I' for Inactive)
REMARK    1  A    between atoms: C_2  and  C_4
REMARK    2  A    between atoms: C_5  and  C_6
REMARK    3  A    between atoms: C_8  and  O_12
REMARK    4  A    between atoms: C_9  and  O_14
REMARK    5  A    between atoms: C_16  and  C_18
REMARK    6  A    between atoms: C_19  and  C_20
REMARK    7  A    between atoms: C_22  and  O_26
REMARK    8  A    between atoms: C_23  and  O_28
REMARK                            x       y       z     vdW  Elec       q    Type
REMARK                         _______ _______ _______ _____ _____    ______ ____
ROOT
ATOM      1  C   UNL     1       2.534 -13.934  17.403  0.00  0.00    +0.000 C 
ATOM      2  C   UNL     1       2.208 -13.222  18.594  0.00  0.00    +0.000 C 
ATOM      3  O   UNL     1       2.846 -12.225  18.896  0.00  0.00    +0.000 OA
ATOM      4  C   UNL     1       2.863 -14.647  16.213  0.00  0.00    +0.000 C 
ATOM      5  O   UNL     1       2.459 -15.791  16.060  0.00  0.00    +0.000 OA
ENDROOT
BRANCH   2   6
ATOM      6  C   UNL     1       1.129 -13.681  19.431  0.00  0.00    +0.000 C 
ATOM      7  C   UNL     1       0.228 -14.063  20.127  0.00  0.00    +0.000 C 
BRANCH   7   8
ATOM      8  C   UNL     1      -0.842 -14.519  20.954  0.00  0.00    +0.000 A 
ATOM      9  C   UNL     1      -2.161 -14.266  20.585  0.00  0.00    +0.000 A 
ATOM     10  C   UNL     1      -3.222 -14.706  21.383  0.00  0.00    +0.000 A 
ATOM     11  C   UNL     1      -2.933 -15.404  22.560  0.00  0.00    +0.000 A 
ATOM     12  C   UNL     1      -1.613 -15.658  22.931  0.00  0.00    +0.000 A 
ATOM     13  C   UNL     1      -0.566 -15.214  22.127  0.00  0.00    +0.000 A 
BRANCH  10  14
ATOM     14  O   UNL     1      -4.545 -14.495  21.084  0.00  0.00    +0.000 OA
ATOM     15  C   UNL     1      -5.175 -15.497  20.338  0.00  0.00    +0.000 C 
ENDBRANCH  10  14
BRANCH  11  16
ATOM     16  O   UNL     1      -3.901 -15.872  23.404  0.00  0.00    +0.000 OA
ATOM     17  H   UNL     1      -4.125 -16.794  23.192  0.00  0.00    +0.000 HD
ENDBRANCH  11  16
ENDBRANCH   7   8
ENDBRANCH   2   6
BRANCH   4  18
ATOM     18  C   UNL     1       3.667 -14.014  15.200  0.00  0.00    +0.000 C 
ATOM     19  C   UNL     1       4.338 -13.489  14.351  0.00  0.00    +0.000 C 
BRANCH  19  20
ATOM     20  C   UNL     1       5.131 -12.870  13.342  0.00  0.00    +0.000 A 
ATOM     21  C   UNL     1       4.790 -11.603  12.871  0.00  0.00    +0.000 A 
ATOM     22  C   UNL     1       5.558 -10.981  11.882  0.00  0.00    +0.000 A 
ATOM     23  C   UNL     1       6.674 -11.655  11.377  0.00  0.00    +0.000 A 
ATOM     24  C   UNL     1       7.019 -12.922  11.844  0.00  0.00    +0.000 A 
ATOM     25  C   UNL     1       6.246 -13.530  12.829  0.00  0.00    +0.000 A 
BRANCH  22  26
ATOM     26  O   UNL     1       5.293  -9.737  11.363  0.00  0.00    +0.000 OA
ATOM     27  C   UNL     1       3.941  -9.361  11.354  0.00  0.00    +0.000 C 
ENDBRANCH  22  26
BRANCH  23  28
ATOM     28  O   UNL     1       7.438 -11.064  10.409  0.00  0.00    +0.000 OA
ATOM     29  H   UNL     1       8.155 -11.675  10.161  0.00  0.00    +0.000 HD
ENDBRANCH  23  28
ENDBRANCH  19  20
ENDBRANCH   4  18
TORSDOF 8
ENDMDL
MODEL 2
REMARK VINA RESULT:      -5.9      0.072     11.551
REMARK  Name = Curcumin.pdbqt.pdb
REMARK  8 active torsions:
REMARK  status: ('A' for Active; 'I' for Inactive)
REMARK    1  A    between atoms: C_2  and  C_4
REMARK    2  A    between atoms: C_5  and  C_6
REMARK    3  A    between atoms: C_8  and  O_12
REMARK    4  A    between atoms: C_9  and  O_14
REMARK    5  A    between atoms: C_16  and  C_18
REMARK    6  A    between atoms: C_19  and  C_20
REMARK    7  A    between atoms: C_22  and  O_26
REMARK    8  A    between atoms: C_23  and  O_28
REMARK                            x       y       z     vdW  Elec       q    Type
REMARK                         _______ _______ _______ _____ _____    ______ ____
ROOT
ATOM      1  C   UNL     1       2.558 -13.908  17.384  0.00  0.00    +0.000 C 
ATOM      2  C   UNL     1       2.869 -14.611  16.184  0.00  0.00    +0.000 C 
ATOM      3  O   UNL     1       2.452 -15.749  16.024  0.00  0.00    +0.000 OA
ATOM      4  C   UNL     1       2.251 -13.207  18.586  0.00  0.00    +0.000 C 
ATOM      5  O   UNL     1       2.900 -12.219  18.896  0.00  0.00    +0.000 OA
ENDROOT
BRANCH   2   6
ATOM      6  C   UNL     1       3.668 -13.976  15.167  0.00  0.00    +0.000 C 
ATOM      7  C   UNL     1       4.334 -13.445  14.320  0.00  0.00    +0.000 C 
BRANCH   7   8
ATOM      8  C   UNL     1       5.127 -12.815  13.315  0.00  0.00    +0.000 A 
ATOM      9  C   UNL     1       4.759 -11.565  12.823  0.00  0.00    +0.000 A 
ATOM     10  C   UNL     1       5.525 -10.932  11.838  0.00  0.00    +0.000 A 
ATOM     11  C   UNL     1       6.666 -11.580  11.356  0.00  0.00    +0.000 A 
ATOM     12  C   UNL     1       7.036 -12.832  11.846  0.00  0.00    +0.000 A 
ATOM     13  C   UNL     1       6.265 -13.450  12.827  0.00  0.00    +0.000 A 
BRANCH  10  14
ATOM     14  O   UNL     1       5.226  -9.703  11.307  0.00  0.00    +0.000 OA
ATOM     15  C   UNL     1       3.918  -9.246  11.508  0.00  0.00    +0.000 C 
ENDBRANCH  10  14
BRANCH  11  16
ATOM     16  O   UNL     1       7.476 -11.042  10.394  0.00  0.00    +0.000 OA
ATOM     17  H   UNL     1       7.941 -11.742   9.906  0.00  0.00    +0.000 HD
ENDBRANCH  11  16
ENDBRANCH   7   8
ENDBRANCH   2   6
BRANCH   4  18
ATOM     18  C   UNL     1       1.176 -13.668  19.428  0.00  0.00    +0.000 C 
ATOM     19  C   UNL     1       0.277 -14.055  20.126  0.00  0.00    +0.000 C 
BRANCH  19  20
ATOM     20  C   UNL     1      -0.790 -14.513  20.951  0.00  0.00    +0.000 A 
ATOM     21  C   UNL     1      -2.110 -14.242  20.593  0.00  0.00    +0.000 A 
ATOM     22  C   UNL     1      -3.169 -14.685  21.391  0.00  0.00    +0.000 A 
ATOM     23  C   UNL     1      -2.877 -15.405  22.553  0.00  0.00    +0.000 A 
ATOM     24  C   UNL     1      -1.559 -15.679  22.916  0.00  0.00    +0.000 A 
ATOM     25  C   UNL     1      -0.515 -15.232  22.113  0.00  0.00    +0.000 A 
BRANCH  22  26
ATOM     26  O   UNL     1      -4.495 -14.461  21.113  0.00  0.00    +0.000 OA
ATOM     27  C   UNL     1      -5.119 -15.436  20.319  0.00  0.00    +0.000 C 
ENDBRANCH  22  26
BRANCH  23  28
ATOM     28  O   UNL     1      -3.899 -15.846  23.348  0.00  0.00    +0.000 OA
ATOM     29  H   UNL     1      -3.863 -15.370  24.197  0.00  0.00    +0.000 HD
ENDBRANCH  23  28
ENDBRANCH  19  20
ENDBRANCH   4  18
TORSDOF 8
ENDMDL
MODEL 3
REMARK VINA RESULT:      -5.7     17.762     20.634
REMARK  Name = Curcumin.pdbqt.pdb
REMARK  8 active torsions:
REMARK  status: ('A' for Active; 'I' for Inactive)
REMARK    1  A    between atoms: C_2  and  C_4
REMARK    2  A    between atoms: C_5  and  C_6
REMARK    3  A    between atoms: C_8  and  O_12
REMARK    4  A    between atoms: C_9  and  O_14
REMARK    5  A    between atoms: C_16  and  C_18
REMARK    6  A    between atoms: C_19  and  C_20
REMARK    7  A    between atoms: C_22  and  O_26
REMARK    8  A    between atoms: C_23  and  O_28
REMARK                            x       y       z     vdW  Elec       q    Type
REMARK                         _______ _______ _______ _____ _____    ______ ____
ROOT
ATOM      1  C   UNL     1      -4.019  -5.687   1.664  0.00  0.00    +0.000 C 
ATOM      2  C   UNL     1      -3.065  -4.706   1.268  0.00  0.00    +0.000 C 
ATOM      3  O   UNL     1      -2.694  -4.658   0.104  0.00  0.00    +0.000 OA
ATOM      4  C   UNL     1      -4.970  -6.672   2.060  0.00  0.00    +0.000 C 
ATOM      5  O   UNL     1      -5.114  -6.936   3.245  0.00  0.00    +0.000 OA
ENDROOT
BRANCH   2   6
ATOM      6  C   UNL     1      -2.547  -3.776   2.239  0.00  0.00    +0.000 C 
ATOM      7  C   UNL     1      -2.118  -3.000   3.049  0.00  0.00    +0.000 C 
BRANCH   7   8
ATOM      8  C   UNL     1      -1.606  -2.081   4.013  0.00  0.00    +0.000 A 
ATOM      9  C   UNL     1      -0.269  -1.694   3.962  0.00  0.00    +0.000 A 
ATOM     10  C   UNL     1       0.250  -0.793   4.897  0.00  0.00    +0.000 A 
ATOM     11  C   UNL     1      -0.600  -0.289   5.887  0.00  0.00    +0.000 A 
ATOM     12  C   UNL     1      -1.939  -0.675   5.940  0.00  0.00    +0.000 A 
ATOM     13  C   UNL     1      -2.442  -1.572   5.002  0.00  0.00    +0.000 A 
BRANCH  10  14
ATOM     14  O   UNL     1       1.554  -0.366   4.909  0.00  0.00    +0.000 OA
ATOM     15  C   UNL     1       2.500  -1.260   4.394  0.00  0.00    +0.000 C 
ENDBRANCH  10  14
BRANCH  11  16
ATOM     16  O   UNL     1      -0.185   0.595   6.844  0.00  0.00    +0.000 OA
ATOM     17  H   UNL     1       0.307   0.135   7.545  0.00  0.00    +0.000 HD
ENDBRANCH  11  16
ENDBRANCH   7   8
ENDBRANCH   2   6
BRANCH   4  18
ATOM     18  C   UNL     1      -5.757  -7.349   1.061  0.00  0.00    +0.000 C 
ATOM     19  C   UNL     1      -6.415  -7.911   0.226  0.00  0.00    +0.000 C 
BRANCH  19  20
ATOM     20  C   UNL     1      -7.197  -8.573  -0.765  0.00  0.00    +0.000 A 
ATOM     21  C   UNL     1      -8.586  -8.460  -0.742  0.00  0.00    +0.000 A 
ATOM     22  C   UNL     1      -9.368  -9.103  -1.706  0.00  0.00    +0.000 A 
ATOM     23  C   UNL     1      -8.729  -9.860  -2.692  0.00  0.00    +0.000 A 
ATOM     24  C   UNL     1      -7.340  -9.976  -2.719  0.00  0.00    +0.000 A 
ATOM     25  C   UNL     1      -6.574  -9.331  -1.753  0.00  0.00    +0.000 A 
BRANCH  22  26
ATOM     26  O   UNL     1     -10.740  -9.044  -1.756  0.00  0.00    +0.000 OA
ATOM     27  C   UNL     1     -11.308  -7.823  -1.359  0.00  0.00    +0.000 C 
ENDBRANCH  22  26
BRANCH  23  28
ATOM     28  O   UNL     1      -9.476 -10.497  -3.644  0.00  0.00    +0.000 OA
ATOM     29  H   UNL     1      -8.951 -11.230  -4.014  0.00  0.00    +0.000 HD
ENDBRANCH  23  28
ENDBRANCH  19  20
ENDBRANCH   4  18
TORSDOF 8
ENDMDL
MODEL 4
REMARK VINA RESULT:      -5.6      5.256     12.915
REMARK  Name = Curcumin.pdbqt.pdb
REMARK  8 active torsions:
REMARK  status: ('A' for Active; 'I' for Inactive)
REMARK    1  A    between atoms: C_2  and  C_4
REMARK    2  A    between atoms: C_5  and  C_6
REMARK    3  A    between atoms: C_8  and  O_12
REMARK    4  A    between atoms: C_9  and  O_14
REMARK    5  A    between atoms: C_16  and  C_18
REMARK    6  A    between atoms: C_19  and  C_20
REMARK    7  A    between atoms: C_22  and  O_26
REMARK    8  A    between atoms: C_23  and  O_28
REMARK                            x       y       z     vdW  Elec       q    Type
REMARK                         _______ _______ _______ _____ _____    ______ ____
ROOT
ATOM      1  C   UNL     1      -4.244 -14.952  20.648  0.00  0.00    +0.000 C 
ATOM      2  C   UNL     1      -3.001 -15.273  21.265  0.00  0.00    +0.000 C 
ATOM      3  O   UNL     1      -2.933 -16.224  22.030  0.00  0.00    +0.000 OA
ATOM      4  C   UNL     1      -5.490 -14.629  20.034  0.00  0.00    +0.000 C 
ATOM      5  O   UNL     1      -5.650 -13.527  19.529  0.00  0.00    +0.000 OA
ENDROOT
BRANCH   2   6
ATOM      6  C   UNL     1      -1.833 -14.478  20.982  0.00  0.00    +0.000 C 
ATOM      7  C   UNL     1      -0.860 -13.816  20.744  0.00  0.00    +0.000 C 
BRANCH   7   8
ATOM      8  C   UNL     1       0.296 -13.028  20.461  0.00  0.00    +0.000 A 
ATOM      9  C   UNL     1       0.526 -11.853  21.173  0.00  0.00    +0.000 A 
ATOM     10  C   UNL     1       1.654 -11.068  20.910  0.00  0.00    +0.000 A 
ATOM     11  C   UNL     1       2.545 -11.486  19.917  0.00  0.00    +0.000 A 
ATOM     12  C   UNL     1       2.317 -12.662  19.203  0.00  0.00    +0.000 A 
ATOM     13  C   UNL     1       1.190 -13.434  19.475  0.00  0.00    +0.000 A 
BRANCH  10  14
ATOM     14  O   UNL     1       1.946  -9.902  21.569  0.00  0.00    +0.000 OA
ATOM     15  C   UNL     1       2.661 -10.033  22.766  0.00  0.00    +0.000 C 
ENDBRANCH  10  14
BRANCH  11  16
ATOM     16  O   UNL     1       3.673 -10.786  19.588  0.00  0.00    +0.000 OA
ATOM     17  H   UNL     1       3.631 -10.479  18.667  0.00  0.00    +0.000 HD
ENDBRANCH  11  16
ENDBRANCH   7   8
ENDBRANCH   2   6
BRANCH   4  18
ATOM     18  C   UNL     1      -6.550 -15.604  20.013  0.00  0.00    +0.000 C 
ATOM     19  C   UNL     1      -7.436 -16.416  19.991  0.00  0.00    +0.000 C 
BRANCH  19  20
ATOM     20  C   UNL     1      -8.488 -17.377  19.961  0.00  0.00    +0.000 A 
ATOM     21  C   UNL     1      -9.559 -17.261  20.846  0.00  0.00    +0.000 A 
ATOM     22  C   UNL     1     -10.599 -18.196  20.830  0.00  0.00    +0.000 A 
ATOM     23  C   UNL     1     -10.542 -19.246  19.910  0.00  0.00    +0.000 A 
ATOM     24  C   UNL     1      -9.473 -19.367  19.023  0.00  0.00    +0.000 A 
ATOM     25  C   UNL     1      -8.445 -18.430  19.050  0.00  0.00    +0.000 A 
BRANCH  22  26
ATOM     26  O   UNL     1     -11.689 -18.156  21.665  0.00  0.00    +0.000 OA
ATOM     27  C   UNL     1     -12.060 -16.879  22.114  0.00  0.00    +0.000 C 
ENDBRANCH  22  26
BRANCH  23  28
ATOM     28  O   UNL     1     -11.550 -20.171  19.879  0.00  0.00    +0.000 OA
ATOM     29  H   UNL     1     -12.141 -19.963  19.133  0.00  0.00    +0.000 HD
ENDBRANCH  23  28
ENDBRANCH  19  20
ENDBRANCH   4  18
TORSDOF 8
ENDMDL
MODEL 5
REMARK VINA RESULT:      -5.5      5.209     13.027
REMARK  Name = Curcumin.pdbqt.pdb
REMARK  8 active torsions:
REMARK  status: ('A' for Active; 'I' for Inactive)
REMARK    1  A    between atoms: C_2  and  C_4
REMARK    2  A    between atoms: C_5  and  C_6
REMARK    3  A    between atoms: C_8  and  O_12
REMARK    4  A    between atoms: C_9  and  O_14
REMARK    5  A    between atoms: C_16  and  C_18
REMARK    6  A    between atoms: C_19  and  C_20
REMARK    7  A    between atoms: C_22  and  O_26
REMARK    8  A    between atoms: C_23  and  O_28
REMARK                            x       y       z     vdW  Elec       q    Type
REMARK                         _______ _______ _______ _____ _____    ______ ____
ROOT
ATOM      1  C   UNL     1       4.345  -8.086  12.502  0.00  0.00    +0.000 C 
ATOM      2  C   UNL     1       5.106  -7.110  13.208  0.00  0.00    +0.000 C 
ATOM      3  O   UNL     1       5.440  -7.322  14.364  0.00  0.00    +0.000 OA
ATOM      4  C   UNL     1       3.582  -9.062  11.798  0.00  0.00    +0.000 C 
ATOM      5  O   UNL     1       2.984  -8.746  10.779  0.00  0.00    +0.000 OA
ENDROOT
BRANCH   2   6
ATOM      6  C   UNL     1       5.478  -5.881  12.554  0.00  0.00    +0.000 C 
ATOM      7  C   UNL     1       5.790  -4.856  12.010  0.00  0.00    +0.000 C 
BRANCH   7   8
ATOM      8  C   UNL     1       6.161  -3.640  11.362  0.00  0.00    +0.000 A 
ATOM      9  C   UNL     1       7.194  -2.863  11.882  0.00  0.00    +0.000 A 
ATOM     10  C   UNL     1       7.572  -1.669  11.260  0.00  0.00    +0.000 A 
ATOM     11  C   UNL     1       6.891  -1.269  10.106  0.00  0.00    +0.000 A 
ATOM     12  C   UNL     1       5.856  -2.045   9.584  0.00  0.00    +0.000 A 
ATOM     13  C   UNL     1       5.491  -3.232  10.213  0.00  0.00    +0.000 A 
BRANCH  10  14
ATOM     14  O   UNL     1       8.579  -0.854  11.712  0.00  0.00    +0.000 OA
ATOM     15  C   UNL     1       9.884  -1.321  11.518  0.00  0.00    +0.000 C 
ENDBRANCH  10  14
BRANCH  11  16
ATOM     16  O   UNL     1       7.187  -0.119   9.429  0.00  0.00    +0.000 OA
ATOM     17  H   UNL     1       8.032  -0.207   8.956  0.00  0.00    +0.000 HD
ENDBRANCH  11  16
ENDBRANCH   7   8
ENDBRANCH   2   6
BRANCH   4  18
ATOM     18  C   UNL     1       3.519 -10.414  12.292  0.00  0.00    +0.000 C 
ATOM     19  C   UNL     1       3.472 -11.543  12.702  0.00  0.00    +0.000 C 
BRANCH  19  20
ATOM     20  C   UNL     1       3.418 -12.882  13.187  0.00  0.00    +0.000 A 
ATOM     21  C   UNL     1       3.113 -13.123  14.526  0.00  0.00    +0.000 A 
ATOM     22  C   UNL     1       3.056 -14.430  15.018  0.00  0.00    +0.000 A 
ATOM     23  C   UNL     1       3.311 -15.489  14.141  0.00  0.00    +0.000 A 
ATOM     24  C   UNL     1       3.617 -15.253  12.802  0.00  0.00    +0.000 A 
ATOM     25  C   UNL     1       3.670 -13.946  12.325  0.00  0.00    +0.000 A 
BRANCH  22  26
ATOM     26  O   UNL     1       2.764 -14.756  16.320  0.00  0.00    +0.000 OA
ATOM     27  C   UNL     1       2.557 -13.669  17.184  0.00  0.00    +0.000 C 
ENDBRANCH  22  26
BRANCH  23  28
ATOM     28  O   UNL     1       3.261 -16.775  14.603  0.00  0.00    +0.000 OA
ATOM     29  H   UNL     1       2.381 -16.933  14.991  0.00  0.00    +0.000 HD
ENDBRANCH  23  28
ENDBRANCH  19  20
ENDBRANCH   4  18
TORSDOF 8
ENDMDL
MODEL 6
REMARK VINA RESULT:      -5.5     25.046     28.804
REMARK  Name = Curcumin.pdbqt.pdb
REMARK  8 active torsions:
REMARK  status: ('A' for Active; 'I' for Inactive)
REMARK    1  A    between atoms: C_2  and  C_4
REMARK    2  A    between atoms: C_5  and  C_6
REMARK    3  A    between atoms: C_8  and  O_12
REMARK    4  A    between atoms: C_9  and  O_14
REMARK    5  A    between atoms: C_16  and  C_18
REMARK    6  A    between atoms: C_19  and  C_20
REMARK    7  A    between atoms: C_22  and  O_26
REMARK    8  A    between atoms: C_23  and  O_28
REMARK                            x       y       z     vdW  Elec       q    Type
REMARK                         _______ _______ _______ _____ _____    ______ ____
ROOT
ATOM      1  C   UNL     1     -23.462  -5.087  13.766  0.00  0.00    +0.000 C 
ATOM      2  C   UNL     1     -24.199  -3.994  13.224  0.00  0.00    +0.000 C 
ATOM      3  O   UNL     1     -25.413  -3.957  13.360  0.00  0.00    +0.000 OA
ATOM      4  C   UNL     1     -22.726  -6.182  14.306  0.00  0.00    +0.000 C 
ATOM      5  O   UNL     1     -21.585  -6.395  13.920  0.00  0.00    +0.000 OA
ENDROOT
BRANCH   2   6
ATOM      6  C   UNL     1     -23.510  -2.941  12.524  0.00  0.00    +0.000 C 
ATOM      7  C   UNL     1     -22.936  -2.061  11.941  0.00  0.00    +0.000 C 
BRANCH   7   8
ATOM      8  C   UNL     1     -22.253  -1.017  11.249  0.00  0.00    +0.000 A 
ATOM      9  C   UNL     1     -21.523  -0.071  11.966  0.00  0.00    +0.000 A 
ATOM     10  C   UNL     1     -20.847   0.960  11.305  0.00  0.00    +0.000 A 
ATOM     11  C   UNL     1     -20.918   1.022   9.910  0.00  0.00    +0.000 A 
ATOM     12  C   UNL     1     -21.648   0.076   9.190  0.00  0.00    +0.000 A 
ATOM     13  C   UNL     1     -22.316  -0.944   9.861  0.00  0.00    +0.000 A 
BRANCH  10  14
ATOM     14  O   UNL     1     -20.109   1.925  11.943  0.00  0.00    +0.000 OA
ATOM     15  C   UNL     1     -20.837   2.934  12.583  0.00  0.00    +0.000 C 
ENDBRANCH  10  14
BRANCH  11  16
ATOM     16  O   UNL     1     -20.292   1.991   9.177  0.00  0.00    +0.000 OA
ATOM     17  H   UNL     1     -20.712   2.088   8.305  0.00  0.00    +0.000 HD
ENDBRANCH  11  16
ENDBRANCH   7   8
ENDBRANCH   2   6
BRANCH   4  18
ATOM     18  C   UNL     1     -23.331  -7.029  15.301  0.00  0.00    +0.000 C 
ATOM     19  C   UNL     1     -23.832  -7.739  16.131  0.00  0.00    +0.000 C 
BRANCH  19  20
ATOM     20  C   UNL     1     -24.425  -8.584  17.114  0.00  0.00    +0.000 A 
ATOM     21  C   UNL     1     -23.794  -9.773  17.479  0.00  0.00    +0.000 A 
ATOM     22  C   UNL     1     -24.362 -10.613  18.441  0.00  0.00    +0.000 A 
ATOM     23  C   UNL     1     -25.573 -10.237  19.029  0.00  0.00    +0.000 A 
ATOM     24  C   UNL     1     -26.208  -9.050  18.668  0.00  0.00    +0.000 A 
ATOM     25  C   UNL     1     -25.632  -8.223  17.708  0.00  0.00    +0.000 A 
BRANCH  22  26
ATOM     26  O   UNL     1     -23.808 -11.799  18.858  0.00  0.00    +0.000 OA
ATOM     27  C   UNL     1     -22.417 -11.783  19.049  0.00  0.00    +0.000 C 
ENDBRANCH  22  26
BRANCH  23  28
ATOM     28  O   UNL     1     -26.145 -11.045  19.973  0.00  0.00    +0.000 OA
ATOM     29  H   UNL     1     -25.438 -11.441  20.515  0.00  0.00    +0.000 HD
ENDBRANCH  23  28
ENDBRANCH  19  20
ENDBRANCH   4  18
TORSDOF 8
ENDMDL
MODEL 7
REMARK VINA RESULT:      -5.5     24.809     26.873
REMARK  Name = Curcumin.pdbqt.pdb
REMARK  8 active torsions:
REMARK  status: ('A' for Active; 'I' for Inactive)
REMARK    1  A    between atoms: C_2  and  C_4
REMARK    2  A    between atoms: C_5  and  C_6
REMARK    3  A    between atoms: C_8  and  O_12
REMARK    4  A    between atoms: C_9  and  O_14
REMARK    5  A    between atoms: C_16  and  C_18
REMARK    6  A    between atoms: C_19  and  C_20
REMARK    7  A    between atoms: C_22  and  O_26
REMARK    8  A    between atoms: C_23  and  O_28
REMARK                            x       y       z     vdW  Elec       q    Type
REMARK                         _______ _______ _______ _____ _____    ______ ____
ROOT
ATOM      1  C   UNL     1     -23.476  -5.103  13.747  0.00  0.00    +0.000 C 
ATOM      2  C   UNL     1     -22.729  -6.186  14.294  0.00  0.00    +0.000 C 
ATOM      3  O   UNL     1     -21.583  -6.383  13.917  0.00  0.00    +0.000 OA
ATOM      4  C   UNL     1     -24.224  -4.022  13.196  0.00  0.00    +0.000 C 
ATOM      5  O   UNL     1     -25.440  -4.000  13.321  0.00  0.00    +0.000 OA
ENDROOT
BRANCH   2   6
ATOM      6  C   UNL     1     -23.327  -7.039  15.290  0.00  0.00    +0.000 C 
ATOM      7  C   UNL     1     -23.824  -7.750  16.121  0.00  0.00    +0.000 C 
BRANCH   7   8
ATOM      8  C   UNL     1     -24.415  -8.593  17.108  0.00  0.00    +0.000 A 
ATOM      9  C   UNL     1     -23.796  -9.790  17.461  0.00  0.00    +0.000 A 
ATOM     10  C   UNL     1     -24.361 -10.629  18.427  0.00  0.00    +0.000 A 
ATOM     11  C   UNL     1     -25.562 -10.242  19.032  0.00  0.00    +0.000 A 
ATOM     12  C   UNL     1     -26.183  -9.045  18.680  0.00  0.00    +0.000 A 
ATOM     13  C   UNL     1     -25.609  -8.219  17.717  0.00  0.00    +0.000 A 
BRANCH  10  14
ATOM     14  O   UNL     1     -23.809 -11.820  18.826  0.00  0.00    +0.000 OA
ATOM     15  C   UNL     1     -22.443 -11.795  19.130  0.00  0.00    +0.000 C 
ENDBRANCH  10  14
BRANCH  11  16
ATOM     16  O   UNL     1     -26.189 -10.995  19.985  0.00  0.00    +0.000 OA
ATOM     17  H   UNL     1     -26.367 -11.891  19.653  0.00  0.00    +0.000 HD
ENDBRANCH  11  16
ENDBRANCH   7   8
ENDBRANCH   2   6
BRANCH   4  18
ATOM     18  C   UNL     1     -23.542  -2.964  12.496  0.00  0.00    +0.000 C 
ATOM     19  C   UNL     1     -22.971  -2.084  11.909  0.00  0.00    +0.000 C 
BRANCH  19  20
ATOM     20  C   UNL     1     -22.293  -1.043  11.211  0.00  0.00    +0.000 A 
ATOM     21  C   UNL     1     -21.564  -0.091  11.922  0.00  0.00    +0.000 A 
ATOM     22  C   UNL     1     -20.893   0.936  11.253  0.00  0.00    +0.000 A 
ATOM     23  C   UNL     1     -20.967   0.989   9.858  0.00  0.00    +0.000 A 
ATOM     24  C   UNL     1     -21.694   0.039   9.142  0.00  0.00    +0.000 A 
ATOM     25  C   UNL     1     -22.358  -0.978   9.821  0.00  0.00    +0.000 A 
BRANCH  22  26
ATOM     26  O   UNL     1     -20.154   1.913  11.875  0.00  0.00    +0.000 OA
ATOM     27  C   UNL     1     -18.868   1.530  12.286  0.00  0.00    +0.000 C 
ENDBRANCH  22  26
BRANCH  23  28
ATOM     28  O   UNL     1     -20.317   1.987   9.184  0.00  0.00    +0.000 OA
ATOM     29  H   UNL     1     -20.236   2.759   9.773  0.00  0.00    +0.000 HD
ENDBRANCH  23  28
ENDBRANCH  19  20
ENDBRANCH   4  18
TORSDOF 8
ENDMDL
MODEL 8
REMARK VINA RESULT:      -5.4      5.212     11.091
REMARK  Name = Curcumin.pdbqt.pdb
REMARK  8 active torsions:
REMARK  status: ('A' for Active; 'I' for Inactive)
REMARK    1  A    between atoms: C_2  and  C_4
REMARK    2  A    between atoms: C_5  and  C_6
REMARK    3  A    between atoms: C_8  and  O_12
REMARK    4  A    between atoms: C_9  and  O_14
REMARK    5  A    between atoms: C_16  and  C_18
REMARK    6  A    between atoms: C_19  and  C_20
REMARK    7  A    between atoms: C_22  and  O_26
REMARK    8  A    between atoms: C_23  and  O_28
REMARK                            x       y       z     vdW  Elec       q    Type
REMARK                         _______ _______ _______ _____ _____    ______ ____
ROOT
ATOM      1  C   UNL     1       4.629 -10.519  12.662  0.00  0.00    +0.000 C 
ATOM      2  C   UNL     1       4.045  -9.333  12.131  0.00  0.00    +0.000 C 
ATOM      3  O   UNL     1       3.111  -9.417  11.347  0.00  0.00    +0.000 OA
ATOM      4  C   UNL     1       5.216 -11.706  13.189  0.00  0.00    +0.000 C 
ATOM      5  O   UNL     1       6.321 -11.657  13.711  0.00  0.00    +0.000 OA
ENDROOT
BRANCH   2   6
ATOM      6  C   UNL     1       4.556  -8.044  12.523  0.00  0.00    +0.000 C 
ATOM      7  C   UNL     1       4.984  -6.970  12.850  0.00  0.00    +0.000 C 
BRANCH   7   8
ATOM      8  C   UNL     1       5.492  -5.695  13.237  0.00  0.00    +0.000 A 
ATOM      9  C   UNL     1       5.286  -5.229  14.534  0.00  0.00    +0.000 A 
ATOM     10  C   UNL     1       5.777  -3.981  14.931  0.00  0.00    +0.000 A 
ATOM     11  C   UNL     1       6.480  -3.209  14.000  0.00  0.00    +0.000 A 
ATOM     12  C   UNL     1       6.687  -3.673  12.702  0.00  0.00    +0.000 A 
ATOM     13  C   UNL     1       6.193  -4.917  12.320  0.00  0.00    +0.000 A 
BRANCH  10  14
ATOM     14  O   UNL     1       5.614  -3.458  16.189  0.00  0.00    +0.000 OA
ATOM     15  C   UNL     1       4.365  -2.891  16.463  0.00  0.00    +0.000 C 
ENDBRANCH  10  14
BRANCH  11  16
ATOM     16  O   UNL     1       6.997  -1.979  14.295  0.00  0.00    +0.000 OA
ATOM     17  H   UNL     1       6.693  -1.678  15.168  0.00  0.00    +0.000 HD
ENDBRANCH  11  16
ENDBRANCH   7   8
ENDBRANCH   2   6
BRANCH   4  18
ATOM     18  C   UNL     1       4.503 -12.955  13.105  0.00  0.00    +0.000 C 
ATOM     19  C   UNL     1       3.905 -13.995  13.037  0.00  0.00    +0.000 C 
BRANCH  19  20
ATOM     20  C   UNL     1       3.194 -15.228  12.960  0.00  0.00    +0.000 A 
ATOM     21  C   UNL     1       2.937 -15.954  14.122  0.00  0.00    +0.000 A 
ATOM     22  C   UNL     1       2.241 -17.165  14.064  0.00  0.00    +0.000 A 
ATOM     23  C   UNL     1       1.808 -17.632  12.820  0.00  0.00    +0.000 A 
ATOM     24  C   UNL     1       2.063 -16.909  11.655  0.00  0.00    +0.000 A 
ATOM     25  C   UNL     1       2.757 -15.705  11.727  0.00  0.00    +0.000 A 
BRANCH  22  26
ATOM     26  O   UNL     1       1.946 -17.942  15.158  0.00  0.00    +0.000 OA
ATOM     27  C   UNL     1       1.684 -17.241  16.346  0.00  0.00    +0.000 C 
ENDBRANCH  22  26
BRANCH  23  28
ATOM     28  O   UNL     1       1.126 -18.815  12.742  0.00  0.00    +0.000 OA
ATOM     29  H   UNL     1       1.619 -19.422  12.161  0.00  0.00    +0.000 HD
ENDBRANCH  23  28
ENDBRANCH  19  20
ENDBRANCH   4  18
TORSDOF 8
ENDMDL
MODEL 9
REMARK VINA RESULT:      -5.2     25.277     27.580
REMARK  Name = Curcumin.pdbqt.pdb
REMARK  8 active torsions:
REMARK  status: ('A' for Active; 'I' for Inactive)
REMARK    1  A    between atoms: C_2  and  C_4
REMARK    2  A    between atoms: C_5  and  C_6
REMARK    3  A    between atoms: C_8  and  O_12
REMARK    4  A    between atoms: C_9  and  O_14
REMARK    5  A    between atoms: C_16  and  C_18
REMARK    6  A    between atoms: C_19  and  C_20
REMARK    7  A    between atoms: C_22  and  O_26
REMARK    8  A    between atoms: C_23  and  O_28
REMARK                            x       y       z     vdW  Elec       q    Type
REMARK                         _______ _______ _______ _____ _____    ______ ____
ROOT
ATOM      1  C   UNL     1     -21.781  -6.100   6.290  0.00  0.00    +0.000 C 
ATOM      2  C   UNL     1     -20.949  -5.592   7.330  0.00  0.00    +0.000 C 
ATOM      3  O   UNL     1     -19.934  -4.973   7.045  0.00  0.00    +0.000 OA
ATOM      4  C   UNL     1     -22.609  -6.611   5.249  0.00  0.00    +0.000 C 
ATOM      5  O   UNL     1     -23.434  -7.478   5.500  0.00  0.00    +0.000 OA
ENDROOT
BRANCH   2   6
ATOM      6  C   UNL     1     -21.312  -5.807   8.708  0.00  0.00    +0.000 C 
ATOM      7  C   UNL     1     -21.614  -5.989   9.856  0.00  0.00    +0.000 C 
BRANCH   7   8
ATOM      8  C   UNL     1     -21.971  -6.204  11.220  0.00  0.00    +0.000 A 
ATOM      9  C   UNL     1     -23.177  -6.826  11.534  0.00  0.00    +0.000 A 
ATOM     10  C   UNL     1     -23.543  -7.045  12.866  0.00  0.00    +0.000 A 
ATOM     11  C   UNL     1     -22.674  -6.626  13.878  0.00  0.00    +0.000 A 
ATOM     12  C   UNL     1     -21.466  -6.003  13.567  0.00  0.00    +0.000 A 
ATOM     13  C   UNL     1     -21.114  -5.791  12.237  0.00  0.00    +0.000 A 
BRANCH  10  14
ATOM     14  O   UNL     1     -24.713  -7.651  13.249  0.00  0.00    +0.000 OA
ATOM     15  C   UNL     1     -24.986  -8.891  12.661  0.00  0.00    +0.000 C 
ENDBRANCH  10  14
BRANCH  11  16
ATOM     16  O   UNL     1     -22.945  -6.796  15.207  0.00  0.00    +0.000 OA
ATOM     17  H   UNL     1     -23.228  -7.708  15.386  0.00  0.00    +0.000 HD
ENDBRANCH  11  16
ENDBRANCH   7   8
ENDBRANCH   2   6
BRANCH   4  18
ATOM     18  C   UNL     1     -22.469  -6.103   3.908  0.00  0.00    +0.000 C 
ATOM     19  C   UNL     1     -22.356  -5.681   2.789  0.00  0.00    +0.000 C 
BRANCH  19  20
ATOM     20  C   UNL     1     -22.224  -5.183   1.460  0.00  0.00    +0.000 A 
ATOM     21  C   UNL     1     -21.217  -5.675   0.631  0.00  0.00    +0.000 A 
ATOM     22  C   UNL     1     -21.074  -5.198  -0.675  0.00  0.00    +0.000 A 
ATOM     23  C   UNL     1     -21.960  -4.219  -1.132  0.00  0.00    +0.000 A 
ATOM     24  C   UNL     1     -22.969  -3.723  -0.308  0.00  0.00    +0.000 A 
ATOM     25  C   UNL     1     -23.100  -4.207   0.991  0.00  0.00    +0.000 A 
BRANCH  22  26
ATOM     26  O   UNL     1     -20.111  -5.628  -1.556  0.00  0.00    +0.000 OA
ATOM     27  C   UNL     1     -18.784  -5.470  -1.126  0.00  0.00    +0.000 C 
ENDBRANCH  22  26
BRANCH  23  28
ATOM     28  O   UNL     1     -21.837  -3.738  -2.407  0.00  0.00    +0.000 OA
ATOM     29  H   UNL     1     -21.040  -4.127  -2.811  0.00  0.00    +0.000 HD
ENDBRANCH  23  28
ENDBRANCH  19  20
ENDBRANCH   4  18
TORSDOF 8
ENDMDL
