MODEL 1
REMARK VINA RESULT:      -9.3      0.000      0.000
REMARK  Name = Cyclosporin_A.pdbqt.pdb
REMARK  4 active torsions:
REMARK  status: ('A' for Active; 'I' for Inactive)
REMARK    1  A    between atoms: N_13  and  C_36
REMARK    2  A    between atoms: C_36  and  O_70
REMARK    3  A    between atoms: C_72  and  C_73
REMARK    4  A    between atoms: C_75  and  C_76
REMARK                            x       y       z     vdW  Elec       q    Type
REMARK                         _______ _______ _______ _____ _____    ______ ____
ROOT
ATOM      1  O   UNL     1     -10.314   1.707  23.792  0.00  0.00    +0.000 OA
ATOM      2  O   UNL     1     -13.366  -2.373  23.198  0.00  0.00    +0.000 OA
ATOM      3  O   UNL     1     -10.182  -5.786  22.134  0.00  0.00    +0.000 OA
ATOM      4  O   UNL     1      -6.273   2.056  21.044  0.00  0.00    +0.000 OA
ATOM      5  O   UNL     1     -12.015  -4.351  26.641  0.00  0.00    +0.000 OA
ATOM      6  O   UNL     1      -1.455  -5.205  30.495  0.00  0.00    +0.000 OA
ATOM      7  O   UNL     1      -5.944   3.457  26.431  0.00  0.00    +0.000 OA
ATOM      8  O   UNL     1      -0.325  -2.373  26.626  0.00  0.00    +0.000 OA
ATOM      9  O   UNL     1      -5.655  -7.621  30.474  0.00  0.00    +0.000 OA
ATOM     10  O   UNL     1      -2.044   1.352  26.433  0.00  0.00    +0.000 OA
ATOM     11  O   UNL     1      -9.022  -5.037  29.707  0.00  0.00    +0.000 OA
ATOM     12  N   UNL     1     -11.703  -1.384  23.107  0.00  0.00    +0.000 NA
ATOM     13  N   UNL     1      -8.990   0.052  22.655  0.00  0.00    +0.000 NA
ATOM     14  N   UNL     1     -11.670  -4.588  22.673  0.00  0.00    +0.000 NA
ATOM     15  N   UNL     1     -10.515  -5.974  25.291  0.00  0.00    +0.000 NA
ATOM     16  N   UNL     1      -6.238   1.260  23.349  0.00  0.00    +0.000 NA
ATOM     17  N   UNL     1      -2.564  -6.224  28.685  0.00  0.00    +0.000 N 
ATOM     18  N   UNL     1      -2.243  -3.360  27.532  0.00  0.00    +0.000 N 
ATOM     19  N   UNL     1      -2.407  -0.530  26.901  0.00  0.00    +0.000 NA
ATOM     20  N   UNL     1      -5.689   1.198  26.350  0.00  0.00    +0.000 NA
ATOM     21  N   UNL     1      -8.564  -4.894  27.271  0.00  0.00    +0.000 NA
ATOM     22  N   UNL     1      -5.607  -5.697  29.015  0.00  0.00    +0.000 NA
ATOM     23  C   UNL     1     -11.280  -0.279  23.787  0.00  0.00    +0.000 C 
ATOM     24  C   UNL     1     -11.124  -3.370  22.725  0.00  0.00    +0.000 C 
ATOM     25  C   UNL     1      -8.248   0.931  21.891  0.00  0.00    +0.000 C 
ATOM     26  C   UNL     1     -12.139   0.604  24.415  0.00  0.00    +0.000 C 
ATOM     27  C   UNL     1     -10.495  -3.396  21.385  0.00  0.00    +0.000 C 
ATOM     28  C   UNL     1     -10.144   0.384  23.372  0.00  0.00    +0.000 C 
ATOM     29  C   UNL     1     -12.126  -2.683  23.321  0.00  0.00    +0.000 C 
ATOM     30  C   UNL     1     -11.357  -5.852  24.303  0.00  0.00    +0.000 C 
ATOM     31  C   UNL     1     -10.704  -5.323  23.230  0.00  0.00    +0.000 C 
ATOM     32  C   UNL     1      -6.780   1.160  22.050  0.00  0.00    +0.000 C 
ATOM     33  C   UNL     1     -13.398   0.070  23.999  0.00  0.00    +0.000 C 
ATOM     34  C   UNL     1     -11.613   1.841  24.242  0.00  0.00    +0.000 C 
ATOM     35  C   UNL     1     -13.032  -1.116  23.381  0.00  0.00    +0.000 C 
ATOM     36  C   UNL     1     -11.114  -4.992  21.428  0.00  0.00    +0.000 C 
ATOM     37  C   UNL     1      -6.127   2.457  24.101  0.00  0.00    +0.000 C 
ATOM     38  C   UNL     1      -1.772  -3.829  28.732  0.00  0.00    +0.000 A 
ATOM     39  C   UNL     1     -10.896  -4.882  25.945  0.00  0.00    +0.000 C 
ATOM     40  C   UNL     1      -3.590  -6.901  29.393  0.00  0.00    +0.000 C 
ATOM     41  C   UNL     1      -1.962  -1.412  25.974  0.00  0.00    +0.000 C 
ATOM     42  C   UNL     1     -11.166  -7.259  25.654  0.00  0.00    +0.000 C 
ATOM     43  C   UNL     1      -1.026  -3.147  29.742  0.00  0.00    +0.000 A 
ATOM     44  C   UNL     1      -2.660  -8.374  29.892  0.00  0.00    +0.000 C 
ATOM     45  C   UNL     1      -9.785  -4.645  26.911  0.00  0.00    +0.000 C 
ATOM     46  C   UNL     1      -0.481  -1.154  25.898  0.00  0.00    +0.000 C 
ATOM     47  C   UNL     1      -6.327   3.637  23.324  0.00  0.00    +0.000 C 
ATOM     48  C   UNL     1      -1.992  -5.107  29.234  0.00  0.00    +0.000 A 
ATOM     49  C   UNL     1      -5.941   2.408  25.444  0.00  0.00    +0.000 C 
ATOM     50  C   UNL     1      -1.616  -2.488  26.777  0.00  0.00    +0.000 C 
ATOM     51  C   UNL     1      -4.925  -6.710  29.662  0.00  0.00    +0.000 C 
ATOM     52  C   UNL     1      -4.325   0.698  26.157  0.00  0.00    +0.000 C 
ATOM     53  C   UNL     1      -0.572  -1.713  29.783  0.00  0.00    +0.000 C 
ATOM     54  C   UNL     1      -0.863  -4.015  30.791  0.00  0.00    +0.000 A 
ATOM     55  C   UNL     1      -2.948   0.380  26.030  0.00  0.00    +0.000 C 
ATOM     56  C   UNL     1      -6.860  -5.418  29.172  0.00  0.00    +0.000 C 
ATOM     57  C   UNL     1     -10.998  -4.187  27.349  0.00  0.00    +0.000 C 
ATOM     58  C   UNL     1      -2.068  -7.402  29.127  0.00  0.00    +0.000 C 
ATOM     59  C   UNL     1      -6.611   4.029  22.228  0.00  0.00    +0.000 C 
ATOM     60  C   UNL     1      -8.184  -5.049  28.531  0.00  0.00    +0.000 C 
ATOM     61  C   UNL     1      -1.132   0.373  27.022  0.00  0.00    +0.000 C 
ATOM     62  C   UNL     1      -5.758   2.360  26.972  0.00  0.00    +0.000 C 
ATOM     63  C   UNL     1      -7.876  -5.353  30.067  0.00  0.00    +0.000 C 
ATOM     64  H   UNL     1      -6.593   0.520  23.956  0.00  0.00    +0.000 HD
ATOM     65  H   UNL     1      -3.226  -3.536  27.338  0.00  0.00    +0.000 HD
ATOM     66  H   UNL     1      -7.927  -5.229  26.552  0.00  0.00    +0.000 HD
ATOM     67  H   UNL     1      -5.143  -5.439  28.149  0.00  0.00    +0.000 HD
ATOM     68  C   UNL     1      -8.788   1.915  21.226  0.00  0.00    +0.000 C 
ATOM     69  C   UNL     1      -8.357   3.166  20.702  0.00  0.00    +0.000 C 
ATOM     70  C   UNL     1      -6.924   3.341  21.011  0.00  0.00    +0.000 C 
ATOM     71  C   UNL     1     -10.911  -3.132  19.787  0.00  0.00    +0.000 C 
ATOM     72  C   UNL     1     -10.147  -2.576  18.848  0.00  0.00    +0.000 C 
ATOM     73  C   UNL     1     -11.156  -4.442  20.208  0.00  0.00    +0.000 C 
ATOM     74  C   UNL     1     -12.001  -7.158  24.498  0.00  0.00    +0.000 C 
ATOM     75  C   UNL     1     -12.573  -7.775  25.602  0.00  0.00    +0.000 C 
ATOM     76  C   UNL     1     -12.943  -9.273  25.584  0.00  0.00    +0.000 C 
ATOM     77  C   UNL     1     -11.944  -7.434  26.784  0.00  0.00    +0.000 C 
ATOM     78  C   UNL     1       0.628  -0.211  25.232  0.00  0.00    +0.000 C 
ATOM     79  C   UNL     1       1.900  -0.366  24.876  0.00  0.00    +0.000 C 
ATOM     80  C   UNL     1      -0.044   0.526  26.208  0.00  0.00    +0.000 C 
ATOM     81  C   UNL     1      -3.497  -9.121  30.616  0.00  0.00    +0.000 C 
ATOM     82  C   UNL     1      -3.091 -10.433  31.201  0.00  0.00    +0.000 C 
ATOM     83  C   UNL     1      -4.807  -8.606  30.771  0.00  0.00    +0.000 C 
ENDROOT
BRANCH  69  84
ATOM     84  C   UNL     1      -9.193   4.244  20.327  0.00  0.00    +0.000 C 
ATOM     85  C   UNL     1      -9.909   5.154  20.009  0.00  0.00    +0.000 C 
BRANCH  85  86
ATOM     86  C   UNL     1     -10.826   6.313  19.600  0.00  0.00    +0.000 C 
ATOM     87  C   UNL     1     -11.626   7.316  19.245  0.00  0.00    +0.000 C 
ENDBRANCH  85  86
ENDBRANCH  69  84
BRANCH  13  88
ATOM     88  C   UNL     1      -8.380  -1.233  22.959  0.00  0.00    +0.000 C 
BRANCH  88  89
ATOM     89  O   UNL     1      -7.805  -2.393  23.247  0.00  0.00    +0.000 OA
ATOM     90  H   UNL     1      -8.412  -2.945  23.770  0.00  0.00    +0.000 HD
ENDBRANCH  88  89
ENDBRANCH  13  88
TORSDOF 4
ENDMDL
MODEL 2
REMARK VINA RESULT:      -9.3      3.113     12.731
REMARK  Name = Cyclosporin_A.pdbqt.pdb
REMARK  4 active torsions:
REMARK  status: ('A' for Active; 'I' for Inactive)
REMARK    1  A    between atoms: N_13  and  C_36
REMARK    2  A    between atoms: C_36  and  O_70
REMARK    3  A    between atoms: C_72  and  C_73
REMARK    4  A    between atoms: C_75  and  C_76
REMARK                            x       y       z     vdW  Elec       q    Type
REMARK                         _______ _______ _______ _____ _____    ______ ____
ROOT
ATOM      1  O   UNL     1      -2.577  -3.186  31.868  0.00  0.00    +0.000 OA
ATOM      2  O   UNL     1       0.223  -0.517  28.499  0.00  0.00    +0.000 OA
ATOM      3  O   UNL     1      -0.259  -3.181  24.551  0.00  0.00    +0.000 OA
ATOM      4  O   UNL     1      -2.717  -8.069  31.482  0.00  0.00    +0.000 OA
ATOM      5  O   UNL     1      -3.055   0.720  26.191  0.00  0.00    +0.000 OA
ATOM      6  O   UNL     1     -12.090  -5.290  23.135  0.00  0.00    +0.000 OA
ATOM      7  O   UNL     1      -7.455  -5.364  32.633  0.00  0.00    +0.000 OA
ATOM      8  O   UNL     1     -10.007  -8.876  25.794  0.00  0.00    +0.000 OA
ATOM      9  O   UNL     1      -9.331  -1.611  21.608  0.00  0.00    +0.000 OA
ATOM     10  O   UNL     1      -9.391  -8.161  29.792  0.00  0.00    +0.000 OA
ATOM     11  O   UNL     1      -7.148   0.242  24.834  0.00  0.00    +0.000 OA
ATOM     12  N   UNL     1      -0.794  -2.036  29.138  0.00  0.00    +0.000 NA
ATOM     13  N   UNL     1      -2.183  -4.669  30.015  0.00  0.00    +0.000 NA
ATOM     14  N   UNL     1      -0.012  -1.854  26.005  0.00  0.00    +0.000 NA
ATOM     15  N   UNL     1      -2.594  -1.032  24.341  0.00  0.00    +0.000 NA
ATOM     16  N   UNL     1      -4.487  -6.625  30.628  0.00  0.00    +0.000 NA
ATOM     17  N   UNL     1      -9.850  -5.324  22.411  0.00  0.00    +0.000 N 
ATOM     18  N   UNL     1      -9.504  -6.673  25.184  0.00  0.00    +0.000 N 
ATOM     19  N   UNL     1      -9.297  -7.324  28.008  0.00  0.00    +0.000 NA
ATOM     20  N   UNL     1      -7.218  -5.287  30.372  0.00  0.00    +0.000 NA
ATOM     21  N   UNL     1      -5.462  -1.576  24.952  0.00  0.00    +0.000 NA
ATOM     22  N   UNL     1      -8.449  -2.786  23.525  0.00  0.00    +0.000 NA
ATOM     23  C   UNL     1      -1.741  -2.133  30.115  0.00  0.00    +0.000 C 
ATOM     24  C   UNL     1      -0.538  -2.434  27.087  0.00  0.00    +0.000 C 
ATOM     25  C   UNL     1      -2.113  -5.836  30.749  0.00  0.00    +0.000 C 
ATOM     26  C   UNL     1      -1.881  -1.208  31.134  0.00  0.00    +0.000 C 
ATOM     27  C   UNL     1       0.189  -3.719  26.975  0.00  0.00    +0.000 C 
ATOM     28  C   UNL     1      -2.149  -3.377  30.550  0.00  0.00    +0.000 C 
ATOM     29  C   UNL     1      -0.543  -1.385  27.944  0.00  0.00    +0.000 C 
ATOM     30  C   UNL     1      -1.331  -0.960  24.658  0.00  0.00    +0.000 C 
ATOM     31  C   UNL     1      -0.912  -2.188  25.076  0.00  0.00    +0.000 C 
ATOM     32  C   UNL     1      -3.113  -6.944  30.677  0.00  0.00    +0.000 C 
ATOM     33  C   UNL     1      -0.750  -0.374  30.874  0.00  0.00    +0.000 C 
ATOM     34  C   UNL     1      -2.216  -1.907  32.245  0.00  0.00    +0.000 C 
ATOM     35  C   UNL     1      -0.293  -0.857  29.657  0.00  0.00    +0.000 C 
ATOM     36  C   UNL     1       0.733  -2.970  25.535  0.00  0.00    +0.000 C 
ATOM     37  C   UNL     1      -5.326  -6.444  31.757  0.00  0.00    +0.000 C 
ATOM     38  C   UNL     1     -10.677  -6.274  24.597  0.00  0.00    +0.000 A 
ATOM     39  C   UNL     1      -3.058  -0.502  25.469  0.00  0.00    +0.000 C 
ATOM     40  C   UNL     1      -9.740  -3.994  21.932  0.00  0.00    +0.000 C 
ATOM     41  C   UNL     1      -8.679  -8.096  27.081  0.00  0.00    +0.000 C 
ATOM     42  C   UNL     1      -2.334  -0.114  23.203  0.00  0.00    +0.000 C 
ATOM     43  C   UNL     1     -12.016  -6.372  25.086  0.00  0.00    +0.000 A 
ATOM     44  C   UNL     1     -10.468  -4.226  20.289  0.00  0.00    +0.000 C 
ATOM     45  C   UNL     1      -4.508  -0.852  25.451  0.00  0.00    +0.000 C 
ATOM     46  C   UNL     1      -9.500  -9.356  27.041  0.00  0.00    +0.000 C 
ATOM     47  C   UNL     1      -4.750  -6.913  32.975  0.00  0.00    +0.000 C 
ATOM     48  C   UNL     1     -10.777  -5.619  23.374  0.00  0.00    +0.000 A 
ATOM     49  C   UNL     1      -6.511  -5.795  31.633  0.00  0.00    +0.000 C 
ATOM     50  C   UNL     1      -9.375  -7.743  25.936  0.00  0.00    +0.000 C 
ATOM     51  C   UNL     1      -9.220  -2.801  22.378  0.00  0.00    +0.000 C 
ATOM     52  C   UNL     1      -7.771  -6.413  29.615  0.00  0.00    +0.000 C 
ATOM     53  C   UNL     1     -12.510  -6.917  26.400  0.00  0.00    +0.000 C 
ATOM     54  C   UNL     1     -12.835  -5.758  24.173  0.00  0.00    +0.000 A 
ATOM     55  C   UNL     1      -8.412  -7.538  29.032  0.00  0.00    +0.000 C 
ATOM     56  C   UNL     1      -7.899  -1.737  24.044  0.00  0.00    +0.000 C 
ATOM     57  C   UNL     1      -4.231   0.305  26.129  0.00  0.00    +0.000 C 
ATOM     58  C   UNL     1     -10.325  -5.288  21.145  0.00  0.00    +0.000 C 
ATOM     59  C   UNL     1      -3.757  -7.389  33.448  0.00  0.00    +0.000 C 
ATOM     60  C   UNL     1      -6.675  -1.114  24.688  0.00  0.00    +0.000 C 
ATOM     61  C   UNL     1     -10.252  -8.398  28.633  0.00  0.00    +0.000 C 
ATOM     62  C   UNL     1      -7.844  -5.035  31.505  0.00  0.00    +0.000 C 
ATOM     63  C   UNL     1      -8.051  -0.412  24.285  0.00  0.00    +0.000 C 
ATOM     64  H   UNL     1      -4.671  -5.878  29.957  0.00  0.00    +0.000 HD
ATOM     65  H   UNL     1      -8.760  -5.980  25.214  0.00  0.00    +0.000 HD
ATOM     66  H   UNL     1      -5.198  -2.456  24.518  0.00  0.00    +0.000 HD
ATOM     67  H   UNL     1      -8.051  -3.701  23.710  0.00  0.00    +0.000 HD
ATOM     68  C   UNL     1      -1.405  -5.940  31.841  0.00  0.00    +0.000 C 
ATOM     69  C   UNL     1      -1.403  -6.772  32.995  0.00  0.00    +0.000 C 
ATOM     70  C   UNL     1      -2.497  -7.756  32.871  0.00  0.00    +0.000 C 
ATOM     71  C   UNL     1       1.682  -4.367  27.363  0.00  0.00    +0.000 C 
ATOM     72  C   UNL     1       1.925  -5.607  27.782  0.00  0.00    +0.000 C 
ATOM     73  C   UNL     1       1.665  -3.734  26.117  0.00  0.00    +0.000 C 
ATOM     74  C   UNL     1      -0.937  -0.145  23.501  0.00  0.00    +0.000 C 
ATOM     75  C   UNL     1      -1.415   1.050  22.980  0.00  0.00    +0.000 C 
ATOM     76  C   UNL     1      -0.978   1.551  21.586  0.00  0.00    +0.000 C 
ATOM     77  C   UNL     1      -2.778   1.195  23.154  0.00  0.00    +0.000 C 
ATOM     78  C   UNL     1      -9.729 -10.766  27.762  0.00  0.00    +0.000 C 
ATOM     79  C   UNL     1     -10.148 -11.965  27.366  0.00  0.00    +0.000 C 
ATOM     80  C   UNL     1     -10.237  -9.764  28.590  0.00  0.00    +0.000 C 
ATOM     81  C   UNL     1     -10.469  -3.027  19.704  0.00  0.00    +0.000 C 
ATOM     82  C   UNL     1     -10.990  -2.816  18.321  0.00  0.00    +0.000 C 
ATOM     83  C   UNL     1      -9.918  -1.968  20.466  0.00  0.00    +0.000 C 
ENDROOT
BRANCH  69  84
ATOM     84  C   UNL     1      -0.774  -6.484  34.229  0.00  0.00    +0.000 C 
ATOM     85  C   UNL     1      -0.247  -6.239  35.280  0.00  0.00    +0.000 C 
BRANCH  85  86
ATOM     86  C   UNL     1       0.421  -5.924  36.623  0.00  0.00    +0.000 C 
ATOM     87  C   UNL     1       1.004  -5.655  37.789  0.00  0.00    +0.000 C 
ENDBRANCH  85  86
ENDBRANCH  69  84
BRANCH  13  88
ATOM     88  C   UNL     1      -2.597  -4.789  28.626  0.00  0.00    +0.000 C 
BRANCH  88  89
ATOM     89  O   UNL     1      -2.986  -4.919  27.365  0.00  0.00    +0.000 OA
ATOM     90  H   UNL     1      -3.928  -4.689  27.282  0.00  0.00    +0.000 HD
ENDBRANCH  88  89
ENDBRANCH  13  88
TORSDOF 4
ENDMDL
MODEL 3
REMARK VINA RESULT:      -9.3      2.521      9.253
REMARK  Name = Cyclosporin_A.pdbqt.pdb
REMARK  4 active torsions:
REMARK  status: ('A' for Active; 'I' for Inactive)
REMARK    1  A    between atoms: N_13  and  C_36
REMARK    2  A    between atoms: C_36  and  O_70
REMARK    3  A    between atoms: C_72  and  C_73
REMARK    4  A    between atoms: C_75  and  C_76
REMARK                            x       y       z     vdW  Elec       q    Type
REMARK                         _______ _______ _______ _____ _____    ______ ____
ROOT
ATOM      1  O   UNL     1      -4.246   0.054  21.959  0.00  0.00    +0.000 OA
ATOM      2  O   UNL     1      -0.433   1.194  25.195  0.00  0.00    +0.000 OA
ATOM      3  O   UNL     1      -2.624   0.750  29.429  0.00  0.00    +0.000 OA
ATOM      4  O   UNL     1      -8.827   1.305  23.169  0.00  0.00    +0.000 OA
ATOM      5  O   UNL     1      -0.068  -2.696  26.723  0.00  0.00    +0.000 OA
ATOM      6  O   UNL     1      -8.289  -9.942  29.370  0.00  0.00    +0.000 OA
ATOM      7  O   UNL     1      -7.969  -3.694  20.852  0.00  0.00    +0.000 OA
ATOM      8  O   UNL     1     -11.288  -6.395  27.730  0.00  0.00    +0.000 OA
ATOM      9  O   UNL     1      -3.759  -8.773  30.631  0.00  0.00    +0.000 OA
ATOM     10  O   UNL     1     -10.888  -5.234  23.810  0.00  0.00    +0.000 OA
ATOM     11  O   UNL     1      -1.690  -6.645  27.502  0.00  0.00    +0.000 OA
ATOM     12  N   UNL     1      -2.265   0.827  24.685  0.00  0.00    +0.000 NA
ATOM     13  N   UNL     1      -5.290   0.493  24.081  0.00  0.00    +0.000 NA
ATOM     14  N   UNL     1      -1.470   0.875  27.819  0.00  0.00    +0.000 NA
ATOM     15  N   UNL     1      -1.344  -2.113  28.899  0.00  0.00    +0.000 NA
ATOM     16  N   UNL     1      -7.948  -0.949  23.476  0.00  0.00    +0.000 NA
ATOM     17  N   UNL     1      -7.506  -7.987  30.422  0.00  0.00    +0.000 N 
ATOM     18  N   UNL     1      -8.985  -6.706  28.013  0.00  0.00    +0.000 N 
ATOM     19  N   UNL     1      -9.862  -5.753  25.413  0.00  0.00    +0.000 NA
ATOM     20  N   UNL     1      -7.553  -3.948  23.074  0.00  0.00    +0.000 NA
ATOM     21  N   UNL     1      -2.860  -4.504  27.963  0.00  0.00    +0.000 NA
ATOM     22  N   UNL     1      -4.800  -7.216  29.107  0.00  0.00    +0.000 NA
ATOM     23  C   UNL     1      -2.780   0.168  23.607  0.00  0.00    +0.000 C 
ATOM     24  C   UNL     1      -2.313   0.775  26.788  0.00  0.00    +0.000 C 
ATOM     25  C   UNL     1      -6.449   1.055  23.582  0.00  0.00    +0.000 C 
ATOM     26  C   UNL     1      -2.077  -0.035  22.432  0.00  0.00    +0.000 C 
ATOM     27  C   UNL     1      -3.268   1.814  27.233  0.00  0.00    +0.000 C 
ATOM     28  C   UNL     1      -4.131   0.246  23.340  0.00  0.00    +0.000 C 
ATOM     29  C   UNL     1      -1.432   0.628  25.770  0.00  0.00    +0.000 C 
ATOM     30  C   UNL     1      -0.902  -0.892  28.771  0.00  0.00    +0.000 C 
ATOM     31  C   UNL     1      -1.967  -0.051  28.644  0.00  0.00    +0.000 C 
ATOM     32  C   UNL     1      -7.806   0.438  23.694  0.00  0.00    +0.000 C 
ATOM     33  C   UNL     1      -0.896   0.719  22.711  0.00  0.00    +0.000 C 
ATOM     34  C   UNL     1      -2.974   0.084  21.423  0.00  0.00    +0.000 C 
ATOM     35  C   UNL     1      -1.057   1.046  24.049  0.00  0.00    +0.000 C 
ATOM     36  C   UNL     1      -2.218   1.809  28.586  0.00  0.00    +0.000 C 
ATOM     37  C   UNL     1      -8.185  -1.560  22.219  0.00  0.00    +0.000 C 
ATOM     38  C   UNL     1      -8.925  -8.037  28.336  0.00  0.00    +0.000 A 
ATOM     39  C   UNL     1      -1.130  -2.479  27.639  0.00  0.00    +0.000 C 
ATOM     40  C   UNL     1      -6.166  -8.378  30.671  0.00  0.00    +0.000 C 
ATOM     41  C   UNL     1     -10.275  -5.131  26.544  0.00  0.00    +0.000 C 
ATOM     42  C   UNL     1      -0.264  -2.373  29.886  0.00  0.00    +0.000 C 
ATOM     43  C   UNL     1      -9.510  -9.159  27.673  0.00  0.00    +0.000 A 
ATOM     44  C   UNL     1      -6.427  -9.316  32.199  0.00  0.00    +0.000 C 
ATOM     45  C   UNL     1      -1.929  -3.730  27.497  0.00  0.00    +0.000 C 
ATOM     46  C   UNL     1     -11.720  -5.529  26.679  0.00  0.00    +0.000 C 
ATOM     47  C   UNL     1      -8.581  -0.638  21.204  0.00  0.00    +0.000 C 
ATOM     48  C   UNL     1      -8.198  -8.571  29.395  0.00  0.00    +0.000 A 
ATOM     49  C   UNL     1      -7.947  -2.884  22.044  0.00  0.00    +0.000 C 
ATOM     50  C   UNL     1     -10.036  -6.115  27.490  0.00  0.00    +0.000 C 
ATOM     51  C   UNL     1      -4.930  -8.160  30.108  0.00  0.00    +0.000 C 
ATOM     52  C   UNL     1      -8.700  -4.279  23.924  0.00  0.00    +0.000 C 
ATOM     53  C   UNL     1     -10.337  -9.194  26.416  0.00  0.00    +0.000 C 
ATOM     54  C   UNL     1      -9.094 -10.289  28.328  0.00  0.00    +0.000 A 
ATOM     55  C   UNL     1      -9.895  -4.658  24.589  0.00  0.00    +0.000 C 
ATOM     56  C   UNL     1      -3.698  -6.911  28.502  0.00  0.00    +0.000 C 
ATOM     57  C   UNL     1      -0.834  -3.682  26.677  0.00  0.00    +0.000 C 
ATOM     58  C   UNL     1      -7.478  -8.695  31.574  0.00  0.00    +0.000 C 
ATOM     59  C   UNL     1      -8.759   0.525  20.979  0.00  0.00    +0.000 C 
ATOM     60  C   UNL     1      -2.791  -5.827  27.954  0.00  0.00    +0.000 C 
ATOM     61  C   UNL     1     -11.254  -6.198  24.847  0.00  0.00    +0.000 C 
ATOM     62  C   UNL     1      -7.654  -4.381  21.832  0.00  0.00    +0.000 C 
ATOM     63  C   UNL     1      -2.533  -7.401  28.013  0.00  0.00    +0.000 C 
ATOM     64  H   UNL     1      -7.228  -1.478  23.969  0.00  0.00    +0.000 HD
ATOM     65  H   UNL     1      -8.096  -6.212  27.976  0.00  0.00    +0.000 HD
ATOM     66  H   UNL     1      -3.549  -4.082  28.580  0.00  0.00    +0.000 HD
ATOM     67  H   UNL     1      -5.551  -6.533  29.148  0.00  0.00    +0.000 HD
ATOM     68  C   UNL     1      -6.445   1.964  22.647  0.00  0.00    +0.000 C 
ATOM     69  C   UNL     1      -7.361   2.446  21.670  0.00  0.00    +0.000 C 
ATOM     70  C   UNL     1      -8.626   1.695  21.796  0.00  0.00    +0.000 C 
ATOM     71  C   UNL     1      -3.435   3.478  27.197  0.00  0.00    +0.000 C 
ATOM     72  C   UNL     1      -4.569   4.160  27.044  0.00  0.00    +0.000 C 
ATOM     73  C   UNL     1      -2.700   3.024  28.296  0.00  0.00    +0.000 C 
ATOM     74  C   UNL     1       0.128  -1.001  29.814  0.00  0.00    +0.000 C 
ATOM     75  C   UNL     1       1.154  -1.908  30.039  0.00  0.00    +0.000 C 
ATOM     76  C   UNL     1       1.930  -1.929  31.373  0.00  0.00    +0.000 C 
ATOM     77  C   UNL     1       0.825  -3.188  29.636  0.00  0.00    +0.000 C 
ATOM     78  C   UNL     1     -13.203  -5.176  26.189  0.00  0.00    +0.000 C 
ATOM     79  C   UNL     1     -14.417  -5.288  26.721  0.00  0.00    +0.000 C 
ATOM     80  C   UNL     1     -12.526  -5.784  25.131  0.00  0.00    +0.000 C 
ATOM     81  C   UNL     1      -5.233  -9.793  32.558  0.00  0.00    +0.000 C 
ATOM     82  C   UNL     1      -5.042 -10.619  33.787  0.00  0.00    +0.000 C 
ATOM     83  C   UNL     1      -4.150  -9.443  31.715  0.00  0.00    +0.000 C 
ENDROOT
BRANCH  69  84
ATOM     84  C   UNL     1      -7.031   3.194  20.516  0.00  0.00    +0.000 C 
ATOM     85  C   UNL     1      -6.752   3.822  19.531  0.00  0.00    +0.000 C 
BRANCH  85  86
ATOM     86  C   UNL     1      -6.396   4.620  18.272  0.00  0.00    +0.000 C 
ATOM     87  C   UNL     1      -6.083   5.316  17.180  0.00  0.00    +0.000 C 
ENDBRANCH  85  86
ENDBRANCH  69  84
BRANCH  13  88
ATOM     88  C   UNL     1      -5.374  -0.135  25.390  0.00  0.00    +0.000 C 
BRANCH  88  89
ATOM     89  O   UNL     1      -5.467  -0.724  26.574  0.00  0.00    +0.000 OA
ATOM     90  H   UNL     1      -5.871  -1.604  26.478  0.00  0.00    +0.000 HD
ENDBRANCH  88  89
ENDBRANCH  13  88
TORSDOF 4
ENDMDL
MODEL 4
REMARK VINA RESULT:      -8.7     22.535     26.293
REMARK  Name = Cyclosporin_A.pdbqt.pdb
REMARK  4 active torsions:
REMARK  status: ('A' for Active; 'I' for Inactive)
REMARK    1  A    between atoms: N_13  and  C_36
REMARK    2  A    between atoms: C_36  and  O_70
REMARK    3  A    between atoms: C_72  and  C_73
REMARK    4  A    between atoms: C_75  and  C_76
REMARK                            x       y       z     vdW  Elec       q    Type
REMARK                         _______ _______ _______ _____ _____    ______ ____
ROOT
ATOM      1  O   UNL     1      -8.843   3.111  -2.757  0.00  0.00    +0.000 OA
ATOM      2  O   UNL     1      -7.986   7.567  -0.364  0.00  0.00    +0.000 OA
ATOM      3  O   UNL     1      -6.854   6.071   4.040  0.00  0.00    +0.000 OA
ATOM      4  O   UNL     1     -10.766  -0.608  -0.210  0.00  0.00    +0.000 OA
ATOM      5  O   UNL     1      -3.854   6.976   0.051  0.00  0.00    +0.000 OA
ATOM      6  O   UNL     1       1.588  -2.508   2.794  0.00  0.00    +0.000 OA
ATOM      7  O   UNL     1      -6.637  -1.704  -3.794  0.00  0.00    +0.000 OA
ATOM      8  O   UNL     1      -2.913  -4.512   2.828  0.00  0.00    +0.000 OA
ATOM      9  O   UNL     1       2.005   2.305   3.163  0.00  0.00    +0.000 OA
ATOM     10  O   UNL     1      -5.055  -4.427  -0.675  0.00  0.00    +0.000 OA
ATOM     11  O   UNL     1      -0.382   4.381   0.230  0.00  0.00    +0.000 OA
ATOM     12  N   UNL     1      -8.253   5.653  -0.489  0.00  0.00    +0.000 NA
ATOM     13  N   UNL     1      -8.872   2.613  -0.403  0.00  0.00    +0.000 NA
ATOM     14  N   UNL     1      -7.165   6.928   2.277  0.00  0.00    +0.000 NA
ATOM     15  N   UNL     1      -4.057   6.314   2.546  0.00  0.00    +0.000 NA
ATOM     16  N   UNL     1      -8.379  -0.419  -0.675  0.00  0.00    +0.000 NA
ATOM     17  N   UNL     1       0.292  -1.006   4.062  0.00  0.00    +0.000 N 
ATOM     18  N   UNL     1      -1.973  -2.399   2.463  0.00  0.00    +0.000 N 
ATOM     19  N   UNL     1      -3.844  -3.359   0.459  0.00  0.00    +0.000 NA
ATOM     20  N   UNL     1      -5.637  -1.027  -1.867  0.00  0.00    +0.000 NA
ATOM     21  N   UNL     1      -2.506   4.010   1.460  0.00  0.00    +0.000 NA
ATOM     22  N   UNL     1      -0.143   1.552   2.356  0.00  0.00    +0.000 NA
ATOM     23  C   UNL     1      -8.095   4.792  -1.535  0.00  0.00    +0.000 C 
ATOM     24  C   UNL     1      -7.588   5.937   1.488  0.00  0.00    +0.000 C 
ATOM     25  C   UNL     1      -9.825   1.615  -0.457  0.00  0.00    +0.000 C 
ATOM     26  C   UNL     1      -8.084   5.196  -2.858  0.00  0.00    +0.000 C 
ATOM     27  C   UNL     1      -8.650   5.430   2.387  0.00  0.00    +0.000 C 
ATOM     28  C   UNL     1      -8.580   3.504  -1.441  0.00  0.00    +0.000 C 
ATOM     29  C   UNL     1      -7.540   6.552   0.283  0.00  0.00    +0.000 C 
ATOM     30  C   UNL     1      -5.111   7.078   2.611  0.00  0.00    +0.000 C 
ATOM     31  C   UNL     1      -6.188   6.315   2.951  0.00  0.00    +0.000 C 
ATOM     32  C   UNL     1      -9.557   0.173  -0.172  0.00  0.00    +0.000 C 
ATOM     33  C   UNL     1      -8.405   6.580  -2.701  0.00  0.00    +0.000 C 
ATOM     34  C   UNL     1      -8.717   4.226  -3.562  0.00  0.00    +0.000 C 
ATOM     35  C   UNL     1      -8.346   6.748  -1.326  0.00  0.00    +0.000 C 
ATOM     36  C   UNL     1      -7.982   6.635   3.403  0.00  0.00    +0.000 C 
ATOM     37  C   UNL     1      -8.250  -1.033  -1.946  0.00  0.00    +0.000 C 
ATOM     38  C   UNL     1      -0.634  -2.695   2.433  0.00  0.00    +0.000 A 
ATOM     39  C   UNL     1      -4.043   6.196   1.222  0.00  0.00    +0.000 C 
ATOM     40  C   UNL     1       1.058   0.173   3.878  0.00  0.00    +0.000 C 
ATOM     41  C   UNL     1      -4.182  -3.372   1.771  0.00  0.00    +0.000 C 
ATOM     42  C   UNL     1      -3.256   7.410   3.149  0.00  0.00    +0.000 C 
ATOM     43  C   UNL     1       0.057  -3.694   1.683  0.00  0.00    +0.000 A 
ATOM     44  C   UNL     1       2.315  -0.107   5.153  0.00  0.00    +0.000 C 
ATOM     45  C   UNL     1      -3.129   5.043   0.982  0.00  0.00    +0.000 C 
ATOM     46  C   UNL     1      -4.131  -4.827   2.153  0.00  0.00    +0.000 C 
ATOM     47  C   UNL     1      -9.500  -1.291  -2.583  0.00  0.00    +0.000 C 
ATOM     48  C   UNL     1       0.353  -2.002   3.124  0.00  0.00    +0.000 A 
ATOM     49  C   UNL     1      -7.022  -1.242  -2.484  0.00  0.00    +0.000 C 
ATOM     50  C   UNL     1      -2.933  -3.291   2.367  0.00  0.00    +0.000 C 
ATOM     51  C   UNL     1       0.994   1.307   3.102  0.00  0.00    +0.000 C 
ATOM     52  C   UNL     1      -5.361  -2.065  -0.870  0.00  0.00    +0.000 C 
ATOM     53  C   UNL     1      -0.490  -4.687   0.692  0.00  0.00    +0.000 C 
ATOM     54  C   UNL     1       1.398  -3.540   1.927  0.00  0.00    +0.000 A 
ATOM     55  C   UNL     1      -5.108  -3.192  -0.045  0.00  0.00    +0.000 C 
ATOM     56  C   UNL     1      -0.333   2.580   1.593  0.00  0.00    +0.000 C 
ATOM     57  C   UNL     1      -3.148   5.950  -0.043  0.00  0.00    +0.000 C 
ATOM     58  C   UNL     1       1.296  -1.006   4.969  0.00  0.00    +0.000 C 
ATOM     59  C   UNL     1     -10.684  -1.141  -2.473  0.00  0.00    +0.000 C 
ATOM     60  C   UNL     1      -1.272   3.670   1.117  0.00  0.00    +0.000 C 
ATOM     61  C   UNL     1      -3.947  -4.893   0.157  0.00  0.00    +0.000 C 
ATOM     62  C   UNL     1      -5.633  -1.457  -3.114  0.00  0.00    +0.000 C 
ATOM     63  C   UNL     1       0.260   3.444   0.734  0.00  0.00    +0.000 C 
ATOM     64  H   UNL     1      -7.567   0.176  -0.512  0.00  0.00    +0.000 HD
ATOM     65  H   UNL     1      -2.220  -1.421   2.331  0.00  0.00    +0.000 HD
ATOM     66  H   UNL     1      -2.882   3.593   2.308  0.00  0.00    +0.000 HD
ATOM     67  H   UNL     1      -0.946   1.062   2.740  0.00  0.00    +0.000 HD
ATOM     68  C   UNL     1     -10.942   1.742  -1.120  0.00  0.00    +0.000 C 
ATOM     69  C   UNL     1     -11.904   0.869  -1.701  0.00  0.00    +0.000 C 
ATOM     70  C   UNL     1     -11.485  -0.526  -1.456  0.00  0.00    +0.000 C 
ATOM     71  C   UNL     1     -10.236   5.774   2.792  0.00  0.00    +0.000 C 
ATOM     72  C   UNL     1     -11.190   4.892   3.086  0.00  0.00    +0.000 C 
ATOM     73  C   UNL     1      -9.308   6.506   3.538  0.00  0.00    +0.000 C 
ATOM     74  C   UNL     1      -4.446   8.183   3.316  0.00  0.00    +0.000 C 
ATOM     75  C   UNL     1      -3.290   8.907   3.062  0.00  0.00    +0.000 C 
ATOM     76  C   UNL     1      -2.680   9.848   4.123  0.00  0.00    +0.000 C 
ATOM     77  C   UNL     1      -2.310   8.143   2.456  0.00  0.00    +0.000 C 
ATOM     78  C   UNL     1      -4.968  -6.191   2.136  0.00  0.00    +0.000 C 
ATOM     79  C   UNL     1      -5.007  -7.277   2.903  0.00  0.00    +0.000 C 
ATOM     80  C   UNL     1      -4.557  -5.914   0.831  0.00  0.00    +0.000 C 
ATOM     81  C   UNL     1       3.156   0.927   5.087  0.00  0.00    +0.000 C 
ATOM     82  C   UNL     1       4.332   1.057   5.998  0.00  0.00    +0.000 C 
ATOM     83  C   UNL     1       2.849   1.912   4.117  0.00  0.00    +0.000 C 
ENDROOT
BRANCH  69  84
ATOM     84  C   UNL     1     -12.856   1.217  -2.687  0.00  0.00    +0.000 C 
ATOM     85  C   UNL     1     -13.670   1.515  -3.518  0.00  0.00    +0.000 C 
BRANCH  85  86
ATOM     86  C   UNL     1     -14.712   1.895  -4.576  0.00  0.00    +0.000 C 
ATOM     87  C   UNL     1     -15.614   2.225  -5.499  0.00  0.00    +0.000 C 
ENDBRANCH  85  86
ENDBRANCH  69  84
BRANCH  13  88
ATOM     88  C   UNL     1      -7.923   2.558   0.697  0.00  0.00    +0.000 C 
BRANCH  88  89
ATOM     89  O   UNL     1      -7.063   2.484   1.703  0.00  0.00    +0.000 OA
ATOM     90  H   UNL     1      -6.408   1.785   1.531  0.00  0.00    +0.000 HD
ENDBRANCH  88  89
ENDBRANCH  13  88
TORSDOF 4
ENDMDL
MODEL 5
REMARK VINA RESULT:      -8.7     20.825     24.389
REMARK  Name = Cyclosporin_A.pdbqt.pdb
REMARK  4 active torsions:
REMARK  status: ('A' for Active; 'I' for Inactive)
REMARK    1  A    between atoms: N_13  and  C_36
REMARK    2  A    between atoms: C_36  and  O_70
REMARK    3  A    between atoms: C_72  and  C_73
REMARK    4  A    between atoms: C_75  and  C_76
REMARK                            x       y       z     vdW  Elec       q    Type
REMARK                         _______ _______ _______ _____ _____    ______ ____
ROOT
ATOM      1  O   UNL     1       9.022  -8.605  15.014  0.00  0.00    +0.000 OA
ATOM      2  O   UNL     1       4.513 -10.858  15.966  0.00  0.00    +0.000 OA
ATOM      3  O   UNL     1       3.657 -13.053  11.799  0.00  0.00    +0.000 OA
ATOM      4  O   UNL     1       9.954  -7.006  10.478  0.00  0.00    +0.000 OA
ATOM      5  O   UNL     1       6.038 -14.766  15.936  0.00  0.00    +0.000 OA
ATOM      6  O   UNL     1      13.667 -19.215   8.929  0.00  0.00    +0.000 OA
ATOM      7  O   UNL     1      14.034  -9.586  13.270  0.00  0.00    +0.000 OA
ATOM      8  O   UNL     1      13.812 -14.691   6.985  0.00  0.00    +0.000 OA
ATOM      9  O   UNL     1       9.835 -20.484  11.609  0.00  0.00    +0.000 OA
ATOM     10  O   UNL     1      14.970 -11.608   9.438  0.00  0.00    +0.000 OA
ATOM     11  O   UNL     1       9.052 -17.664  14.778  0.00  0.00    +0.000 OA
ATOM     12  N   UNL     1       5.993 -10.266  14.867  0.00  0.00    +0.000 NA
ATOM     13  N   UNL     1       8.131  -9.231  12.869  0.00  0.00    +0.000 NA
ATOM     14  N   UNL     1       3.842 -12.348  13.645  0.00  0.00    +0.000 NA
ATOM     15  N   UNL     1       5.145 -15.248  13.554  0.00  0.00    +0.000 NA
ATOM     16  N   UNL     1      10.802  -9.128  11.331  0.00  0.00    +0.000 NA
ATOM     17  N   UNL     1      11.404 -18.634   8.639  0.00  0.00    +0.000 N 
ATOM     18  N   UNL     1      12.651 -15.793   8.693  0.00  0.00    +0.000 N 
ATOM     19  N   UNL     1      13.901 -13.264   9.386  0.00  0.00    +0.000 NA
ATOM     20  N   UNL     1      12.775 -11.231  12.329  0.00  0.00    +0.000 NA
ATOM     21  N   UNL     1       8.016 -15.997  13.258  0.00  0.00    +0.000 NA
ATOM     22  N   UNL     1      10.190 -18.101  11.448  0.00  0.00    +0.000 NA
ATOM     23  C   UNL     1       7.281  -9.953  15.192  0.00  0.00    +0.000 C 
ATOM     24  C   UNL     1       4.911 -11.549  13.598  0.00  0.00    +0.000 C 
ATOM     25  C   UNL     1       8.644  -8.163  12.159  0.00  0.00    +0.000 C 
ATOM     26  C   UNL     1       7.683  -9.615  16.471  0.00  0.00    +0.000 C 
ATOM     27  C   UNL     1       4.491 -10.754  12.422  0.00  0.00    +0.000 C 
ATOM     28  C   UNL     1       8.085  -9.324  14.264  0.00  0.00    +0.000 C 
ATOM     29  C   UNL     1       5.096 -11.318  14.919  0.00  0.00    +0.000 C 
ATOM     30  C   UNL     1       4.183 -14.401  13.798  0.00  0.00    +0.000 C 
ATOM     31  C   UNL     1       4.261 -13.377  12.902  0.00  0.00    +0.000 C 
ATOM     32  C   UNL     1       9.700  -8.274  11.108  0.00  0.00    +0.000 C 
ATOM     33  C   UNL     1       6.416  -9.583  17.132  0.00  0.00    +0.000 C 
ATOM     34  C   UNL     1       8.624  -8.650  16.337  0.00  0.00    +0.000 C 
ATOM     35  C   UNL     1       5.560 -10.092  16.168  0.00  0.00    +0.000 C 
ATOM     36  C   UNL     1       3.208 -11.887  12.459  0.00  0.00    +0.000 C 
ATOM     37  C   UNL     1      12.009  -8.756  11.975  0.00  0.00    +0.000 C 
ATOM     38  C   UNL     1      13.316 -16.991   8.749  0.00  0.00    +0.000 A 
ATOM     39  C   UNL     1       5.957 -14.829  14.520  0.00  0.00    +0.000 C 
ATOM     40  C   UNL     1      10.820 -19.481   9.615  0.00  0.00    +0.000 C 
ATOM     41  C   UNL     1      13.097 -13.354   8.299  0.00  0.00    +0.000 C 
ATOM     42  C   UNL     1       4.212 -16.360  13.870  0.00  0.00    +0.000 C 
ATOM     43  C   UNL     1      14.718 -17.247   8.842  0.00  0.00    +0.000 A 
ATOM     44  C   UNL     1      10.742 -21.011   8.647  0.00  0.00    +0.000 C 
ATOM     45  C   UNL     1       7.273 -15.428  14.157  0.00  0.00    +0.000 C 
ATOM     46  C   UNL     1      14.044 -13.289   7.131  0.00  0.00    +0.000 C 
ATOM     47  C   UNL     1      12.165  -7.345  12.120  0.00  0.00    +0.000 C 
ATOM     48  C   UNL     1      12.708 -18.242   8.782  0.00  0.00    +0.000 A 
ATOM     49  C   UNL     1      12.845  -9.706  12.463  0.00  0.00    +0.000 C 
ATOM     50  C   UNL     1      13.101 -14.722   8.079  0.00  0.00    +0.000 C 
ATOM     51  C   UNL     1      10.333 -19.359  10.896  0.00  0.00    +0.000 C 
ATOM     52  C   UNL     1      13.134 -11.635  10.966  0.00  0.00    +0.000 C 
ATOM     53  C   UNL     1      15.858 -16.269   8.931  0.00  0.00    +0.000 C 
ATOM     54  C   UNL     1      14.883 -18.604   8.955  0.00  0.00    +0.000 A 
ATOM     55  C   UNL     1      13.648 -11.950   9.682  0.00  0.00    +0.000 C 
ATOM     56  C   UNL     1       9.740 -17.849  12.634  0.00  0.00    +0.000 C 
ATOM     57  C   UNL     1       7.111 -15.236  15.502  0.00  0.00    +0.000 C 
ATOM     58  C   UNL     1      11.227 -19.856   8.088  0.00  0.00    +0.000 C 
ATOM     59  C   UNL     1      11.619  -6.294  11.938  0.00  0.00    +0.000 C 
ATOM     60  C   UNL     1       8.851 -16.993  13.516  0.00  0.00    +0.000 C 
ATOM     61  C   UNL     1      15.231 -12.831   8.680  0.00  0.00    +0.000 C 
ATOM     62  C   UNL     1      13.786 -10.777  13.045  0.00  0.00    +0.000 C 
ATOM     63  C   UNL     1       9.713 -18.274  13.921  0.00  0.00    +0.000 C 
ATOM     64  H   UNL     1      10.501 -10.034  11.690  0.00  0.00    +0.000 HD
ATOM     65  H   UNL     1      11.881 -15.676   9.347  0.00  0.00    +0.000 HD
ATOM     66  H   UNL     1       7.767 -15.843  12.285  0.00  0.00    +0.000 HD
ATOM     67  H   UNL     1      10.116 -17.390  10.725  0.00  0.00    +0.000 HD
ATOM     68  C   UNL     1       8.554  -6.931  12.579  0.00  0.00    +0.000 C 
ATOM     69  C   UNL     1       9.250  -5.710  12.354  0.00  0.00    +0.000 C 
ATOM     70  C   UNL     1      10.339  -5.957  11.388  0.00  0.00    +0.000 C 
ATOM     71  C   UNL     1       3.509  -9.448  12.062  0.00  0.00    +0.000 C 
ATOM     72  C   UNL     1       3.742  -8.506  11.150  0.00  0.00    +0.000 C 
ATOM     73  C   UNL     1       2.823 -10.666  12.066  0.00  0.00    +0.000 C 
ATOM     74  C   UNL     1       3.146 -15.419  14.018  0.00  0.00    +0.000 C 
ATOM     75  C   UNL     1       3.079 -16.538  14.836  0.00  0.00    +0.000 C 
ATOM     76  C   UNL     1       1.960 -17.588  14.669  0.00  0.00    +0.000 C 
ATOM     77  C   UNL     1       4.308 -17.146  15.003  0.00  0.00    +0.000 C 
ATOM     78  C   UNL     1      14.858 -12.283   6.190  0.00  0.00    +0.000 C 
ATOM     79  C   UNL     1      15.282 -12.314   4.929  0.00  0.00    +0.000 C 
ATOM     80  C   UNL     1      15.475 -12.306   7.441  0.00  0.00    +0.000 C 
ATOM     81  C   UNL     1      10.231 -21.943   9.455  0.00  0.00    +0.000 C 
ATOM     82  C   UNL     1      10.004 -23.349   9.006  0.00  0.00    +0.000 C 
ATOM     83  C   UNL     1       9.890 -21.509  10.760  0.00  0.00    +0.000 C 
ENDROOT
BRANCH  69  84
ATOM     84  C   UNL     1       9.214  -4.566  13.185  0.00  0.00    +0.000 C 
ATOM     85  C   UNL     1       9.179  -3.598  13.896  0.00  0.00    +0.000 C 
BRANCH  85  86
ATOM     86  C   UNL     1       9.129  -2.365  14.804  0.00  0.00    +0.000 C 
ATOM     87  C   UNL     1       9.081  -1.295  15.596  0.00  0.00    +0.000 C 
ENDBRANCH  85  86
ENDBRANCH  69  84
BRANCH  13  88
ATOM     88  C   UNL     1       7.875 -10.454  12.126  0.00  0.00    +0.000 C 
BRANCH  88  89
ATOM     89  O   UNL     1       7.666 -11.571  11.442  0.00  0.00    +0.000 OA
ATOM     90  H   UNL     1       6.716 -11.676  11.258  0.00  0.00    +0.000 HD
ENDBRANCH  88  89
ENDBRANCH  13  88
TORSDOF 4
ENDMDL
MODEL 6
REMARK VINA RESULT:      -8.7     21.875     29.703
REMARK  Name = Cyclosporin_A.pdbqt.pdb
REMARK  4 active torsions:
REMARK  status: ('A' for Active; 'I' for Inactive)
REMARK    1  A    between atoms: N_13  and  C_36
REMARK    2  A    between atoms: C_36  and  O_70
REMARK    3  A    between atoms: C_72  and  C_73
REMARK    4  A    between atoms: C_75  and  C_76
REMARK                            x       y       z     vdW  Elec       q    Type
REMARK                         _______ _______ _______ _____ _____    ______ ____
ROOT
ATOM      1  O   UNL     1     -25.062  -3.405   8.647  0.00  0.00    +0.000 OA
ATOM      2  O   UNL     1     -26.641   1.415   9.413  0.00  0.00    +0.000 OA
ATOM      3  O   UNL     1     -23.845   3.819   6.359  0.00  0.00    +0.000 OA
ATOM      4  O   UNL     1     -20.355  -4.205   7.546  0.00  0.00    +0.000 OA
ATOM      5  O   UNL     1     -28.450   1.815   5.649  0.00  0.00    +0.000 OA
ATOM      6  O   UNL     1     -24.644  -1.794  -4.330  0.00  0.00    +0.000 OA
ATOM      7  O   UNL     1     -24.249  -7.102   4.801  0.00  0.00    +0.000 OA
ATOM      8  O   UNL     1     -20.900  -3.620  -1.701  0.00  0.00    +0.000 OA
ATOM      9  O   UNL     1     -27.368   1.713  -2.391  0.00  0.00    +0.000 OA
ATOM     10  O   UNL     1     -21.786  -6.409   1.181  0.00  0.00    +0.000 OA
ATOM     11  O   UNL     1     -28.893   0.636   1.497  0.00  0.00    +0.000 OA
ATOM     12  N   UNL     1     -25.486   0.025   8.716  0.00  0.00    +0.000 NA
ATOM     13  N   UNL     1     -23.371  -1.995   7.678  0.00  0.00    +0.000 NA
ATOM     14  N   UNL     1     -25.191   3.045   7.595  0.00  0.00    +0.000 NA
ATOM     15  N   UNL     1     -26.482   3.201   4.693  0.00  0.00    +0.000 NA
ATOM     16  N   UNL     1     -22.115  -4.145   5.858  0.00  0.00    +0.000 NA
ATOM     17  N   UNL     1     -23.987  -0.012  -2.938  0.00  0.00    +0.000 N 
ATOM     18  N   UNL     1     -22.844  -2.383  -1.295  0.00  0.00    +0.000 N 
ATOM     19  N   UNL     1     -22.413  -4.721   0.375  0.00  0.00    +0.000 NA
ATOM     20  N   UNL     1     -24.065  -5.109   3.718  0.00  0.00    +0.000 NA
ATOM     21  N   UNL     1     -26.729   1.052   2.639  0.00  0.00    +0.000 NA
ATOM     22  N   UNL     1     -26.183   0.366  -0.775  0.00  0.00    +0.000 NA
ATOM     23  C   UNL     1     -25.715  -1.301   8.492  0.00  0.00    +0.000 C 
ATOM     24  C   UNL     1     -24.858   1.755   7.694  0.00  0.00    +0.000 C 
ATOM     25  C   UNL     1     -22.293  -2.807   7.969  0.00  0.00    +0.000 C 
ATOM     26  C   UNL     1     -26.732  -2.012   9.103  0.00  0.00    +0.000 C 
ATOM     27  C   UNL     1     -23.427   1.961   8.015  0.00  0.00    +0.000 C 
ATOM     28  C   UNL     1     -24.655  -2.139   8.213  0.00  0.00    +0.000 C 
ATOM     29  C   UNL     1     -25.946   1.275   8.342  0.00  0.00    +0.000 C 
ATOM     30  C   UNL     1     -26.264   3.632   5.905  0.00  0.00    +0.000 C 
ATOM     31  C   UNL     1     -25.011   3.252   6.287  0.00  0.00    +0.000 C 
ATOM     32  C   UNL     1     -21.468  -3.518   6.945  0.00  0.00    +0.000 C 
ATOM     33  C   UNL     1     -27.230  -1.017  10.000  0.00  0.00    +0.000 C 
ATOM     34  C   UNL     1     -26.239  -3.249   9.354  0.00  0.00    +0.000 C 
ATOM     35  C   UNL     1     -26.543   0.119   9.601  0.00  0.00    +0.000 C 
ATOM     36  C   UNL     1     -23.887   3.589   7.753  0.00  0.00    +0.000 C 
ATOM     37  C   UNL     1     -22.598  -5.478   5.851  0.00  0.00    +0.000 C 
ATOM     38  C   UNL     1     -23.470  -2.445  -2.513  0.00  0.00    +0.000 A 
ATOM     39  C   UNL     1     -27.209   2.144   5.043  0.00  0.00    +0.000 C 
ATOM     40  C   UNL     1     -25.201   0.721  -2.913  0.00  0.00    +0.000 C 
ATOM     41  C   UNL     1     -21.433  -3.797   0.225  0.00  0.00    +0.000 C 
ATOM     42  C   UNL     1     -27.203   4.466   4.400  0.00  0.00    +0.000 C 
ATOM     43  C   UNL     1     -23.753  -3.581  -3.332  0.00  0.00    +0.000 A 
ATOM     44  C   UNL     1     -25.014   1.627  -4.471  0.00  0.00    +0.000 C 
ATOM     45  C   UNL     1     -27.232   1.309   3.808  0.00  0.00    +0.000 C 
ATOM     46  C   UNL     1     -20.419  -4.471  -0.659  0.00  0.00    +0.000 C 
ATOM     47  C   UNL     1     -22.109  -6.267   6.935  0.00  0.00    +0.000 C 
ATOM     48  C   UNL     1     -24.020  -1.358  -3.186  0.00  0.00    +0.000 A 
ATOM     49  C   UNL     1     -23.510  -5.871   4.926  0.00  0.00    +0.000 C 
ATOM     50  C   UNL     1     -21.846  -3.157  -0.932  0.00  0.00    +0.000 C 
ATOM     51  C   UNL     1     -26.260   0.889  -2.052  0.00  0.00    +0.000 C 
ATOM     52  C   UNL     1     -23.051  -5.026   2.664  0.00  0.00    +0.000 C 
ATOM     53  C   UNL     1     -23.467  -5.035  -3.069  0.00  0.00    +0.000 C 
ATOM     54  C   UNL     1     -24.470  -3.141  -4.415  0.00  0.00    +0.000 A 
ATOM     55  C   UNL     1     -22.076  -5.131   1.638  0.00  0.00    +0.000 C 
ATOM     56  C   UNL     1     -27.102   0.459   0.130  0.00  0.00    +0.000 C 
ATOM     57  C   UNL     1     -28.338   1.149   4.598  0.00  0.00    +0.000 C 
ATOM     58  C   UNL     1     -24.030   0.777  -4.036  0.00  0.00    +0.000 C 
ATOM     59  C   UNL     1     -21.444  -6.224   7.931  0.00  0.00    +0.000 C 
ATOM     60  C   UNL     1     -27.454   0.719   1.582  0.00  0.00    +0.000 C 
ATOM     61  C   UNL     1     -21.671  -5.972  -0.210  0.00  0.00    +0.000 C 
ATOM     62  C   UNL     1     -24.564  -6.318   3.897  0.00  0.00    +0.000 C 
ATOM     63  C   UNL     1     -28.439   0.463   0.353  0.00  0.00    +0.000 C 
ATOM     64  H   UNL     1     -22.822  -3.535   5.446  0.00  0.00    +0.000 HD
ATOM     65  H   UNL     1     -23.329  -1.862  -0.568  0.00  0.00    +0.000 HD
ATOM     66  H   UNL     1     -25.775   1.361   2.467  0.00  0.00    +0.000 HD
ATOM     67  H   UNL     1     -25.217   0.232  -0.492  0.00  0.00    +0.000 HD
ATOM     68  C   UNL     1     -22.112  -3.344   9.144  0.00  0.00    +0.000 C 
ATOM     69  C   UNL     1     -21.410  -4.464   9.671  0.00  0.00    +0.000 C 
ATOM     70  C   UNL     1     -20.724  -5.158   8.562  0.00  0.00    +0.000 C 
ATOM     71  C   UNL     1     -22.464   2.303   9.339  0.00  0.00    +0.000 C 
ATOM     72  C   UNL     1     -21.244   1.826   9.579  0.00  0.00    +0.000 C 
ATOM     73  C   UNL     1     -22.969   3.449   8.717  0.00  0.00    +0.000 C 
ATOM     74  C   UNL     1     -26.850   4.962   5.693  0.00  0.00    +0.000 C 
ATOM     75  C   UNL     1     -28.076   5.388   5.199  0.00  0.00    +0.000 C 
ATOM     76  C   UNL     1     -28.327   6.868   4.839  0.00  0.00    +0.000 C 
ATOM     77  C   UNL     1     -28.571   4.548   4.220  0.00  0.00    +0.000 C 
ATOM     78  C   UNL     1     -19.180  -5.484  -0.656  0.00  0.00    +0.000 C 
ATOM     79  C   UNL     1     -18.093  -5.640  -1.408  0.00  0.00    +0.000 C 
ATOM     80  C   UNL     1     -20.346  -6.220  -0.437  0.00  0.00    +0.000 C 
ATOM     81  C   UNL     1     -26.120   2.361  -4.616  0.00  0.00    +0.000 C 
ATOM     82  C   UNL     1     -26.332   3.259  -5.790  0.00  0.00    +0.000 C 
ATOM     83  C   UNL     1     -27.070   2.258  -3.571  0.00  0.00    +0.000 C 
ENDROOT
BRANCH  69  84
ATOM     84  C   UNL     1     -21.639  -5.076  10.926  0.00  0.00    +0.000 C 
ATOM     85  C   UNL     1     -21.843  -5.595  11.990  0.00  0.00    +0.000 C 
BRANCH  85  86
ATOM     86  C   UNL     1     -22.106  -6.256  13.347  0.00  0.00    +0.000 C 
ATOM     87  C   UNL     1     -22.340  -6.831  14.525  0.00  0.00    +0.000 C 
ENDBRANCH  85  86
ENDBRANCH  69  84
BRANCH  13  88
ATOM     88  C   UNL     1     -23.237  -1.106   6.536  0.00  0.00    +0.000 C 
BRANCH  88  89
ATOM     89  O   UNL     1     -23.092  -0.289   5.501  0.00  0.00    +0.000 OA
ATOM     90  H   UNL     1     -22.166   0.005   5.437  0.00  0.00    +0.000 HD
ENDBRANCH  88  89
ENDBRANCH  13  88
TORSDOF 4
ENDMDL
MODEL 7
REMARK VINA RESULT:      -8.6      2.387     13.269
REMARK  Name = Cyclosporin_A.pdbqt.pdb
REMARK  4 active torsions:
REMARK  status: ('A' for Active; 'I' for Inactive)
REMARK    1  A    between atoms: N_13  and  C_36
REMARK    2  A    between atoms: C_36  and  O_70
REMARK    3  A    between atoms: C_72  and  C_73
REMARK    4  A    between atoms: C_75  and  C_76
REMARK                            x       y       z     vdW  Elec       q    Type
REMARK                         _______ _______ _______ _____ _____    ______ ____
ROOT
ATOM      1  O   UNL     1      -3.643  -6.078  32.383  0.00  0.00    +0.000 OA
ATOM      2  O   UNL     1       0.355  -3.913  30.009  0.00  0.00    +0.000 OA
ATOM      3  O   UNL     1      -0.532  -5.046  25.443  0.00  0.00    +0.000 OA
ATOM      4  O   UNL     1      -5.493 -10.240  30.578  0.00  0.00    +0.000 OA
ATOM      5  O   UNL     1      -1.912  -0.948  28.094  0.00  0.00    +0.000 OA
ATOM      6  O   UNL     1     -12.021  -1.974  23.209  0.00  0.00    +0.000 OA
ATOM      7  O   UNL     1      -9.035  -6.322  32.368  0.00  0.00    +0.000 OA
ATOM      8  O   UNL     1     -11.754  -6.647  24.744  0.00  0.00    +0.000 OA
ATOM      9  O   UNL     1      -7.938   0.616  22.891  0.00  0.00    +0.000 OA
ATOM     10  O   UNL     1     -11.458  -7.302  28.788  0.00  0.00    +0.000 OA
ATOM     11  O   UNL     1      -5.681   0.566  26.566  0.00  0.00    +0.000 OA
ATOM     12  N   UNL     1      -1.219  -5.032  30.151  0.00  0.00    +0.000 NA
ATOM     13  N   UNL     1      -3.572  -7.054  30.186  0.00  0.00    +0.000 NA
ATOM     14  N   UNL     1      -0.015  -4.350  27.228  0.00  0.00    +0.000 NA
ATOM     15  N   UNL     1      -1.878  -2.190  25.822  0.00  0.00    +0.000 NA
ATOM     16  N   UNL     1      -6.489  -8.056  30.147  0.00  0.00    +0.000 NA
ATOM     17  N   UNL     1      -9.871  -2.679  22.557  0.00  0.00    +0.000 N 
ATOM     18  N   UNL     1     -10.410  -4.733  24.819  0.00  0.00    +0.000 N 
ATOM     19  N   UNL     1     -10.831  -6.130  27.331  0.00  0.00    +0.000 NA
ATOM     20  N   UNL     1      -8.488  -5.752  30.234  0.00  0.00    +0.000 NA
ATOM     21  N   UNL     1      -4.801  -1.724  26.183  0.00  0.00    +0.000 NA
ATOM     22  N   UNL     1      -7.806  -1.267  24.397  0.00  0.00    +0.000 NA
ATOM     23  C   UNL     1      -2.257  -5.009  31.036  0.00  0.00    +0.000 C 
ATOM     24  C   UNL     1      -0.855  -4.944  28.081  0.00  0.00    +0.000 C 
ATOM     25  C   UNL     1      -4.029  -8.307  30.547  0.00  0.00    +0.000 C 
ATOM     26  C   UNL     1      -2.186  -4.404  32.278  0.00  0.00    +0.000 C 
ATOM     27  C   UNL     1      -0.636  -6.331  27.612  0.00  0.00    +0.000 C 
ATOM     28  C   UNL     1      -3.143  -6.066  31.077  0.00  0.00    +0.000 C 
ATOM     29  C   UNL     1      -0.592  -4.240  29.207  0.00  0.00    +0.000 C 
ATOM     30  C   UNL     1      -0.729  -2.697  26.174  0.00  0.00    +0.000 C 
ATOM     31  C   UNL     1      -0.843  -4.054  26.222  0.00  0.00    +0.000 C 
ATOM     32  C   UNL     1      -5.344  -8.881  30.130  0.00  0.00    +0.000 C 
ATOM     33  C   UNL     1      -0.806  -4.035  32.299  0.00  0.00    +0.000 C 
ATOM     34  C   UNL     1      -2.897  -5.185  33.127  0.00  0.00    +0.000 C 
ATOM     35  C   UNL     1      -0.398  -4.318  31.005  0.00  0.00    +0.000 C 
ATOM     36  C   UNL     1       0.329  -5.500  26.468  0.00  0.00    +0.000 C 
ATOM     37  C   UNL     1      -7.347  -7.869  31.260  0.00  0.00    +0.000 C 
ATOM     38  C   UNL     1     -11.269  -3.774  24.349  0.00  0.00    +0.000 A 
ATOM     39  C   UNL     1      -2.263  -1.838  27.045  0.00  0.00    +0.000 C 
ATOM     40  C   UNL     1      -9.223  -1.419  22.492  0.00  0.00    +0.000 C 
ATOM     41  C   UNL     1     -10.418  -6.808  26.233  0.00  0.00    +0.000 C 
ATOM     42  C   UNL     1      -1.154  -1.179  25.009  0.00  0.00    +0.000 C 
ATOM     43  C   UNL     1     -12.604  -3.472  24.758  0.00  0.00    +0.000 A 
ATOM     44  C   UNL     1      -9.760  -0.912  20.837  0.00  0.00    +0.000 C 
ATOM     45  C   UNL     1      -3.724  -1.583  26.893  0.00  0.00    +0.000 C 
ATOM     46  C   UNL     1     -11.627  -7.595  25.806  0.00  0.00    +0.000 C 
ATOM     47  C   UNL     1      -7.148  -8.826  32.300  0.00  0.00    +0.000 C 
ATOM     48  C   UNL     1     -10.961  -2.834  23.370  0.00  0.00    +0.000 A 
ATOM     49  C   UNL     1      -8.188  -6.805  31.306  0.00  0.00    +0.000 C 
ATOM     50  C   UNL     1     -10.779  -5.927  25.226  0.00  0.00    +0.000 C 
ATOM     51  C   UNL     1      -8.370  -0.682  23.279  0.00  0.00    +0.000 C 
ATOM     52  C   UNL     1      -9.306  -6.336  29.168  0.00  0.00    +0.000 C 
ATOM     53  C   UNL     1     -13.432  -4.108  25.842  0.00  0.00    +0.000 C 
ATOM     54  C   UNL     1     -13.016  -2.374  24.047  0.00  0.00    +0.000 A 
ATOM     55  C   UNL     1     -10.228  -6.930  28.267  0.00  0.00    +0.000 C 
ATOM     56  C   UNL     1      -6.986  -0.688  25.214  0.00  0.00    +0.000 C 
ATOM     57  C   UNL     1      -3.140  -0.845  27.886  0.00  0.00    +0.000 C 
ATOM     58  C   UNL     1     -10.128  -2.131  21.347  0.00  0.00    +0.000 C 
ATOM     59  C   UNL     1      -6.467  -9.754  32.634  0.00  0.00    +0.000 C 
ATOM     60  C   UNL     1      -5.717  -0.778  26.039  0.00  0.00    +0.000 C 
ATOM     61  C   UNL     1     -12.184  -6.876  27.593  0.00  0.00    +0.000 C 
ATOM     62  C   UNL     1      -9.125  -5.585  31.378  0.00  0.00    +0.000 C 
ATOM     63  C   UNL     1      -6.677   0.480  25.829  0.00  0.00    +0.000 C 
ATOM     64  H   UNL     1      -6.298  -7.149  29.721  0.00  0.00    +0.000 HD
ATOM     65  H   UNL     1      -9.476  -4.415  25.068  0.00  0.00    +0.000 HD
ATOM     66  H   UNL     1      -4.819  -2.491  25.515  0.00  0.00    +0.000 HD
ATOM     67  H   UNL     1      -7.796  -2.279  24.315  0.00  0.00    +0.000 HD
ATOM     68  C   UNL     1      -3.559  -8.958  31.576  0.00  0.00    +0.000 C 
ATOM     69  C   UNL     1      -4.013  -9.998  32.434  0.00  0.00    +0.000 C 
ATOM     70  C   UNL     1      -5.362 -10.414  32.003  0.00  0.00    +0.000 C 
ATOM     71  C   UNL     1       0.454  -7.582  27.826  0.00  0.00    +0.000 C 
ATOM     72  C   UNL     1       0.173  -8.883  27.868  0.00  0.00    +0.000 C 
ATOM     73  C   UNL     1       0.834  -6.689  26.820  0.00  0.00    +0.000 C 
ATOM     74  C   UNL     1       0.084  -1.823  25.316  0.00  0.00    +0.000 C 
ATOM     75  C   UNL     1       0.146  -0.446  25.158  0.00  0.00    +0.000 C 
ATOM     76  C   UNL     1       0.916   0.194  23.983  0.00  0.00    +0.000 C 
ATOM     77  C   UNL     1      -1.081   0.163  25.336  0.00  0.00    +0.000 C 
ATOM     78  C   UNL     1     -12.446  -8.943  26.077  0.00  0.00    +0.000 C 
ATOM     79  C   UNL     1     -13.215  -9.738  25.337  0.00  0.00    +0.000 C 
ATOM     80  C   UNL     1     -12.661  -8.078  27.151  0.00  0.00    +0.000 C 
ATOM     81  C   UNL     1      -9.248   0.303  20.630  0.00  0.00    +0.000 C 
ATOM     82  C   UNL     1      -9.468   1.054  19.358  0.00  0.00    +0.000 C 
ATOM     83  C   UNL     1      -8.457   0.827  21.681  0.00  0.00    +0.000 C 
ENDROOT
BRANCH  69  84
ATOM     84  C   UNL     1      -3.492 -10.310  33.712  0.00  0.00    +0.000 C 
ATOM     85  C   UNL     1      -3.054 -10.581  34.797  0.00  0.00    +0.000 C 
BRANCH  85  86
ATOM     86  C   UNL     1      -2.499 -10.930  36.182  0.00  0.00    +0.000 C 
ATOM     87  C   UNL     1      -2.018 -11.228  37.388  0.00  0.00    +0.000 C 
ENDBRANCH  85  86
ENDBRANCH  69  84
BRANCH  13  88
ATOM     88  C   UNL     1      -3.813  -6.636  28.815  0.00  0.00    +0.000 C 
BRANCH  88  89
ATOM     89  O   UNL     1      -4.057  -6.258  27.567  0.00  0.00    +0.000 OA
ATOM     90  H   UNL     1      -3.743  -5.347  27.428  0.00  0.00    +0.000 HD
ENDBRANCH  88  89
ENDBRANCH  13  88
TORSDOF 4
ENDMDL
MODEL 8
REMARK VINA RESULT:      -8.4     20.676     28.515
REMARK  Name = Cyclosporin_A.pdbqt.pdb
REMARK  4 active torsions:
REMARK  status: ('A' for Active; 'I' for Inactive)
REMARK    1  A    between atoms: N_13  and  C_36
REMARK    2  A    between atoms: C_36  and  O_70
REMARK    3  A    between atoms: C_72  and  C_73
REMARK    4  A    between atoms: C_75  and  C_76
REMARK                            x       y       z     vdW  Elec       q    Type
REMARK                         _______ _______ _______ _____ _____    ______ ____
ROOT
ATOM      1  O   UNL     1     -25.715  -3.800  10.708  0.00  0.00    +0.000 OA
ATOM      2  O   UNL     1     -26.270   1.231  11.541  0.00  0.00    +0.000 OA
ATOM      3  O   UNL     1     -23.089   3.054   8.464  0.00  0.00    +0.000 OA
ATOM      4  O   UNL     1     -21.284  -5.525   9.523  0.00  0.00    +0.000 OA
ATOM      5  O   UNL     1     -28.014   2.034   7.812  0.00  0.00    +0.000 OA
ATOM      6  O   UNL     1     -25.164  -2.154  -2.260  0.00  0.00    +0.000 OA
ATOM      7  O   UNL     1     -25.724  -7.539   6.817  0.00  0.00    +0.000 OA
ATOM      8  O   UNL     1     -21.831  -4.733   0.292  0.00  0.00    +0.000 OA
ATOM      9  O   UNL     1     -27.091   1.810  -0.246  0.00  0.00    +0.000 OA
ATOM     10  O   UNL     1     -23.224  -7.317   3.164  0.00  0.00    +0.000 OA
ATOM     11  O   UNL     1     -28.747   1.018   3.657  0.00  0.00    +0.000 OA
ATOM     12  N   UNL     1     -25.432  -0.356  10.814  0.00  0.00    +0.000 NA
ATOM     13  N   UNL     1     -23.787  -2.751   9.724  0.00  0.00    +0.000 NA
ATOM     14  N   UNL     1     -24.546   2.554   9.715  0.00  0.00    +0.000 NA
ATOM     15  N   UNL     1     -25.820   3.003   6.836  0.00  0.00    +0.000 NA
ATOM     16  N   UNL     1     -23.019  -5.089   7.865  0.00  0.00    +0.000 NA
ATOM     17  N   UNL     1     -24.140  -0.559  -0.863  0.00  0.00    +0.000 N 
ATOM     18  N   UNL     1     -23.478  -3.132   0.741  0.00  0.00    +0.000 N 
ATOM     19  N   UNL     1     -23.506  -5.528   2.382  0.00  0.00    +0.000 NA
ATOM     20  N   UNL     1     -25.155  -5.613   5.749  0.00  0.00    +0.000 NA
ATOM     21  N   UNL     1     -26.527   0.974   4.768  0.00  0.00    +0.000 NA
ATOM     22  N   UNL     1     -26.181   0.231   1.339  0.00  0.00    +0.000 NA
ATOM     23  C   UNL     1     -25.928  -1.605  10.582  0.00  0.00    +0.000 C 
ATOM     24  C   UNL     1     -24.481   1.222   9.797  0.00  0.00    +0.000 C 
ATOM     25  C   UNL     1     -22.891  -3.768   9.990  0.00  0.00    +0.000 C 
ATOM     26  C   UNL     1     -27.060  -2.102  11.204  0.00  0.00    +0.000 C 
ATOM     27  C   UNL     1     -23.033   1.130  10.096  0.00  0.00    +0.000 C 
ATOM     28  C   UNL     1     -25.066  -2.638  10.279  0.00  0.00    +0.000 C 
ATOM     29  C   UNL     1     -25.634   0.966  10.459  0.00  0.00    +0.000 C 
ATOM     30  C   UNL     1     -25.501   3.366   8.047  0.00  0.00    +0.000 C 
ATOM     31  C   UNL     1     -24.347   2.736   8.406  0.00  0.00    +0.000 C 
ATOM     32  C   UNL     1     -22.244  -4.620   8.947  0.00  0.00    +0.000 C 
ATOM     33  C   UNL     1     -27.333  -1.038  12.118  0.00  0.00    +0.000 C 
ATOM     34  C   UNL     1     -26.825  -3.417  11.436  0.00  0.00    +0.000 C 
ATOM     35  C   UNL     1     -26.435  -0.060  11.717  0.00  0.00    +0.000 C 
ATOM     36  C   UNL     1     -23.157   2.821   9.856  0.00  0.00    +0.000 C 
ATOM     37  C   UNL     1     -23.763  -6.296   7.854  0.00  0.00    +0.000 C 
ATOM     38  C   UNL     1     -24.121  -3.051  -0.468  0.00  0.00    +0.000 A 
ATOM     39  C   UNL     1     -26.741   2.111   7.189  0.00  0.00    +0.000 C 
ATOM     40  C   UNL     1     -25.178   0.405  -0.811  0.00  0.00    +0.000 C 
ATOM     41  C   UNL     1     -22.362  -4.821   2.225  0.00  0.00    +0.000 C 
ATOM     42  C   UNL     1     -26.273   4.392   6.566  0.00  0.00    +0.000 C 
ATOM     43  C   UNL     1     -24.641  -4.096  -1.291  0.00  0.00    +0.000 A 
ATOM     44  C   UNL     1     -24.834   1.273  -2.365  0.00  0.00    +0.000 C 
ATOM     45  C   UNL     1     -26.951   1.313   5.946  0.00  0.00    +0.000 C 
ATOM     46  C   UNL     1     -21.519  -5.676   1.318  0.00  0.00    +0.000 C 
ATOM     47  C   UNL     1     -23.429  -7.181   8.923  0.00  0.00    +0.000 C 
ATOM     48  C   UNL     1     -24.448  -1.868  -1.122  0.00  0.00    +0.000 A 
ATOM     49  C   UNL     1     -24.749  -6.486   6.941  0.00  0.00    +0.000 C 
ATOM     50  C   UNL     1     -22.653  -4.096   1.080  0.00  0.00    +0.000 C 
ATOM     51  C   UNL     1     -26.169   0.774   0.068  0.00  0.00    +0.000 C 
ATOM     52  C   UNL     1     -24.160  -5.724   4.679  0.00  0.00    +0.000 C 
ATOM     53  C   UNL     1     -24.652  -5.581  -1.046  0.00  0.00    +0.000 C 
ATOM     54  C   UNL     1     -25.268  -3.507  -2.359  0.00  0.00    +0.000 A 
ATOM     55  C   UNL     1     -23.242  -6.013   3.637  0.00  0.00    +0.000 C 
ATOM     56  C   UNL     1     -27.050   0.498   2.260  0.00  0.00    +0.000 C 
ATOM     57  C   UNL     1     -28.055   1.371   6.753  0.00  0.00    +0.000 C 
ATOM     58  C   UNL     1     -24.037   0.235  -1.954  0.00  0.00    +0.000 C 
ATOM     59  C   UNL     1     -22.755  -7.285   9.909  0.00  0.00    +0.000 C 
ATOM     60  C   UNL     1     -27.320   0.807   3.720  0.00  0.00    +0.000 C 
ATOM     61  C   UNL     1     -23.042  -6.896   1.775  0.00  0.00    +0.000 C 
ATOM     62  C   UNL     1     -25.887  -6.697   5.926  0.00  0.00    +0.000 C 
ATOM     63  C   UNL     1     -28.355   0.771   2.505  0.00  0.00    +0.000 C 
ATOM     64  H   UNL     1     -23.594  -4.344   7.470  0.00  0.00    +0.000 HD
ATOM     65  H   UNL     1     -23.837  -2.532   1.480  0.00  0.00    +0.000 HD
ATOM     66  H   UNL     1     -25.534   1.085   4.583  0.00  0.00    +0.000 HD
ATOM     67  H   UNL     1     -25.259  -0.099   1.605  0.00  0.00    +0.000 HD
ATOM     68  C   UNL     1     -22.806  -4.345  11.157  0.00  0.00    +0.000 C 
ATOM     69  C   UNL     1     -22.339  -5.590  11.663  0.00  0.00    +0.000 C 
ATOM     70  C   UNL     1     -21.824  -6.395  10.537  0.00  0.00    +0.000 C 
ATOM     71  C   UNL     1     -22.002   1.254  11.407  0.00  0.00    +0.000 C 
ATOM     72  C   UNL     1     -20.900   0.537  11.622  0.00  0.00    +0.000 C 
ATOM     73  C   UNL     1     -22.272   2.486  10.803  0.00  0.00    +0.000 C 
ATOM     74  C   UNL     1     -25.809   4.791   7.857  0.00  0.00    +0.000 C 
ATOM     75  C   UNL     1     -26.929   5.462   7.387  0.00  0.00    +0.000 C 
ATOM     76  C   UNL     1     -26.880   6.966   7.043  0.00  0.00    +0.000 C 
ATOM     77  C   UNL     1     -27.599   4.752   6.409  0.00  0.00    +0.000 C 
ATOM     78  C   UNL     1     -20.511  -6.919   1.292  0.00  0.00    +0.000 C 
ATOM     79  C   UNL     1     -19.490  -7.283   0.521  0.00  0.00    +0.000 C 
ATOM     80  C   UNL     1     -21.799  -7.405   1.524  0.00  0.00    +0.000 C 
ATOM     81  C   UNL     1     -25.770   2.217  -2.485  0.00  0.00    +0.000 C 
ATOM     82  C   UNL     1     -25.811   3.153  -3.647  0.00  0.00    +0.000 C 
ATOM     83  C   UNL     1     -26.706   2.297  -1.425  0.00  0.00    +0.000 C 
ENDROOT
BRANCH  69  84
ATOM     84  C   UNL     1     -22.670  -6.157  12.916  0.00  0.00    +0.000 C 
ATOM     85  C   UNL     1     -22.959  -6.639  13.978  0.00  0.00    +0.000 C 
BRANCH  85  86
ATOM     86  C   UNL     1     -23.332  -7.253  15.331  0.00  0.00    +0.000 C 
ATOM     87  C   UNL     1     -23.652  -7.784  16.510  0.00  0.00    +0.000 C 
ENDBRANCH  85  86
ENDBRANCH  69  84
BRANCH  13  88
ATOM     88  C   UNL     1     -23.491  -1.894   8.587  0.00  0.00    +0.000 C 
BRANCH  88  89
ATOM     89  O   UNL     1     -23.207  -1.130   7.541  0.00  0.00    +0.000 OA
ATOM     90  H   UNL     1     -23.623  -1.495   6.740  0.00  0.00    +0.000 HD
ENDBRANCH  88  89
ENDBRANCH  13  88
TORSDOF 4
ENDMDL
MODEL 9
REMARK VINA RESULT:      -8.4      2.826      5.499
REMARK  Name = Cyclosporin_A.pdbqt.pdb
REMARK  4 active torsions:
REMARK  status: ('A' for Active; 'I' for Inactive)
REMARK    1  A    between atoms: N_13  and  C_36
REMARK    2  A    between atoms: C_36  and  O_70
REMARK    3  A    between atoms: C_72  and  C_73
REMARK    4  A    between atoms: C_75  and  C_76
REMARK                            x       y       z     vdW  Elec       q    Type
REMARK                         _______ _______ _______ _____ _____    ______ ____
ROOT
ATOM      1  O   UNL     1     -11.508  -0.895  27.729  0.00  0.00    +0.000 OA
ATOM      2  O   UNL     1     -12.005  -5.720  29.400  0.00  0.00    +0.000 OA
ATOM      3  O   UNL     1      -9.243  -8.086  26.286  0.00  0.00    +0.000 OA
ATOM      4  O   UNL     1     -10.959  -0.103  22.925  0.00  0.00    +0.000 OA
ATOM      5  O   UNL     1      -8.055  -6.044  30.775  0.00  0.00    +0.000 OA
ATOM      6  O   UNL     1       1.366  -2.282  25.857  0.00  0.00    +0.000 OA
ATOM      7  O   UNL     1      -7.845   2.863  26.474  0.00  0.00    +0.000 OA
ATOM      8  O   UNL     1      -1.700  -0.523  22.426  0.00  0.00    +0.000 OA
ATOM      9  O   UNL     1      -0.190  -5.808  28.794  0.00  0.00    +0.000 OA
ATOM     10  O   UNL     1      -4.514   2.220  23.622  0.00  0.00    +0.000 OA
ATOM     11  O   UNL     1      -3.901  -4.790  30.743  0.00  0.00    +0.000 OA
ATOM     12  N   UNL     1     -11.467  -4.324  28.169  0.00  0.00    +0.000 NA
ATOM     13  N   UNL     1     -10.711  -2.298  25.944  0.00  0.00    +0.000 NA
ATOM     14  N   UNL     1     -10.333  -7.325  27.760  0.00  0.00    +0.000 NA
ATOM     15  N   UNL     1      -7.302  -7.423  28.717  0.00  0.00    +0.000 NA
ATOM     16  N   UNL     1      -9.083  -0.123  24.483  0.00  0.00    +0.000 NA
ATOM     17  N   UNL     1      -0.058  -4.092  25.367  0.00  0.00    +0.000 N 
ATOM     18  N   UNL     1      -1.863  -1.756  24.408  0.00  0.00    +0.000 N 
ATOM     19  N   UNL     1      -3.612   0.550  24.159  0.00  0.00    +0.000 NA
ATOM     20  N   UNL     1      -6.755   0.889  26.176  0.00  0.00    +0.000 NA
ATOM     21  N   UNL     1      -5.272  -5.238  28.723  0.00  0.00    +0.000 NA
ATOM     22  N   UNL     1      -1.954  -4.496  27.794  0.00  0.00    +0.000 NA
ATOM     23  C   UNL     1     -11.243  -2.993  28.367  0.00  0.00    +0.000 C 
ATOM     24  C   UNL     1     -10.492  -6.039  27.436  0.00  0.00    +0.000 C 
ATOM     25  C   UNL     1     -11.135  -1.497  24.902  0.00  0.00    +0.000 C 
ATOM     26  C   UNL     1     -11.748  -2.288  29.443  0.00  0.00    +0.000 C 
ATOM     27  C   UNL     1     -10.968  -6.259  26.051  0.00  0.00    +0.000 C 
ATOM     28  C   UNL     1     -11.100  -2.156  27.280  0.00  0.00    +0.000 C 
ATOM     29  C   UNL     1     -11.022  -5.565  28.588  0.00  0.00    +0.000 C 
ATOM     30  C   UNL     1      -8.522  -7.877  28.638  0.00  0.00    +0.000 C 
ATOM     31  C   UNL     1      -9.050  -7.511  27.435  0.00  0.00    +0.000 C 
ATOM     32  C   UNL     1     -10.224  -0.772  23.965  0.00  0.00    +0.000 C 
ATOM     33  C   UNL     1     -12.566  -3.295  30.043  0.00  0.00    +0.000 C 
ATOM     34  C   UNL     1     -12.076  -1.058  28.978  0.00  0.00    +0.000 C 
ATOM     35  C   UNL     1     -12.226  -4.428  29.320  0.00  0.00    +0.000 C 
ATOM     36  C   UNL     1     -10.627  -7.880  26.484  0.00  0.00    +0.000 C 
ATOM     37  C   UNL     1      -9.045   1.212  24.958  0.00  0.00    +0.000 C 
ATOM     38  C   UNL     1      -0.583  -1.669  24.893  0.00  0.00    +0.000 A 
ATOM     39  C   UNL     1      -7.587  -6.369  29.474  0.00  0.00    +0.000 C 
ATOM     40  C   UNL     1       0.066  -4.819  26.578  0.00  0.00    +0.000 C 
ATOM     41  C   UNL     1      -3.557  -0.376  23.172  0.00  0.00    +0.000 C 
ATOM     42  C   UNL     1      -6.907  -8.680  29.404  0.00  0.00    +0.000 C 
ATOM     43  C   UNL     1       0.242  -0.518  25.078  0.00  0.00    +0.000 A 
ATOM     44  C   UNL     1       1.609  -5.698  26.220  0.00  0.00    +0.000 C 
ATOM     45  C   UNL     1      -6.371  -5.513  29.355  0.00  0.00    +0.000 C 
ATOM     46  C   UNL     1      -2.805   0.308  22.063  0.00  0.00    +0.000 C 
ATOM     47  C   UNL     1     -10.191   1.979  24.591  0.00  0.00    +0.000 C 
ATOM     48  C   UNL     1       0.167  -2.741  25.367  0.00  0.00    +0.000 A 
ATOM     49  C   UNL     1      -8.031   1.627  25.758  0.00  0.00    +0.000 C 
ATOM     50  C   UNL     1      -2.349  -0.994  23.455  0.00  0.00    +0.000 C 
ATOM     51  C   UNL     1      -0.667  -4.996  27.728  0.00  0.00    +0.000 C 
ATOM     52  C   UNL     1      -5.820   0.818  25.050  0.00  0.00    +0.000 C 
ATOM     53  C   UNL     1      -0.077   0.930  24.818  0.00  0.00    +0.000 C 
ATOM     54  C   UNL     1       1.407  -0.935  25.669  0.00  0.00    +0.000 A 
ATOM     55  C   UNL     1      -4.912   0.936  23.965  0.00  0.00    +0.000 C 
ATOM     56  C   UNL     1      -2.748  -4.599  28.810  0.00  0.00    +0.000 C 
ATOM     57  C   UNL     1      -7.035  -5.360  30.542  0.00  0.00    +0.000 C 
ATOM     58  C   UNL     1       1.051  -4.861  25.288  0.00  0.00    +0.000 C 
ATOM     59  C   UNL     1     -11.255   1.915  24.043  0.00  0.00    +0.000 C 
ATOM     60  C   UNL     1      -4.146  -4.882  29.323  0.00  0.00    +0.000 C 
ATOM     61  C   UNL     1      -3.137   1.807  23.352  0.00  0.00    +0.000 C 
ATOM     62  C   UNL     1      -6.897   2.097  26.688  0.00  0.00    +0.000 C 
ATOM     63  C   UNL     1      -2.819  -4.600  30.163  0.00  0.00    +0.000 C 
ATOM     64  H   UNL     1      -8.583  -0.722  25.142  0.00  0.00    +0.000 HD
ATOM     65  H   UNL     1      -2.521  -2.287  24.974  0.00  0.00    +0.000 HD
ATOM     66  H   UNL     1      -5.203  -5.549  27.757  0.00  0.00    +0.000 HD
ATOM     67  H   UNL     1      -2.346  -4.372  26.865  0.00  0.00    +0.000 HD
ATOM     68  C   UNL     1     -12.333  -0.981  24.853  0.00  0.00    +0.000 C 
ATOM     69  C   UNL     1     -12.956   0.126  24.211  0.00  0.00    +0.000 C 
ATOM     70  C   UNL     1     -11.944   0.834  23.402  0.00  0.00    +0.000 C 
ATOM     71  C   UNL     1     -12.386  -6.629  25.244  0.00  0.00    +0.000 C 
ATOM     72  C   UNL     1     -12.770  -6.163  24.057  0.00  0.00    +0.000 C 
ATOM     73  C   UNL     1     -11.690  -7.761  25.680  0.00  0.00    +0.000 C 
ATOM     74  C   UNL     1      -8.222  -9.200  29.201  0.00  0.00    +0.000 C 
ATOM     75  C   UNL     1      -7.586  -9.611  30.364  0.00  0.00    +0.000 C 
ATOM     76  C   UNL     1      -7.173 -11.082  30.579  0.00  0.00    +0.000 C 
ATOM     77  C   UNL     1      -6.573  -8.751  30.744  0.00  0.00    +0.000 C 
ATOM     78  C   UNL     1      -2.966   1.313  20.829  0.00  0.00    +0.000 C 
ATOM     79  C   UNL     1      -2.343   1.476  19.664  0.00  0.00    +0.000 C 
ATOM     80  C   UNL     1      -3.065   2.051  22.009  0.00  0.00    +0.000 C 
ATOM     81  C   UNL     1       1.891  -6.423  27.305  0.00  0.00    +0.000 C 
ATOM     82  C   UNL     1       3.097  -7.299  27.386  0.00  0.00    +0.000 C 
ATOM     83  C   UNL     1       0.958  -6.334  28.367  0.00  0.00    +0.000 C 
ENDROOT
BRANCH  69  84
ATOM     84  C   UNL     1     -14.188   0.716  24.579  0.00  0.00    +0.000 C 
ATOM     85  C   UNL     1     -15.236   1.217  24.883  0.00  0.00    +0.000 C 
BRANCH  85  86
ATOM     86  C   UNL     1     -16.575   1.856  25.266  0.00  0.00    +0.000 C 
ATOM     87  C   UNL     1     -17.736   2.416  25.601  0.00  0.00    +0.000 C 
ENDBRANCH  85  86
ENDBRANCH  69  84
BRANCH  13  88
ATOM     88  C   UNL     1      -9.575  -3.168  25.685  0.00  0.00    +0.000 C 
BRANCH  88  89
ATOM     89  O   UNL     1      -8.527  -3.942  25.439  0.00  0.00    +0.000 OA
ATOM     90  H   UNL     1      -8.405  -4.578  26.166  0.00  0.00    +0.000 HD
ENDBRANCH  88  89
ENDBRANCH  13  88
TORSDOF 4
ENDMDL
