MODEL 1
REMARK VINA RESULT:      -6.7      0.000      0.000
REMARK  Name = Danazol.pdbqt.pdb
REMARK  2 active torsions:
REMARK  status: ('A' for Active; 'I' for Inactive)
REMARK    1  A    between atoms: C_9  and  O_23
REMARK    2  A    between atoms: C_9  and  C_25
REMARK                            x       y       z     vdW  Elec       q    Type
REMARK                         _______ _______ _______ _____ _____    ______ ____
ROOT
ATOM      1  O   UNL     1     -10.752   4.960  19.713  0.00  0.00    +0.000 OA
ATOM      2  N   UNL     1     -10.224   4.923  18.405  0.00  0.00    +0.000 NA
ATOM      3  C   UNL     1     -10.353  -2.019  22.724  0.00  0.00    +0.000 C 
ATOM      4  C   UNL     1      -9.487  -3.125  21.922  0.00  0.00    +0.000 C 
ATOM      5  C   UNL     1     -10.091  -0.571  22.621  0.00  0.00    +0.000 C 
ATOM      6  C   UNL     1      -9.125   0.094  21.679  0.00  0.00    +0.000 C 
ATOM      7  C   UNL     1      -8.789   1.603  21.706  0.00  0.00    +0.000 C 
ATOM      8  C   UNL     1      -8.682  -2.354  20.963  0.00  0.00    +0.000 C 
ATOM      9  C   UNL     1     -10.618  -4.111  21.280  0.00  0.00    +0.000 C 
ATOM     10  C   UNL     1      -8.486  -0.863  20.843  0.00  0.00    +0.000 C 
ATOM     11  C   UNL     1     -11.666  -2.524  22.945  0.00  0.00    +0.000 C 
ATOM     12  C   UNL     1     -10.854   0.366  23.356  0.00  0.00    +0.000 C 
ATOM     13  C   UNL     1     -11.791  -3.764  22.110  0.00  0.00    +0.000 C 
ATOM     14  C   UNL     1      -9.929   2.560  22.441  0.00  0.00    +0.000 C 
ATOM     15  C   UNL     1      -8.567  -3.811  22.997  0.00  0.00    +0.000 C 
ATOM     16  C   UNL     1     -10.814   1.864  23.302  0.00  0.00    +0.000 C 
ATOM     17  C   UNL     1      -8.722   2.142  20.300  0.00  0.00    +0.000 C 
ATOM     18  C   UNL     1      -7.449   1.821  22.466  0.00  0.00    +0.000 C 
ATOM     19  C   UNL     1     -10.409   3.556  21.731  0.00  0.00    +0.000 C 
ATOM     20  C   UNL     1      -9.327   3.233  19.611  0.00  0.00    +0.000 A 
ATOM     21  C   UNL     1     -10.193   3.951  20.390  0.00  0.00    +0.000 A 
ATOM     22  C   UNL     1      -9.367   3.879  18.379  0.00  0.00    +0.000 A 
ENDROOT
BRANCH   9  23
ATOM     23  O   UNL     1     -10.345  -5.514  21.416  0.00  0.00    +0.000 OA
ATOM     24  H   UNL     1      -9.499  -5.694  20.969  0.00  0.00    +0.000 HD
ENDBRANCH   9  23
BRANCH   9  25
ATOM     25  C   UNL     1     -10.860  -3.793  19.851  0.00  0.00    +0.000 C 
ATOM     26  C   UNL     1     -11.030  -3.523  18.699  0.00  0.00    +0.000 C 
ENDBRANCH   9  25
TORSDOF 2
ENDMDL
MODEL 2
REMARK VINA RESULT:      -6.3     17.167     18.903
REMARK  Name = Danazol.pdbqt.pdb
REMARK  2 active torsions:
REMARK  status: ('A' for Active; 'I' for Inactive)
REMARK    1  A    between atoms: C_9  and  O_23
REMARK    2  A    between atoms: C_9  and  C_25
REMARK                            x       y       z     vdW  Elec       q    Type
REMARK                         _______ _______ _______ _____ _____    ______ ____
ROOT
ATOM      1  O   UNL     1       4.442  -4.234  16.811  0.00  0.00    +0.000 OA
ATOM      2  N   UNL     1       4.213  -3.391  15.703  0.00  0.00    +0.000 NA
ATOM      3  C   UNL     1       5.137 -11.401  14.342  0.00  0.00    +0.000 C 
ATOM      4  C   UNL     1       5.270 -11.626  12.746  0.00  0.00    +0.000 C 
ATOM      5  C   UNL     1       5.550 -10.151  15.010  0.00  0.00    +0.000 C 
ATOM      6  C   UNL     1       5.995  -8.885  14.331  0.00  0.00    +0.000 C 
ATOM      7  C   UNL     1       6.547  -7.649  15.079  0.00  0.00    +0.000 C 
ATOM      8  C   UNL     1       5.589 -10.298  12.201  0.00  0.00    +0.000 C 
ATOM      9  C   UNL     1       3.822 -12.247  12.321  0.00  0.00    +0.000 C 
ATOM     10  C   UNL     1       5.945  -9.019  12.916  0.00  0.00    +0.000 C 
ATOM     11  C   UNL     1       4.057 -12.186  14.836  0.00  0.00    +0.000 C 
ATOM     12  C   UNL     1       5.440  -9.999  16.411  0.00  0.00    +0.000 C 
ATOM     13  C   UNL     1       3.316 -12.694  13.635  0.00  0.00    +0.000 C 
ATOM     14  C   UNL     1       6.124  -7.556  16.682  0.00  0.00    +0.000 C 
ATOM     15  C   UNL     1       6.479 -12.613  12.552  0.00  0.00    +0.000 C 
ATOM     16  C   UNL     1       5.700  -8.783  17.250  0.00  0.00    +0.000 C 
ATOM     17  C   UNL     1       5.977  -6.388  14.485  0.00  0.00    +0.000 C 
ATOM     18  C   UNL     1       8.101  -7.659  15.017  0.00  0.00    +0.000 C 
ATOM     19  C   UNL     1       5.524  -6.452  17.070  0.00  0.00    +0.000 C 
ATOM     20  C   UNL     1       5.299  -5.247  15.004  0.00  0.00    +0.000 A 
ATOM     21  C   UNL     1       5.088  -5.313  16.354  0.00  0.00    +0.000 A 
ATOM     22  C   UNL     1       4.745  -4.025  14.636  0.00  0.00    +0.000 A 
ENDROOT
BRANCH   9  23
ATOM     23  O   UNL     1       3.885 -13.374  11.433  0.00  0.00    +0.000 OA
ATOM     24  H   UNL     1       2.987 -13.745  11.364  0.00  0.00    +0.000 HD
ENDBRANCH   9  23
BRANCH   9  25
ATOM     25  C   UNL     1       2.942 -11.207  11.733  0.00  0.00    +0.000 C 
ATOM     26  C   UNL     1       2.255 -10.358  11.247  0.00  0.00    +0.000 C 
ENDBRANCH   9  25
TORSDOF 2
ENDMDL
MODEL 3
REMARK VINA RESULT:      -6.1     19.369     22.117
REMARK  Name = Danazol.pdbqt.pdb
REMARK  2 active torsions:
REMARK  status: ('A' for Active; 'I' for Inactive)
REMARK    1  A    between atoms: C_9  and  O_23
REMARK    2  A    between atoms: C_9  and  C_25
REMARK                            x       y       z     vdW  Elec       q    Type
REMARK                         _______ _______ _______ _____ _____    ______ ____
ROOT
ATOM      1  O   UNL     1      -4.433  -6.089  -2.859  0.00  0.00    +0.000 OA
ATOM      2  N   UNL     1      -5.595  -5.383  -3.237  0.00  0.00    +0.000 NA
ATOM      3  C   UNL     1      -1.367  -2.686   3.221  0.00  0.00    +0.000 C 
ATOM      4  C   UNL     1      -2.249  -1.549   3.958  0.00  0.00    +0.000 C 
ATOM      5  C   UNL     1      -1.969  -3.786   2.444  0.00  0.00    +0.000 C 
ATOM      6  C   UNL     1      -3.426  -3.935   2.095  0.00  0.00    +0.000 C 
ATOM      7  C   UNL     1      -4.025  -5.178   1.395  0.00  0.00    +0.000 C 
ATOM      8  C   UNL     1      -3.614  -1.733   3.442  0.00  0.00    +0.000 C 
ATOM      9  C   UNL     1      -1.508  -0.155   3.544  0.00  0.00    +0.000 C 
ATOM     10  C   UNL     1      -4.185  -2.841   2.592  0.00  0.00    +0.000 C 
ATOM     11  C   UNL     1      -0.097  -2.142   2.878  0.00  0.00    +0.000 C 
ATOM     12  C   UNL     1      -1.167  -4.776   1.831  0.00  0.00    +0.000 C 
ATOM     13  C   UNL     1      -0.193  -0.662   3.099  0.00  0.00    +0.000 C 
ATOM     14  C   UNL     1      -2.933  -6.099   0.552  0.00  0.00    +0.000 C 
ATOM     15  C   UNL     1      -2.183  -1.884   5.493  0.00  0.00    +0.000 C 
ATOM     16  C   UNL     1      -1.581  -5.894   0.922  0.00  0.00    +0.000 C 
ATOM     17  C   UNL     1      -5.018  -4.749   0.347  0.00  0.00    +0.000 C 
ATOM     18  C   UNL     1      -4.680  -6.104   2.459  0.00  0.00    +0.000 C 
ATOM     19  C   UNL     1      -3.203  -6.320  -0.716  0.00  0.00    +0.000 C 
ATOM     20  C   UNL     1      -5.201  -5.028  -1.039  0.00  0.00    +0.000 A 
ATOM     21  C   UNL     1      -4.242  -5.855  -1.555  0.00  0.00    +0.000 A 
ATOM     22  C   UNL     1      -6.035  -4.763  -2.122  0.00  0.00    +0.000 A 
ENDROOT
BRANCH   9  23
ATOM     23  O   UNL     1      -1.315   0.771   4.624  0.00  0.00    +0.000 OA
ATOM     24  H   UNL     1      -1.096   0.255   5.419  0.00  0.00    +0.000 HD
ENDBRANCH   9  23
BRANCH   9  25
ATOM     25  C   UNL     1      -2.223   0.525   2.435  0.00  0.00    +0.000 C 
ATOM     26  C   UNL     1      -2.775   1.076   1.530  0.00  0.00    +0.000 C 
ENDBRANCH   9  25
TORSDOF 2
ENDMDL
MODEL 4
REMARK VINA RESULT:      -6.0     15.982     19.407
REMARK  Name = Danazol.pdbqt.pdb
REMARK  2 active torsions:
REMARK  status: ('A' for Active; 'I' for Inactive)
REMARK    1  A    between atoms: C_9  and  O_23
REMARK    2  A    between atoms: C_9  and  C_25
REMARK                            x       y       z     vdW  Elec       q    Type
REMARK                         _______ _______ _______ _____ _____    ______ ____
ROOT
ATOM      1  O   UNL     1     -23.144  -6.926  13.540  0.00  0.00    +0.000 OA
ATOM      2  N   UNL     1     -21.870  -6.671  14.088  0.00  0.00    +0.000 NA
ATOM      3  C   UNL     1     -24.099  -2.529   7.400  0.00  0.00    +0.000 C 
ATOM      4  C   UNL     1     -22.800  -1.745   6.839  0.00  0.00    +0.000 C 
ATOM      5  C   UNL     1     -24.005  -3.788   8.164  0.00  0.00    +0.000 C 
ATOM      6  C   UNL     1     -22.740  -4.436   8.658  0.00  0.00    +0.000 C 
ATOM      7  C   UNL     1     -22.687  -5.826   9.335  0.00  0.00    +0.000 C 
ATOM      8  C   UNL     1     -21.654  -2.399   7.488  0.00  0.00    +0.000 C 
ATOM      9  C   UNL     1     -23.073  -0.192   7.262  0.00  0.00    +0.000 C 
ATOM     10  C   UNL     1     -21.601  -3.656   8.319  0.00  0.00    +0.000 C 
ATOM     11  C   UNL     1     -25.144  -1.591   7.638  0.00  0.00    +0.000 C 
ATOM     12  C   UNL     1     -25.164  -4.458   8.619  0.00  0.00    +0.000 C 
ATOM     13  C   UNL     1     -24.527  -0.229   7.526  0.00  0.00    +0.000 C 
ATOM     14  C   UNL     1     -24.123  -6.337   9.993  0.00  0.00    +0.000 C 
ATOM     15  C   UNL     1     -22.783  -1.999   5.288  0.00  0.00    +0.000 C 
ATOM     16  C   UNL     1     -25.269  -5.672   9.492  0.00  0.00    +0.000 C 
ATOM     17  C   UNL     1     -21.747  -5.789  10.512  0.00  0.00    +0.000 C 
ATOM     18  C   UNL     1     -22.256  -6.893   8.291  0.00  0.00    +0.000 C 
ATOM     19  C   UNL     1     -24.103  -6.669  11.265  0.00  0.00    +0.000 C 
ATOM     20  C   UNL     1     -21.843  -6.148  11.888  0.00  0.00    +0.000 A 
ATOM     21  C   UNL     1     -23.082  -6.608  12.241  0.00  0.00    +0.000 A 
ATOM     22  C   UNL     1     -21.111  -6.212  13.070  0.00  0.00    +0.000 A 
ENDROOT
BRANCH   9  23
ATOM     23  O   UNL     1     -22.807   0.771   6.230  0.00  0.00    +0.000 OA
ATOM     24  H   UNL     1     -23.090   0.382   5.384  0.00  0.00    +0.000 HD
ENDBRANCH   9  23
BRANCH   9  25
ATOM     25  C   UNL     1     -22.315   0.174   8.484  0.00  0.00    +0.000 C 
ATOM     26  C   UNL     1     -21.726   0.483   9.477  0.00  0.00    +0.000 C 
ENDBRANCH   9  25
TORSDOF 2
ENDMDL
MODEL 5
REMARK VINA RESULT:      -5.7      3.626      5.154
REMARK  Name = Danazol.pdbqt.pdb
REMARK  2 active torsions:
REMARK  status: ('A' for Active; 'I' for Inactive)
REMARK    1  A    between atoms: C_9  and  O_23
REMARK    2  A    between atoms: C_9  and  C_25
REMARK                            x       y       z     vdW  Elec       q    Type
REMARK                         _______ _______ _______ _____ _____    ______ ____
ROOT
ATOM      1  O   UNL     1      -5.707   1.021  27.247  0.00  0.00    +0.000 OA
ATOM      2  N   UNL     1      -6.777   1.688  27.881  0.00  0.00    +0.000 NA
ATOM      3  C   UNL     1      -8.385  -2.689  21.164  0.00  0.00    +0.000 C 
ATOM      4  C   UNL     1      -9.901  -2.365  20.705  0.00  0.00    +0.000 C 
ATOM      5  C   UNL     1      -7.549  -1.723  21.903  0.00  0.00    +0.000 C 
ATOM      6  C   UNL     1      -8.001  -0.401  22.461  0.00  0.00    +0.000 C 
ATOM      7  C   UNL     1      -7.052   0.636  23.108  0.00  0.00    +0.000 C 
ATOM      8  C   UNL     1     -10.253  -1.122  21.409  0.00  0.00    +0.000 C 
ATOM      9  C   UNL     1     -10.733  -3.699  21.146  0.00  0.00    +0.000 C 
ATOM     10  C   UNL     1      -9.385  -0.188  22.213  0.00  0.00    +0.000 C 
ATOM     11  C   UNL     1      -8.245  -4.093  21.357  0.00  0.00    +0.000 C 
ATOM     12  C   UNL     1      -6.219  -2.033  22.267  0.00  0.00    +0.000 C 
ATOM     13  C   UNL     1      -9.630  -4.668  21.316  0.00  0.00    +0.000 C 
ATOM     14  C   UNL     1      -5.614   0.017  23.660  0.00  0.00    +0.000 C 
ATOM     15  C   UNL     1      -9.838  -2.127  19.152  0.00  0.00    +0.000 C 
ATOM     16  C   UNL     1      -5.261  -1.237  23.104  0.00  0.00    +0.000 C 
ATOM     17  C   UNL     1      -7.689   1.218  24.342  0.00  0.00    +0.000 C 
ATOM     18  C   UNL     1      -6.705   1.739  22.067  0.00  0.00    +0.000 C 
ATOM     19  C   UNL     1      -5.324   0.240  24.923  0.00  0.00    +0.000 C 
ATOM     20  C   UNL     1      -7.290   1.380  25.700  0.00  0.00    +0.000 A 
ATOM     21  C   UNL     1      -6.050   0.865  25.963  0.00  0.00    +0.000 A 
ATOM     22  C   UNL     1      -7.707   1.894  26.924  0.00  0.00    +0.000 A 
ENDROOT
BRANCH   9  23
ATOM     23  O   UNL     1     -11.647  -4.196  20.156  0.00  0.00    +0.000 OA
ATOM     24  H   UNL     1     -11.182  -4.198  19.301  0.00  0.00    +0.000 HD
ENDBRANCH   9  23
BRANCH   9  25
ATOM     25  C   UNL     1     -11.459  -3.483  22.422  0.00  0.00    +0.000 C 
ATOM     26  C   UNL     1     -12.039  -3.335  23.456  0.00  0.00    +0.000 C 
ENDBRANCH   9  25
TORSDOF 2
ENDMDL
MODEL 6
REMARK VINA RESULT:      -5.6     17.005     19.955
REMARK  Name = Danazol.pdbqt.pdb
REMARK  2 active torsions:
REMARK  status: ('A' for Active; 'I' for Inactive)
REMARK    1  A    between atoms: C_9  and  O_23
REMARK    2  A    between atoms: C_9  and  C_25
REMARK                            x       y       z     vdW  Elec       q    Type
REMARK                         _______ _______ _______ _____ _____    ______ ____
ROOT
ATOM      1  O   UNL     1       2.233 -15.753  12.500  0.00  0.00    +0.000 OA
ATOM      2  N   UNL     1       1.785 -17.062  12.221  0.00  0.00    +0.000 NA
ATOM      3  C   UNL     1       0.888 -14.207  19.830  0.00  0.00    +0.000 C 
ATOM      4  C   UNL     1       0.440 -15.438  20.779  0.00  0.00    +0.000 C 
ATOM      5  C   UNL     1       1.698 -14.391  18.611  0.00  0.00    +0.000 C 
ATOM      6  C   UNL     1       2.088 -15.706  17.992  0.00  0.00    +0.000 C 
ATOM      7  C   UNL     1       3.053 -15.845  16.791  0.00  0.00    +0.000 C 
ATOM      8  C   UNL     1       0.768 -16.648  20.009  0.00  0.00    +0.000 C 
ATOM      9  C   UNL     1      -1.147 -15.165  21.043  0.00  0.00    +0.000 C 
ATOM     10  C   UNL     1       1.546 -16.796  18.726  0.00  0.00    +0.000 C 
ATOM     11  C   UNL     1      -0.075 -13.163  19.933  0.00  0.00    +0.000 C 
ATOM     12  C   UNL     1       2.091 -13.288  17.818  0.00  0.00    +0.000 C 
ATOM     13  C   UNL     1      -1.249 -13.738  20.670  0.00  0.00    +0.000 C 
ATOM     14  C   UNL     1       3.212 -14.479  15.861  0.00  0.00    +0.000 C 
ATOM     15  C   UNL     1       1.337 -15.336  22.066  0.00  0.00    +0.000 C 
ATOM     16  C   UNL     1       2.810 -13.281  16.502  0.00  0.00    +0.000 C 
ATOM     17  C   UNL     1       2.527 -16.876  15.826  0.00  0.00    +0.000 C 
ATOM     18  C   UNL     1       4.472 -16.215  17.307  0.00  0.00    +0.000 C 
ATOM     19  C   UNL     1       2.964 -14.608  14.576  0.00  0.00    +0.000 C 
ATOM     20  C   UNL     1       2.258 -16.899  14.426  0.00  0.00    +0.000 A 
ATOM     21  C   UNL     1       2.505 -15.704  13.809  0.00  0.00    +0.000 A 
ATOM     22  C   UNL     1       1.818 -17.726  13.396  0.00  0.00    +0.000 A 
ENDROOT
BRANCH   9  23
ATOM     23  O   UNL     1      -1.569 -15.325  22.406  0.00  0.00    +0.000 OA
ATOM     24  H   UNL     1      -2.541 -15.277  22.421  0.00  0.00    +0.000 HD
ENDBRANCH   9  23
BRANCH   9  25
ATOM     25  C   UNL     1      -1.992 -16.010  20.164  0.00  0.00    +0.000 C 
ATOM     26  C   UNL     1      -2.676 -16.709  19.476  0.00  0.00    +0.000 C 
ENDBRANCH   9  25
TORSDOF 2
ENDMDL
MODEL 7
REMARK VINA RESULT:      -5.5     16.793     20.037
REMARK  Name = Danazol.pdbqt.pdb
REMARK  2 active torsions:
REMARK  status: ('A' for Active; 'I' for Inactive)
REMARK    1  A    between atoms: C_9  and  O_23
REMARK    2  A    between atoms: C_9  and  C_25
REMARK                            x       y       z     vdW  Elec       q    Type
REMARK                         _______ _______ _______ _____ _____    ______ ____
ROOT
ATOM      1  O   UNL     1     -21.973  -6.763  13.162  0.00  0.00    +0.000 OA
ATOM      2  N   UNL     1     -23.282  -6.939  13.657  0.00  0.00    +0.000 NA
ATOM      3  C   UNL     1     -22.362  -4.927   5.785  0.00  0.00    +0.000 C 
ATOM      4  C   UNL     1     -23.820  -4.559   5.188  0.00  0.00    +0.000 C 
ATOM      5  C   UNL     1     -22.015  -4.752   7.209  0.00  0.00    +0.000 C 
ATOM      6  C   UNL     1     -22.960  -4.370   8.315  0.00  0.00    +0.000 C 
ATOM      7  C   UNL     1     -22.518  -4.068   9.766  0.00  0.00    +0.000 C 
ATOM      8  C   UNL     1     -24.666  -4.327   6.368  0.00  0.00    +0.000 C 
ATOM      9  C   UNL     1     -24.203  -5.857   4.276  0.00  0.00    +0.000 C 
ATOM     10  C   UNL     1     -24.286  -4.218   7.824  0.00  0.00    +0.000 C 
ATOM     11  C   UNL     1     -21.784  -5.964   5.000  0.00  0.00    +0.000 C 
ATOM     12  C   UNL     1     -20.722  -5.062   7.691  0.00  0.00    +0.000 C 
ATOM     13  C   UNL     1     -22.872  -6.477   4.105  0.00  0.00    +0.000 C 
ATOM     14  C   UNL     1     -21.047  -4.707  10.195  0.00  0.00    +0.000 C 
ATOM     15  C   UNL     1     -23.625  -3.230   4.371  0.00  0.00    +0.000 C 
ATOM     16  C   UNL     1     -20.217  -5.058   9.103  0.00  0.00    +0.000 C 
ATOM     17  C   UNL     1     -23.480  -4.697  10.740  0.00  0.00    +0.000 C 
ATOM     18  C   UNL     1     -22.425  -2.528   9.967  0.00  0.00    +0.000 C 
ATOM     19  C   UNL     1     -21.028  -5.475  11.262  0.00  0.00    +0.000 C 
ATOM     20  C   UNL     1     -23.352  -5.564  11.864  0.00  0.00    +0.000 A 
ATOM     21  C   UNL     1     -22.060  -5.942  12.110  0.00  0.00    +0.000 A 
ATOM     22  C   UNL     1     -24.085  -6.202  12.860  0.00  0.00    +0.000 A 
ENDROOT
BRANCH   9  23
ATOM     23  O   UNL     1     -24.747  -5.548   2.983  0.00  0.00    +0.000 OA
ATOM     24  H   UNL     1     -25.244  -6.328   2.679  0.00  0.00    +0.000 HD
ENDBRANCH   9  23
BRANCH   9  25
ATOM     25  C   UNL     1     -25.129  -6.766   4.996  0.00  0.00    +0.000 C 
ATOM     26  C   UNL     1     -25.896  -7.486   5.562  0.00  0.00    +0.000 C 
ENDBRANCH   9  25
TORSDOF 2
ENDMDL
MODEL 8
REMARK VINA RESULT:      -5.4     14.683     17.127
REMARK  Name = Danazol.pdbqt.pdb
REMARK  2 active torsions:
REMARK  status: ('A' for Active; 'I' for Inactive)
REMARK    1  A    between atoms: C_9  and  O_23
REMARK    2  A    between atoms: C_9  and  C_25
REMARK                            x       y       z     vdW  Elec       q    Type
REMARK                         _______ _______ _______ _____ _____    ______ ____
ROOT
ATOM      1  O   UNL     1     -19.739   2.120  10.137  0.00  0.00    +0.000 OA
ATOM      2  N   UNL     1     -19.541   2.383  11.509  0.00  0.00    +0.000 NA
ATOM      3  C   UNL     1     -23.289  -4.573   9.405  0.00  0.00    +0.000 C 
ATOM      4  C   UNL     1     -23.887  -5.247  10.748  0.00  0.00    +0.000 C 
ATOM      5  C   UNL     1     -23.097  -3.117   9.258  0.00  0.00    +0.000 C 
ATOM      6  C   UNL     1     -23.271  -2.084  10.338  0.00  0.00    +0.000 C 
ATOM      7  C   UNL     1     -23.191  -0.558  10.096  0.00  0.00    +0.000 C 
ATOM      8  C   UNL     1     -23.891  -4.165  11.745  0.00  0.00    +0.000 C 
ATOM      9  C   UNL     1     -22.871  -6.490  11.044  0.00  0.00    +0.000 C 
ATOM     10  C   UNL     1     -23.627  -2.691  11.573  0.00  0.00    +0.000 C 
ATOM     11  C   UNL     1     -22.429  -5.505   8.758  0.00  0.00    +0.000 C 
ATOM     12  C   UNL     1     -22.593  -2.562   8.060  0.00  0.00    +0.000 C 
ATOM     13  C   UNL     1     -22.218  -6.632   9.725  0.00  0.00    +0.000 C 
ATOM     14  C   UNL     1     -22.369  -0.110   8.726  0.00  0.00    +0.000 C 
ATOM     15  C   UNL     1     -25.355  -5.683  10.392  0.00  0.00    +0.000 C 
ATOM     16  C   UNL     1     -22.229  -1.138   7.761  0.00  0.00    +0.000 C 
ATOM     17  C   UNL     1     -22.418   0.100  11.209  0.00  0.00    +0.000 C 
ATOM     18  C   UNL     1     -24.629   0.022   9.978  0.00  0.00    +0.000 C 
ATOM     19  C   UNL     1     -21.370   0.731   8.886  0.00  0.00    +0.000 C 
ATOM     20  C   UNL     1     -21.303   0.986  11.274  0.00  0.00    +0.000 A 
ATOM     21  C   UNL     1     -20.789   1.297  10.044  0.00  0.00    +0.000 A 
ATOM     22  C   UNL     1     -20.500   1.693  12.163  0.00  0.00    +0.000 A 
ENDROOT
BRANCH   9  23
ATOM     23  O   UNL     1     -23.513  -7.727  11.387  0.00  0.00    +0.000 OA
ATOM     24  H   UNL     1     -23.633  -8.234  10.565  0.00  0.00    +0.000 HD
ENDBRANCH   9  23
BRANCH   9  25
ATOM     25  C   UNL     1     -21.884  -6.139  12.095  0.00  0.00    +0.000 C 
ATOM     26  C   UNL     1     -21.094  -5.881  12.953  0.00  0.00    +0.000 C 
ENDBRANCH   9  25
TORSDOF 2
ENDMDL
MODEL 9
REMARK VINA RESULT:      -5.3     21.124     23.980
REMARK  Name = Danazol.pdbqt.pdb
REMARK  2 active torsions:
REMARK  status: ('A' for Active; 'I' for Inactive)
REMARK    1  A    between atoms: C_9  and  O_23
REMARK    2  A    between atoms: C_9  and  C_25
REMARK                            x       y       z     vdW  Elec       q    Type
REMARK                         _______ _______ _______ _____ _____    ______ ____
ROOT
ATOM      1  O   UNL     1     -11.148  -4.281  -2.423  0.00  0.00    +0.000 OA
ATOM      2  N   UNL     1     -11.968  -5.277  -1.850  0.00  0.00    +0.000 NA
ATOM      3  C   UNL     1      -3.886  -5.801  -0.719  0.00  0.00    +0.000 C 
ATOM      4  C   UNL     1      -3.564  -7.244  -0.063  0.00  0.00    +0.000 C 
ATOM      5  C   UNL     1      -5.052  -5.562  -1.591  0.00  0.00    +0.000 C 
ATOM      6  C   UNL     1      -6.166  -6.534  -1.874  0.00  0.00    +0.000 C 
ATOM      7  C   UNL     1      -7.293  -6.283  -2.903  0.00  0.00    +0.000 C 
ATOM      8  C   UNL     1      -4.771  -8.049  -0.307  0.00  0.00    +0.000 C 
ATOM      9  C   UNL     1      -3.239  -6.896   1.498  0.00  0.00    +0.000 C 
ATOM     10  C   UNL     1      -5.979  -7.747  -1.157  0.00  0.00    +0.000 C 
ATOM     11  C   UNL     1      -3.366  -4.778   0.123  0.00  0.00    +0.000 C 
ATOM     12  C   UNL     1      -5.289  -4.292  -2.166  0.00  0.00    +0.000 C 
ATOM     13  C   UNL     1      -2.968  -5.446   1.407  0.00  0.00    +0.000 C 
ATOM     14  C   UNL     1      -7.546  -4.688  -3.287  0.00  0.00    +0.000 C 
ATOM     15  C   UNL     1      -2.340  -7.816  -0.867  0.00  0.00    +0.000 C 
ATOM     16  C   UNL     1      -6.462  -3.829  -2.978  0.00  0.00    +0.000 C 
ATOM     17  C   UNL     1      -8.616  -6.729  -2.337  0.00  0.00    +0.000 C 
ATOM     18  C   UNL     1      -6.958  -7.024  -4.228  0.00  0.00    +0.000 C 
ATOM     19  C   UNL     1      -8.768  -4.229  -3.123  0.00  0.00    +0.000 C 
ATOM     20  C   UNL     1      -9.896  -6.124  -2.173  0.00  0.00    +0.000 A 
ATOM     21  C   UNL     1      -9.939  -4.825  -2.600  0.00  0.00    +0.000 A 
ATOM     22  C   UNL     1     -11.188  -6.372  -1.719  0.00  0.00    +0.000 A 
ENDROOT
BRANCH   9  23
ATOM     23  O   UNL     1      -2.083  -7.557   2.036  0.00  0.00    +0.000 OA
ATOM     24  H   UNL     1      -1.379  -6.891   2.128  0.00  0.00    +0.000 HD
ENDBRANCH   9  23
BRANCH   9  25
ATOM     25  C   UNL     1      -4.411  -7.169   2.365  0.00  0.00    +0.000 C 
ATOM     26  C   UNL     1      -5.349  -7.415   3.064  0.00  0.00    +0.000 C 
ENDBRANCH   9  25
TORSDOF 2
ENDMDL
