MODEL 1
REMARK VINA RESULT:      -4.8      0.000      0.000
REMARK  Name = Decitabine.pdbqt.pdb
REMARK  4 active torsions:
REMARK  status: ('A' for Active; 'I' for Inactive)
REMARK    1  A    between atoms: N_2  and  C1*_8
REMARK    2  A    between atoms: C4*_10  and  C5*_13
REMARK    3  A    between atoms: C3*_11  and  O3*_16
REMARK    4  A    between atoms: C5*_13  and  O5*_14
REMARK                            x       y       z     vdW  Elec       q    Type
REMARK                         _______ _______ _______ _____ _____    ______ ____
ROOT
ATOM      1  O   UNL     1     -24.599  -6.378  11.249  0.00  0.00    +0.000 OA
ATOM      2  N   UNL     1     -22.503  -5.953  12.134  0.00  0.00    +0.000 N 
ATOM      3  N   UNL     1     -24.109  -7.164  13.339  0.00  0.00    +0.000 NA
ATOM      4  N   UNL     1     -21.966  -6.718  14.277  0.00  0.00    +0.000 NA
ATOM      5  C   UNL     1     -23.788  -6.485  12.163  0.00  0.00    +0.000 A 
ATOM      6  C   UNL     1     -21.815  -6.189  13.248  0.00  0.00    +0.000 A 
ATOM      7  C   UNL     1     -23.235  -7.270  14.307  0.00  0.00    +0.000 A 
ATOM      8  N   UNL     1     -23.593  -7.946  15.429  0.00  0.00    +0.000 N 
ATOM      9  H   UNL     1     -23.096  -7.664  16.263  0.00  0.00    +0.000 HD
ATOM     10  H   UNL     1     -24.596  -8.034  15.540  0.00  0.00    +0.000 HD
ENDROOT
BRANCH   2  11
ATOM     11  C1* UNL     1     -21.944  -5.252  11.113  0.00  0.00    +0.000 A 
ATOM     12  O4* UNL     1     -20.916  -5.780  10.324  0.00  0.00    +0.000 OA
ATOM     13  C4* UNL     1     -20.589  -4.802   9.375  0.00  0.00    +0.000 A 
ATOM     14  C3* UNL     1     -21.423  -3.646   9.581  0.00  0.00    +0.000 A 
ATOM     15  C2* UNL     1     -22.267  -3.957  10.661  0.00  0.00    +0.000 A 
BRANCH  14  16
ATOM     16  O3* UNL     1     -21.776  -2.837   8.539  0.00  0.00    +0.000 OA
ATOM     17  H3* UNL     1     -21.211  -2.046   8.503  0.00  0.00    +0.000 HD
ENDBRANCH  14  16
BRANCH  13  18
ATOM     18  C5* UNL     1     -19.711  -5.051   8.303  0.00  0.00    +0.000 C 
BRANCH  18  19
ATOM     19  O5* UNL     1     -18.884  -5.289   7.289  0.00  0.00    +0.000 OA
ATOM     20  H5* UNL     1     -19.275  -5.940   6.682  0.00  0.00    +0.000 HD
ENDBRANCH  18  19
ENDBRANCH  13  18
ENDBRANCH   2  11
TORSDOF 4
ENDMDL
MODEL 2
REMARK VINA RESULT:      -4.6     14.177     15.374
REMARK  Name = Decitabine.pdbqt.pdb
REMARK  4 active torsions:
REMARK  status: ('A' for Active; 'I' for Inactive)
REMARK    1  A    between atoms: N_2  and  C1*_8
REMARK    2  A    between atoms: C4*_10  and  C5*_13
REMARK    3  A    between atoms: C3*_11  and  O3*_16
REMARK    4  A    between atoms: C5*_13  and  O5*_14
REMARK                            x       y       z     vdW  Elec       q    Type
REMARK                         _______ _______ _______ _____ _____    ______ ____
ROOT
ATOM      1  O   UNL     1     -11.404  -2.016  23.818  0.00  0.00    +0.000 OA
ATOM      2  N   UNL     1     -12.156  -4.086  23.105  0.00  0.00    +0.000 N 
ATOM      3  N   UNL     1     -12.999  -3.092  25.054  0.00  0.00    +0.000 NA
ATOM      4  N   UNL     1     -13.770  -5.231  24.349  0.00  0.00    +0.000 NA
ATOM      5  C   UNL     1     -12.127  -2.995  23.968  0.00  0.00    +0.000 A 
ATOM      6  C   UNL     1     -13.013  -5.030  23.484  0.00  0.00    +0.000 A 
ATOM      7  C   UNL     1     -13.766  -4.141  25.202  0.00  0.00    +0.000 A 
ATOM      8  N   UNL     1     -14.600  -4.185  26.272  0.00  0.00    +0.000 N 
ATOM      9  H   UNL     1     -14.844  -5.119  26.574  0.00  0.00    +0.000 HD
ATOM     10  H   UNL     1     -14.331  -3.553  27.017  0.00  0.00    +0.000 HD
ENDROOT
BRANCH   2  11
ATOM     11  C1* UNL     1     -11.411  -4.242  21.979  0.00  0.00    +0.000 A 
ATOM     12  O4* UNL     1     -11.654  -3.497  20.819  0.00  0.00    +0.000 OA
ATOM     13  C4* UNL     1     -10.707  -3.904  19.870  0.00  0.00    +0.000 A 
ATOM     14  C3* UNL     1      -9.866  -4.922  20.447  0.00  0.00    +0.000 A 
ATOM     15  C2* UNL     1     -10.317  -5.104  21.766  0.00  0.00    +0.000 A 
BRANCH  14  16
ATOM     16  O3* UNL     1      -8.567  -5.068  20.052  0.00  0.00    +0.000 OA
ATOM     17  H3* UNL     1      -7.971  -5.108  20.820  0.00  0.00    +0.000 HD
ENDBRANCH  14  16
BRANCH  13  18
ATOM     18  C5* UNL     1     -10.541  -3.246  18.636  0.00  0.00    +0.000 C 
BRANCH  18  19
ATOM     19  O5* UNL     1     -10.378  -2.624  17.471  0.00  0.00    +0.000 OA
ATOM     20  H5* UNL     1      -9.473  -2.756  17.143  0.00  0.00    +0.000 HD
ENDBRANCH  18  19
ENDBRANCH  13  18
ENDBRANCH   2  11
TORSDOF 4
ENDMDL
MODEL 3
REMARK VINA RESULT:      -4.5     14.804     16.208
REMARK  Name = Decitabine.pdbqt.pdb
REMARK  4 active torsions:
REMARK  status: ('A' for Active; 'I' for Inactive)
REMARK    1  A    between atoms: N_2  and  C1*_8
REMARK    2  A    between atoms: C4*_10  and  C5*_13
REMARK    3  A    between atoms: C3*_11  and  O3*_16
REMARK    4  A    between atoms: C5*_13  and  O5*_14
REMARK                            x       y       z     vdW  Elec       q    Type
REMARK                         _______ _______ _______ _____ _____    ______ ____
ROOT
ATOM      1  O   UNL     1      -8.238  -4.711  21.338  0.00  0.00    +0.000 OA
ATOM      2  N   UNL     1      -9.930  -3.703  20.120  0.00  0.00    +0.000 N 
ATOM      3  N   UNL     1      -8.362  -5.108  19.089  0.00  0.00    +0.000 NA
ATOM      4  N   UNL     1     -10.081  -4.064  17.816  0.00  0.00    +0.000 NA
ATOM      5  C   UNL     1      -8.810  -4.515  20.270  0.00  0.00    +0.000 A 
ATOM      6  C   UNL     1     -10.363  -3.638  18.865  0.00  0.00    +0.000 A 
ATOM      7  C   UNL     1      -8.981  -4.892  17.957  0.00  0.00    +0.000 A 
ATOM      8  N   UNL     1      -8.509  -5.496  16.838  0.00  0.00    +0.000 N 
ATOM      9  H   UNL     1      -8.724  -5.010  15.977  0.00  0.00    +0.000 HD
ATOM     10  H   UNL     1      -7.548  -5.805  16.923  0.00  0.00    +0.000 HD
ENDROOT
BRANCH   2  11
ATOM     11  C1* UNL     1     -10.563  -3.014  21.106  0.00  0.00    +0.000 A 
ATOM     12  O4* UNL     1     -10.217  -1.699  21.435  0.00  0.00    +0.000 OA
ATOM     13  C4* UNL     1     -11.066  -1.303  22.475  0.00  0.00    +0.000 A 
ATOM     14  C3* UNL     1     -11.952  -2.391  22.803  0.00  0.00    +0.000 A 
ATOM     15  C2* UNL     1     -11.627  -3.441  21.926  0.00  0.00    +0.000 A 
BRANCH  14  16
ATOM     16  O3* UNL     1     -13.207  -2.156  23.288  0.00  0.00    +0.000 OA
ATOM     17  H3* UNL     1     -13.376  -1.201  23.371  0.00  0.00    +0.000 HD
ENDBRANCH  14  16
BRANCH  13  18
ATOM     18  C5* UNL     1     -11.119   0.023  22.947  0.00  0.00    +0.000 C 
BRANCH  18  19
ATOM     19  O5* UNL     1     -11.171   1.277  23.388  0.00  0.00    +0.000 OA
ATOM     20  H5* UNL     1     -11.987   1.708  23.081  0.00  0.00    +0.000 HD
ENDBRANCH  18  19
ENDBRANCH  13  18
ENDBRANCH   2  11
TORSDOF 4
ENDMDL
MODEL 4
REMARK VINA RESULT:      -4.4     15.593     17.244
REMARK  Name = Decitabine.pdbqt.pdb
REMARK  4 active torsions:
REMARK  status: ('A' for Active; 'I' for Inactive)
REMARK    1  A    between atoms: N_2  and  C1*_8
REMARK    2  A    between atoms: C4*_10  and  C5*_13
REMARK    3  A    between atoms: C3*_11  and  O3*_16
REMARK    4  A    between atoms: C5*_13  and  O5*_14
REMARK                            x       y       z     vdW  Elec       q    Type
REMARK                         _______ _______ _______ _____ _____    ______ ____
ROOT
ATOM      1  O   UNL     1      -8.855  -2.008  22.105  0.00  0.00    +0.000 OA
ATOM      2  N   UNL     1     -10.385  -3.673  21.608  0.00  0.00    +0.000 N 
ATOM      3  N   UNL     1      -9.712  -2.118  19.988  0.00  0.00    +0.000 NA
ATOM      4  N   UNL     1     -11.302  -3.810  19.463  0.00  0.00    +0.000 NA
ATOM      5  C   UNL     1      -9.597  -2.568  21.304  0.00  0.00    +0.000 A 
ATOM      6  C   UNL     1     -11.113  -4.095  20.578  0.00  0.00    +0.000 A 
ATOM      7  C   UNL     1     -10.506  -2.724  19.143  0.00  0.00    +0.000 A 
ATOM      8  N   UNL     1     -10.578  -2.251  17.873  0.00  0.00    +0.000 N 
ATOM      9  H   UNL     1     -11.450  -2.451  17.401  0.00  0.00    +0.000 HD
ATOM     10  H   UNL     1     -10.254  -1.296  17.782  0.00  0.00    +0.000 HD
ENDROOT
BRANCH   2  11
ATOM     11  C1* UNL     1     -10.458  -4.305  22.810  0.00  0.00    +0.000 A 
ATOM     12  O4* UNL     1      -9.722  -5.462  23.087  0.00  0.00    +0.000 OA
ATOM     13  C4* UNL     1     -10.029  -5.834  24.402  0.00  0.00    +0.000 A 
ATOM     14  C3* UNL     1     -10.976  -4.896  24.949  0.00  0.00    +0.000 A 
ATOM     15  C2* UNL     1     -11.216  -3.945  23.942  0.00  0.00    +0.000 A 
BRANCH  14  16
ATOM     16  O3* UNL     1     -11.001  -4.620  26.287  0.00  0.00    +0.000 OA
ATOM     17  H3* UNL     1     -10.178  -4.185  26.569  0.00  0.00    +0.000 HD
ENDBRANCH  14  16
BRANCH  13  18
ATOM     18  C5* UNL     1      -9.342  -6.859  25.080  0.00  0.00    +0.000 C 
BRANCH  18  19
ATOM     19  O5* UNL     1      -8.697  -7.830  25.721  0.00  0.00    +0.000 OA
ATOM     20  H5* UNL     1      -7.816  -7.524  25.995  0.00  0.00    +0.000 HD
ENDBRANCH  18  19
ENDBRANCH  13  18
ENDBRANCH   2  11
TORSDOF 4
ENDMDL
MODEL 5
REMARK VINA RESULT:      -4.2      1.093      2.040
REMARK  Name = Decitabine.pdbqt.pdb
REMARK  4 active torsions:
REMARK  status: ('A' for Active; 'I' for Inactive)
REMARK    1  A    between atoms: N_2  and  C1*_8
REMARK    2  A    between atoms: C4*_10  and  C5*_13
REMARK    3  A    between atoms: C3*_11  and  O3*_16
REMARK    4  A    between atoms: C5*_13  and  O5*_14
REMARK                            x       y       z     vdW  Elec       q    Type
REMARK                         _______ _______ _______ _____ _____    ______ ____
ROOT
ATOM      1  O   UNL     1     -24.965  -6.311  11.705  0.00  0.00    +0.000 OA
ATOM      2  N   UNL     1     -22.769  -6.026  12.381  0.00  0.00    +0.000 N 
ATOM      3  N   UNL     1     -24.321  -7.151  13.732  0.00  0.00    +0.000 NA
ATOM      4  N   UNL     1     -22.073  -6.850  14.455  0.00  0.00    +0.000 NA
ATOM      5  C   UNL     1     -24.077  -6.478  12.534  0.00  0.00    +0.000 A 
ATOM      6  C   UNL     1     -21.992  -6.318  13.420  0.00  0.00    +0.000 A 
ATOM      7  C   UNL     1     -23.365  -7.323  14.608  0.00  0.00    +0.000 A 
ATOM      8  N   UNL     1     -23.652  -7.989  15.755  0.00  0.00    +0.000 N 
ATOM      9  H   UNL     1     -23.059  -7.749  16.538  0.00  0.00    +0.000 HD
ATOM     10  H   UNL     1     -24.643  -8.017  15.965  0.00  0.00    +0.000 HD
ENDROOT
BRANCH   2  11
ATOM     11  C1* UNL     1     -22.271  -5.348  11.314  0.00  0.00    +0.000 A 
ATOM     12  O4* UNL     1     -22.622  -4.020  11.048  0.00  0.00    +0.000 OA
ATOM     13  C4* UNL     1     -21.927  -3.640   9.893  0.00  0.00    +0.000 A 
ATOM     14  C3* UNL     1     -21.136  -4.752   9.429  0.00  0.00    +0.000 A 
ATOM     15  C2* UNL     1     -21.358  -5.799  10.340  0.00  0.00    +0.000 A 
BRANCH  14  16
ATOM     16  O3* UNL     1     -19.962  -4.550   8.761  0.00  0.00    +0.000 OA
ATOM     17  H3* UNL     1     -19.525  -3.734   9.061  0.00  0.00    +0.000 HD
ENDBRANCH  14  16
BRANCH  13  18
ATOM     18  C5* UNL     1     -21.904  -2.312   9.424  0.00  0.00    +0.000 C 
BRANCH  18  19
ATOM     19  O5* UNL     1     -21.886  -1.059   8.979  0.00  0.00    +0.000 OA
ATOM     20  H5* UNL     1     -20.971  -0.733   8.930  0.00  0.00    +0.000 HD
ENDBRANCH  18  19
ENDBRANCH  13  18
ENDBRANCH   2  11
TORSDOF 4
ENDMDL
MODEL 6
REMARK VINA RESULT:      -4.2     20.730     22.298
REMARK  Name = Decitabine.pdbqt.pdb
REMARK  4 active torsions:
REMARK  status: ('A' for Active; 'I' for Inactive)
REMARK    1  A    between atoms: N_2  and  C1*_8
REMARK    2  A    between atoms: C4*_10  and  C5*_13
REMARK    3  A    between atoms: C3*_11  and  O3*_16
REMARK    4  A    between atoms: C5*_13  and  O5*_14
REMARK                            x       y       z     vdW  Elec       q    Type
REMARK                         _______ _______ _______ _____ _____    ______ ____
ROOT
ATOM      1  O   UNL     1      -4.526 -18.436  20.647  0.00  0.00    +0.000 OA
ATOM      2  N   UNL     1      -5.189 -16.219  20.593  0.00  0.00    +0.000 N 
ATOM      3  N   UNL     1      -3.049 -16.865  19.887  0.00  0.00    +0.000 NA
ATOM      4  N   UNL     1      -3.704 -14.576  19.845  0.00  0.00    +0.000 NA
ATOM      5  C   UNL     1      -4.287 -17.259  20.397  0.00  0.00    +0.000 A 
ATOM      6  C   UNL     1      -4.695 -15.030  20.260  0.00  0.00    +0.000 A 
ATOM      7  C   UNL     1      -2.806 -15.607  19.625  0.00  0.00    +0.000 A 
ATOM      8  N   UNL     1      -1.589 -15.275  19.124  0.00  0.00    +0.000 N 
ATOM      9  H   UNL     1      -1.299 -14.327  19.322  0.00  0.00    +0.000 HD
ATOM     10  H   UNL     1      -0.881 -15.980  19.292  0.00  0.00    +0.000 HD
ENDROOT
BRANCH   2  11
ATOM     11  C1* UNL     1      -6.455 -16.330  21.075  0.00  0.00    +0.000 A 
ATOM     12  O4* UNL     1      -6.743 -16.222  22.440  0.00  0.00    +0.000 OA
ATOM     13  C4* UNL     1      -8.128 -16.378  22.577  0.00  0.00    +0.000 A 
ATOM     14  C3* UNL     1      -8.711 -16.593  21.277  0.00  0.00    +0.000 A 
ATOM     15  C2* UNL     1      -7.649 -16.545  20.357  0.00  0.00    +0.000 A 
BRANCH  14  16
ATOM     16  O3* UNL     1      -9.985 -16.187  21.000  0.00  0.00    +0.000 OA
ATOM     17  H3* UNL     1     -10.039 -15.784  20.116  0.00  0.00    +0.000 HD
ENDBRANCH  14  16
BRANCH  13  18
ATOM     18  C5* UNL     1      -8.799 -16.159  23.796  0.00  0.00    +0.000 C 
BRANCH  18  19
ATOM     19  O5* UNL     1      -9.434 -15.947  24.945  0.00  0.00    +0.000 OA
ATOM     20  H5* UNL     1     -10.352 -16.264  24.885  0.00  0.00    +0.000 HD
ENDBRANCH  18  19
ENDBRANCH  13  18
ENDBRANCH   2  11
TORSDOF 4
ENDMDL
MODEL 7
REMARK VINA RESULT:      -4.2     15.313     16.626
REMARK  Name = Decitabine.pdbqt.pdb
REMARK  4 active torsions:
REMARK  status: ('A' for Active; 'I' for Inactive)
REMARK    1  A    between atoms: N_2  and  C1*_8
REMARK    2  A    between atoms: C4*_10  and  C5*_13
REMARK    3  A    between atoms: C3*_11  and  O3*_16
REMARK    4  A    between atoms: C5*_13  and  O5*_14
REMARK                            x       y       z     vdW  Elec       q    Type
REMARK                         _______ _______ _______ _____ _____    ______ ____
ROOT
ATOM      1  O   UNL     1      -8.812  -2.325  22.951  0.00  0.00    +0.000 OA
ATOM      2  N   UNL     1     -10.547  -3.632  22.149  0.00  0.00    +0.000 N 
ATOM      3  N   UNL     1      -8.370  -3.852  21.308  0.00  0.00    +0.000 NA
ATOM      4  N   UNL     1     -10.144  -5.191  20.455  0.00  0.00    +0.000 NA
ATOM      5  C   UNL     1      -9.224  -3.203  22.199  0.00  0.00    +0.000 A 
ATOM      6  C   UNL     1     -10.752  -4.586  21.246  0.00  0.00    +0.000 A 
ATOM      7  C   UNL     1      -8.821  -4.787  20.512  0.00  0.00    +0.000 A 
ATOM      8  N   UNL     1      -7.949  -5.393  19.668  0.00  0.00    +0.000 N 
ATOM      9  H   UNL     1      -8.372  -5.773  18.831  0.00  0.00    +0.000 HD
ATOM     10  H   UNL     1      -7.104  -4.856  19.511  0.00  0.00    +0.000 HD
ENDROOT
BRANCH   2  11
ATOM     11  C1* UNL     1     -11.574  -3.166  22.908  0.00  0.00    +0.000 A 
ATOM     12  O4* UNL     1     -12.329  -2.050  22.532  0.00  0.00    +0.000 OA
ATOM     13  C4* UNL     1     -13.295  -1.859  23.528  0.00  0.00    +0.000 A 
ATOM     14  C3* UNL     1     -13.136  -2.869  24.542  0.00  0.00    +0.000 A 
ATOM     15  C2* UNL     1     -12.065  -3.679  24.125  0.00  0.00    +0.000 A 
BRANCH  14  16
ATOM     16  O3* UNL     1     -14.205  -3.320  25.261  0.00  0.00    +0.000 OA
ATOM     17  H3* UNL     1     -15.015  -3.316  24.723  0.00  0.00    +0.000 HD
ENDBRANCH  14  16
BRANCH  13  18
ATOM     18  C5* UNL     1     -14.343  -0.926  23.398  0.00  0.00    +0.000 C 
BRANCH  18  19
ATOM     19  O5* UNL     1     -15.330  -0.043  23.278  0.00  0.00    +0.000 OA
ATOM     20  H5* UNL     1     -16.191  -0.491  23.331  0.00  0.00    +0.000 HD
ENDBRANCH  18  19
ENDBRANCH  13  18
ENDBRANCH   2  11
TORSDOF 4
ENDMDL
MODEL 8
REMARK VINA RESULT:      -4.0      2.390      3.020
REMARK  Name = Decitabine.pdbqt.pdb
REMARK  4 active torsions:
REMARK  status: ('A' for Active; 'I' for Inactive)
REMARK    1  A    between atoms: N_2  and  C1*_8
REMARK    2  A    between atoms: C4*_10  and  C5*_13
REMARK    3  A    between atoms: C3*_11  and  O3*_16
REMARK    4  A    between atoms: C5*_13  and  O5*_14
REMARK                            x       y       z     vdW  Elec       q    Type
REMARK                         _______ _______ _______ _____ _____    ______ ____
ROOT
ATOM      1  O   UNL     1     -22.414  -6.103  13.002  0.00  0.00    +0.000 OA
ATOM      2  N   UNL     1     -22.641  -4.243  11.643  0.00  0.00    +0.000 N 
ATOM      3  N   UNL     1     -23.529  -4.279  13.813  0.00  0.00    +0.000 NA
ATOM      4  N   UNL     1     -23.792  -2.363  12.424  0.00  0.00    +0.000 NA
ATOM      5  C   UNL     1     -22.823  -4.961  12.821  0.00  0.00    +0.000 A 
ATOM      6  C   UNL     1     -23.186  -3.030  11.682  0.00  0.00    +0.000 A 
ATOM      7  C   UNL     1     -23.959  -3.061  13.608  0.00  0.00    +0.000 A 
ATOM      8  N   UNL     1     -24.635  -2.438  14.607  0.00  0.00    +0.000 N 
ATOM      9  H   UNL     1     -25.279  -1.723  14.294  0.00  0.00    +0.000 HD
ATOM     10  H   UNL     1     -25.012  -3.078  15.295  0.00  0.00    +0.000 HD
ENDROOT
BRANCH   2  11
ATOM     11  C1* UNL     1     -21.992  -4.673  10.529  0.00  0.00    +0.000 A 
ATOM     12  O4* UNL     1     -20.674  -4.299  10.247  0.00  0.00    +0.000 OA
ATOM     13  C4* UNL     1     -20.324  -4.922   9.042  0.00  0.00    +0.000 A 
ATOM     14  C3* UNL     1     -21.445  -5.690   8.564  0.00  0.00    +0.000 A 
ATOM     15  C2* UNL     1     -22.467  -5.529   9.516  0.00  0.00    +0.000 A 
BRANCH  14  16
ATOM     16  O3* UNL     1     -21.259  -6.821   7.821  0.00  0.00    +0.000 OA
ATOM     17  H3* UNL     1     -21.834  -7.541   8.132  0.00  0.00    +0.000 HD
ENDBRANCH  14  16
BRANCH  13  18
ATOM     18  C5* UNL     1     -19.010  -4.909   8.535  0.00  0.00    +0.000 C 
BRANCH  18  19
ATOM     19  O5* UNL     1     -17.769  -4.893   8.058  0.00  0.00    +0.000 OA
ATOM     20  H5* UNL     1     -17.133  -4.755   8.780  0.00  0.00    +0.000 HD
ENDBRANCH  18  19
ENDBRANCH  13  18
ENDBRANCH   2  11
TORSDOF 4
ENDMDL
MODEL 9
REMARK VINA RESULT:      -4.0     17.158     18.481
REMARK  Name = Decitabine.pdbqt.pdb
REMARK  4 active torsions:
REMARK  status: ('A' for Active; 'I' for Inactive)
REMARK    1  A    between atoms: N_2  and  C1*_8
REMARK    2  A    between atoms: C4*_10  and  C5*_13
REMARK    3  A    between atoms: C3*_11  and  O3*_16
REMARK    4  A    between atoms: C5*_13  and  O5*_14
REMARK                            x       y       z     vdW  Elec       q    Type
REMARK                         _______ _______ _______ _____ _____    ______ ____
ROOT
ATOM      1  O   UNL     1      -8.321  -4.641  25.894  0.00  0.00    +0.000 OA
ATOM      2  N   UNL     1      -9.879  -4.768  24.187  0.00  0.00    +0.000 N 
ATOM      3  N   UNL     1      -7.665  -4.124  23.765  0.00  0.00    +0.000 NA
ATOM      4  N   UNL     1      -9.259  -4.228  22.000  0.00  0.00    +0.000 NA
ATOM      5  C   UNL     1      -8.612  -4.526  24.708  0.00  0.00    +0.000 A 
ATOM      6  C   UNL     1      -9.952  -4.564  22.876  0.00  0.00    +0.000 A 
ATOM      7  C   UNL     1      -7.989  -4.005  22.504  0.00  0.00    +0.000 A 
ATOM      8  N   UNL     1      -7.029  -3.618  21.625  0.00  0.00    +0.000 N 
ATOM      9  H   UNL     1      -7.382  -3.153  20.799  0.00  0.00    +0.000 HD
ATOM     10  H   UNL     1      -6.242  -3.159  22.068  0.00  0.00    +0.000 HD
ENDROOT
BRANCH   2  11
ATOM     11  C1* UNL     1     -10.974  -5.169  24.886  0.00  0.00    +0.000 A 
ATOM     12  O4* UNL     1     -11.976  -4.273  25.276  0.00  0.00    +0.000 OA
ATOM     13  C4* UNL     1     -12.943  -5.018  25.962  0.00  0.00    +0.000 A 
ATOM     14  C3* UNL     1     -12.535  -6.399  26.004  0.00  0.00    +0.000 A 
ATOM     15  C2* UNL     1     -11.311  -6.468  25.315  0.00  0.00    +0.000 A 
BRANCH  14  16
ATOM     16  O3* UNL     1     -13.457  -7.406  26.035  0.00  0.00    +0.000 OA
ATOM     17  H3* UNL     1     -13.634  -7.744  25.140  0.00  0.00    +0.000 HD
ENDBRANCH  14  16
BRANCH  13  18
ATOM     18  C5* UNL     1     -14.182  -4.474  26.353  0.00  0.00    +0.000 C 
BRANCH  18  19
ATOM     19  O5* UNL     1     -15.352  -3.958  26.718  0.00  0.00    +0.000 OA
ATOM     20  H5* UNL     1     -15.799  -3.561  25.951  0.00  0.00    +0.000 HD
ENDBRANCH  18  19
ENDBRANCH  13  18
ENDBRANCH   2  11
TORSDOF 4
ENDMDL
