MODEL 1
REMARK VINA RESULT:      -4.6      0.000      0.000
REMARK  Name = Deferoxamine.pdbqt.pdb
REMARK  19 active torsions:
REMARK  status: ('A' for Active; 'I' for Inactive)
REMARK    1  A    between atoms: C_1  and  C_2
REMARK    2  A    between atoms: C_3  and  C_4
REMARK    3  A    between atoms: C_4  and  N_5
REMARK    4  A    between atoms: C_6  and  C_9
REMARK    5  A    between atoms: C_10  and  C_11
REMARK    6  A    between atoms: N_13  and  O_14
REMARK    7  A    between atoms: N_13  and  C_16
REMARK    8  A    between atoms: C_17  and  C_18
REMARK    9  A    between atoms: C_19  and  C_20
REMARK   10  A    between atoms: C_20  and  N_21
REMARK   11  A    between atoms: C_24  and  N_25
REMARK   12  A    between atoms: N_25  and  O_28
REMARK   13  A    between atoms: C_26  and  C_30
REMARK   14  A    between atoms: C_31  and  C_32
REMARK   15  A    between atoms: N_34  and  C_36
REMARK   16  A    between atoms: C_37  and  C_38
REMARK   17  A    between atoms: C_38  and  C_39
REMARK   18  A    between atoms: C_40  and  N_41
REMARK   19  A    between atoms: N_41  and  O_45
REMARK                            x       y       z     vdW  Elec       q    Type
REMARK                         _______ _______ _______ _____ _____    ______ ____
ROOT
ATOM      1  C   UNL     1     -12.134 -17.239  11.033  0.00  0.00    +0.000 C 
ATOM      2  C   UNL     1     -13.055 -16.810  11.675  0.00  0.00    +0.000 C 
ENDROOT
BRANCH   2   3
ATOM      3  N   UNL     1     -14.088 -16.329  12.397  0.00  0.00    +0.000 N 
ATOM      4  C   UNL     1     -15.001 -16.978  13.211  0.00  0.00    +0.000 C 
ATOM      5  O   UNL     1     -15.130 -18.196  13.286  0.00  0.00    +0.000 OA
BRANCH   4   6
ATOM      6  C   UNL     1     -15.889 -16.156  14.005  0.00  0.00    +0.000 C 
ATOM      7  C   UNL     1     -16.636 -15.473  14.653  0.00  0.00    +0.000 C 
BRANCH   7   8
ATOM      8  C   UNL     1     -17.539 -14.643  15.412  0.00  0.00    +0.000 C 
ATOM      9  O   UNL     1     -18.018 -13.651  14.882  0.00  0.00    +0.000 OA
ATOM     10  N   UNL     1     -17.779 -15.064  16.700  0.00  0.00    +0.000 N 
ATOM     11  H   UNL     1     -17.308 -15.911  16.989  0.00  0.00    +0.000 HD
BRANCH  10  12
ATOM     12  C   UNL     1     -18.567 -14.505  17.645  0.00  0.00    +0.000 C 
ATOM     13  C   UNL     1     -19.263 -14.006  18.486  0.00  0.00    +0.000 C 
BRANCH  13  14
ATOM     14  C   UNL     1     -20.143 -13.364  19.562  0.00  0.00    +0.000 C 
BRANCH  14  15
ATOM     15  C   UNL     1     -21.030 -12.720  20.632  0.00  0.00    +0.000 C 
ATOM     16  C   UNL     1     -21.725 -12.213  21.469  0.00  0.00    +0.000 C 
BRANCH  16  17
ATOM     17  N   UNL     1     -22.509 -11.642  22.403  0.00  0.00    +0.000 N 
ATOM     18  C   UNL     1     -22.201 -10.849  23.484  0.00  0.00    +0.000 C 
ATOM     19  O   UNL     1     -21.121 -10.450  23.881  0.00  0.00    +0.000 OA
ATOM     20  C   UNL     1     -23.314 -10.350  24.372  0.00  0.00    +0.000 C 
BRANCH  17  21
ATOM     21  O   UNL     1     -23.865 -11.974  22.145  0.00  0.00    +0.000 OA
ATOM     22  H   UNL     1     -24.039 -11.542  21.283  0.00  0.00    +0.000 HD
ENDBRANCH  17  21
ENDBRANCH  16  17
ENDBRANCH  14  15
ENDBRANCH  13  14
ENDBRANCH  10  12
ENDBRANCH   7   8
ENDBRANCH   4   6
BRANCH   3  23
ATOM     23  O   UNL     1     -13.922 -14.938  12.584  0.00  0.00    +0.000 OA
ATOM     24  H   UNL     1     -14.372 -14.803  13.439  0.00  0.00    +0.000 HD
ENDBRANCH   3  23
ENDBRANCH   2   3
BRANCH   1  25
ATOM     25  C   UNL     1     -10.966 -17.801  10.219  0.00  0.00    +0.000 C 
ATOM     26  C   UNL     1     -10.059 -18.248   9.573  0.00  0.00    +0.000 C 
BRANCH  26  27
ATOM     27  C   UNL     1      -8.911 -18.825   8.739  0.00  0.00    +0.000 C 
BRANCH  27  28
ATOM     28  N   UNL     1      -7.901 -19.350   8.012  0.00  0.00    +0.000 N 
ATOM     29  C   UNL     1      -7.346 -20.605   8.080  0.00  0.00    +0.000 C 
ATOM     30  O   UNL     1      -7.686 -21.497   8.844  0.00  0.00    +0.000 OA
ATOM     31  H   UNL     1      -7.514 -18.720   7.320  0.00  0.00    +0.000 HD
BRANCH  29  32
ATOM     32  C   UNL     1      -6.270 -20.855   7.152  0.00  0.00    +0.000 C 
ATOM     33  C   UNL     1      -5.376 -21.040   6.372  0.00  0.00    +0.000 C 
BRANCH  33  34
ATOM     34  C   UNL     1      -4.290 -21.241   5.434  0.00  0.00    +0.000 C 
ATOM     35  O   UNL     1      -4.542 -21.833   4.389  0.00  0.00    +0.000 OA
ATOM     36  N   UNL     1      -3.036 -20.784   5.802  0.00  0.00    +0.000 N 
BRANCH  36  37
ATOM     37  C   UNL     1      -1.888 -20.700   5.098  0.00  0.00    +0.000 C 
ATOM     38  C   UNL     1      -0.866 -20.626   4.475  0.00  0.00    +0.000 C 
BRANCH  38  39
ATOM     39  C   UNL     1       0.443 -20.530   3.684  0.00  0.00    +0.000 C 
ATOM     40  C   UNL     1       1.466 -20.456   3.060  0.00  0.00    +0.000 C 
BRANCH  40  41
ATOM     41  C   UNL     1       2.768 -20.363   2.261  0.00  0.00    +0.000 C 
BRANCH  41  42
ATOM     42  N   UNL     1       4.005 -20.275   1.502  0.00  0.00    +0.000 NA
ATOM     43  H   UNL     1       4.471 -21.180   1.475  0.00  0.00    +0.000 HD
ATOM     44  H   UNL     1       3.811 -20.028   0.533  0.00  0.00    +0.000 HD
ENDBRANCH  41  42
ENDBRANCH  40  41
ENDBRANCH  38  39
ENDBRANCH  36  37
BRANCH  36  45
ATOM     45  O   UNL     1      -2.955 -19.944   6.936  0.00  0.00    +0.000 OA
ATOM     46  H   UNL     1      -3.111 -20.579   7.659  0.00  0.00    +0.000 HD
ENDBRANCH  36  45
ENDBRANCH  33  34
ENDBRANCH  29  32
ENDBRANCH  27  28
ENDBRANCH  26  27
ENDBRANCH   1  25
TORSDOF 19
ENDMDL
MODEL 2
REMARK VINA RESULT:      -4.1      3.459     21.914
REMARK  Name = Deferoxamine.pdbqt.pdb
REMARK  19 active torsions:
REMARK  status: ('A' for Active; 'I' for Inactive)
REMARK    1  A    between atoms: C_1  and  C_2
REMARK    2  A    between atoms: C_3  and  C_4
REMARK    3  A    between atoms: C_4  and  N_5
REMARK    4  A    between atoms: C_6  and  C_9
REMARK    5  A    between atoms: C_10  and  C_11
REMARK    6  A    between atoms: N_13  and  O_14
REMARK    7  A    between atoms: N_13  and  C_16
REMARK    8  A    between atoms: C_17  and  C_18
REMARK    9  A    between atoms: C_19  and  C_20
REMARK   10  A    between atoms: C_20  and  N_21
REMARK   11  A    between atoms: C_24  and  N_25
REMARK   12  A    between atoms: N_25  and  O_28
REMARK   13  A    between atoms: C_26  and  C_30
REMARK   14  A    between atoms: C_31  and  C_32
REMARK   15  A    between atoms: N_34  and  C_36
REMARK   16  A    between atoms: C_37  and  C_38
REMARK   17  A    between atoms: C_38  and  C_39
REMARK   18  A    between atoms: C_40  and  N_41
REMARK   19  A    between atoms: N_41  and  O_45
REMARK                            x       y       z     vdW  Elec       q    Type
REMARK                         _______ _______ _______ _____ _____    ______ ____
ROOT
ATOM      1  C   UNL     1     -10.322 -18.930   9.913  0.00  0.00    +0.000 C 
ATOM      2  C   UNL     1      -9.412 -19.329   9.238  0.00  0.00    +0.000 C 
ENDROOT
BRANCH   2   3
ATOM      3  N   UNL     1      -8.388 -19.777   8.482  0.00  0.00    +0.000 N 
ATOM      4  C   UNL     1      -8.209 -20.985   7.830  0.00  0.00    +0.000 C 
ATOM      5  O   UNL     1      -8.921 -21.973   7.976  0.00  0.00    +0.000 OA
BRANCH   4   6
ATOM      6  C   UNL     1      -7.075 -21.098   6.936  0.00  0.00    +0.000 C 
ATOM      7  C   UNL     1      -6.126 -21.196   6.206  0.00  0.00    +0.000 C 
BRANCH   7   8
ATOM      8  C   UNL     1      -4.973 -21.304   5.346  0.00  0.00    +0.000 C 
ATOM      9  O   UNL     1      -5.063 -21.947   4.311  0.00  0.00    +0.000 OA
ATOM     10  N   UNL     1      -3.847 -20.649   5.791  0.00  0.00    +0.000 N 
ATOM     11  H   UNL     1      -3.935 -20.154   6.670  0.00  0.00    +0.000 HD
BRANCH  10  12
ATOM     12  C   UNL     1      -2.627 -20.566   5.216  0.00  0.00    +0.000 C 
ATOM     13  C   UNL     1      -1.547 -20.493   4.699  0.00  0.00    +0.000 C 
BRANCH  13  14
ATOM     14  C   UNL     1      -0.171 -20.398   4.032  0.00  0.00    +0.000 C 
BRANCH  14  15
ATOM     15  C   UNL     1       1.204 -20.295   3.366  0.00  0.00    +0.000 C 
ATOM     16  C   UNL     1       2.281 -20.215   2.841  0.00  0.00    +0.000 C 
BRANCH  16  17
ATOM     17  N   UNL     1       3.487 -20.128   2.247  0.00  0.00    +0.000 N 
ATOM     18  C   UNL     1       4.323 -19.056   2.046  0.00  0.00    +0.000 C 
ATOM     19  O   UNL     1       4.188 -17.887   2.363  0.00  0.00    +0.000 OA
ATOM     20  C   UNL     1       5.634 -19.268   1.332  0.00  0.00    +0.000 C 
BRANCH  17  21
ATOM     21  O   UNL     1       3.872 -21.411   1.779  0.00  0.00    +0.000 OA
ATOM     22  H   UNL     1       3.469 -21.452   0.887  0.00  0.00    +0.000 HD
ENDBRANCH  17  21
ENDBRANCH  16  17
ENDBRANCH  14  15
ENDBRANCH  13  14
ENDBRANCH  10  12
ENDBRANCH   7   8
ENDBRANCH   4   6
BRANCH   3  23
ATOM     23  O   UNL     1      -7.613 -18.679   8.045  0.00  0.00    +0.000 OA
ATOM     24  H   UNL     1      -8.208 -17.932   8.241  0.00  0.00    +0.000 HD
ENDBRANCH   3  23
ENDBRANCH   2   3
BRANCH   1  25
ATOM     25  C   UNL     1     -11.479 -18.406  10.767  0.00  0.00    +0.000 C 
ATOM     26  C   UNL     1     -12.378 -17.985  11.442  0.00  0.00    +0.000 C 
BRANCH  26  27
ATOM     27  C   UNL     1     -13.517 -17.436  12.307  0.00  0.00    +0.000 C 
BRANCH  27  28
ATOM     28  N   UNL     1     -14.532 -16.953  13.056  0.00  0.00    +0.000 N 
ATOM     29  C   UNL     1     -14.660 -15.720  13.650  0.00  0.00    +0.000 C 
ATOM     30  O   UNL     1     -13.840 -14.814  13.601  0.00  0.00    +0.000 OA
ATOM     31  H   UNL     1     -15.302 -17.598  13.181  0.00  0.00    +0.000 HD
BRANCH  29  32
ATOM     32  C   UNL     1     -15.883 -15.515  14.387  0.00  0.00    +0.000 C 
ATOM     33  C   UNL     1     -16.898 -15.321  15.000  0.00  0.00    +0.000 C 
BRANCH  33  34
ATOM     34  C   UNL     1     -18.124 -15.066  15.728  0.00  0.00    +0.000 C 
ATOM     35  O   UNL     1     -18.062 -15.032  16.953  0.00  0.00    +0.000 OA
ATOM     36  N   UNL     1     -19.286 -14.918  14.989  0.00  0.00    +0.000 N 
BRANCH  36  37
ATOM     37  C   UNL     1     -20.525 -14.540  15.364  0.00  0.00    +0.000 C 
ATOM     38  C   UNL     1     -21.626 -14.200  15.699  0.00  0.00    +0.000 C 
BRANCH  38  39
ATOM     39  C   UNL     1     -23.029 -13.763  16.132  0.00  0.00    +0.000 C 
ATOM     40  C   UNL     1     -24.126 -13.416  16.475  0.00  0.00    +0.000 C 
BRANCH  40  41
ATOM     41  C   UNL     1     -25.523 -12.971  16.913  0.00  0.00    +0.000 C 
BRANCH  41  42
ATOM     42  N   UNL     1     -26.851 -12.549  17.329  0.00  0.00    +0.000 NA
ATOM     43  H   UNL     1     -26.803 -11.657  17.820  0.00  0.00    +0.000 HD
ATOM     44  H   UNL     1     -27.445 -12.391  16.516  0.00  0.00    +0.000 HD
ENDBRANCH  41  42
ENDBRANCH  40  41
ENDBRANCH  38  39
ENDBRANCH  36  37
BRANCH  36  45
ATOM     45  O   UNL     1     -19.154 -14.776  13.589  0.00  0.00    +0.000 OA
ATOM     46  H   UNL     1     -19.356 -15.679  13.283  0.00  0.00    +0.000 HD
ENDBRANCH  36  45
ENDBRANCH  33  34
ENDBRANCH  29  32
ENDBRANCH  27  28
ENDBRANCH  26  27
ENDBRANCH   1  25
TORSDOF 19
ENDMDL
MODEL 3
REMARK VINA RESULT:      -4.1     19.475     23.400
REMARK  Name = Deferoxamine.pdbqt.pdb
REMARK  19 active torsions:
REMARK  status: ('A' for Active; 'I' for Inactive)
REMARK    1  A    between atoms: C_1  and  C_2
REMARK    2  A    between atoms: C_3  and  C_4
REMARK    3  A    between atoms: C_4  and  N_5
REMARK    4  A    between atoms: C_6  and  C_9
REMARK    5  A    between atoms: C_10  and  C_11
REMARK    6  A    between atoms: N_13  and  O_14
REMARK    7  A    between atoms: N_13  and  C_16
REMARK    8  A    between atoms: C_17  and  C_18
REMARK    9  A    between atoms: C_19  and  C_20
REMARK   10  A    between atoms: C_20  and  N_21
REMARK   11  A    between atoms: C_24  and  N_25
REMARK   12  A    between atoms: N_25  and  O_28
REMARK   13  A    between atoms: C_26  and  C_30
REMARK   14  A    between atoms: C_31  and  C_32
REMARK   15  A    between atoms: N_34  and  C_36
REMARK   16  A    between atoms: C_37  and  C_38
REMARK   17  A    between atoms: C_38  and  C_39
REMARK   18  A    between atoms: C_40  and  N_41
REMARK   19  A    between atoms: N_41  and  O_45
REMARK                            x       y       z     vdW  Elec       q    Type
REMARK                         _______ _______ _______ _____ _____    ______ ____
ROOT
ATOM      1  C   UNL     1      -9.564  -1.399  21.566  0.00  0.00    +0.000 C 
ATOM      2  C   UNL     1      -9.661  -2.406  22.213  0.00  0.00    +0.000 C 
ENDROOT
BRANCH   2   3
ATOM      3  N   UNL     1      -9.771  -3.537  22.940  0.00  0.00    +0.000 N 
ATOM      4  C   UNL     1      -8.799  -4.343  23.509  0.00  0.00    +0.000 C 
ATOM      5  O   UNL     1      -7.595  -4.247  23.293  0.00  0.00    +0.000 OA
BRANCH   4   6
ATOM      6  C   UNL     1      -9.243  -5.398  24.396  0.00  0.00    +0.000 C 
ATOM      7  C   UNL     1      -9.623  -6.267  25.133  0.00  0.00    +0.000 C 
BRANCH   7   8
ATOM      8  C   UNL     1     -10.091  -7.293  26.032  0.00  0.00    +0.000 C 
ATOM      9  O   UNL     1     -10.791  -6.975  26.982  0.00  0.00    +0.000 OA
ATOM     10  N   UNL     1      -9.690  -8.573  25.720  0.00  0.00    +0.000 N 
ATOM     11  H   UNL     1      -9.114  -8.671  24.893  0.00  0.00    +0.000 HD
BRANCH  10  12
ATOM     12  C   UNL     1      -9.962  -9.730  26.361  0.00  0.00    +0.000 C 
ATOM     13  C   UNL     1     -10.209 -10.756  26.932  0.00  0.00    +0.000 C 
BRANCH  13  14
ATOM     14  C   UNL     1     -10.533 -12.063  27.663  0.00  0.00    +0.000 C 
BRANCH  14  15
ATOM     15  C   UNL     1     -10.860 -13.365  28.400  0.00  0.00    +0.000 C 
ATOM     16  C   UNL     1     -11.116 -14.384  28.981  0.00  0.00    +0.000 C 
BRANCH  16  17
ATOM     17  N   UNL     1     -11.408 -15.523  29.637  0.00  0.00    +0.000 N 
ATOM     18  C   UNL     1     -12.205 -15.761  30.731  0.00  0.00    +0.000 C 
ATOM     19  O   UNL     1     -12.869 -14.988  31.400  0.00  0.00    +0.000 OA
ATOM     20  C   UNL     1     -12.338 -17.169  31.254  0.00  0.00    +0.000 C 
BRANCH  17  21
ATOM     21  O   UNL     1     -10.726 -16.605  29.022  0.00  0.00    +0.000 OA
ATOM     22  H   UNL     1     -11.296 -16.818  28.253  0.00  0.00    +0.000 HD
ENDBRANCH  17  21
ENDBRANCH  16  17
ENDBRANCH  14  15
ENDBRANCH  13  14
ENDBRANCH  10  12
ENDBRANCH   7   8
ENDBRANCH   4   6
BRANCH   3  23
ATOM     23  O   UNL     1     -11.084  -3.639  23.453  0.00  0.00    +0.000 OA
ATOM     24  H   UNL     1     -11.616  -3.389  22.675  0.00  0.00    +0.000 HD
ENDBRANCH   3  23
ENDBRANCH   2   3
BRANCH   1  25
ATOM     25  C   UNL     1      -9.454  -0.110  20.747  0.00  0.00    +0.000 C 
ATOM     26  C   UNL     1      -9.378   0.896  20.098  0.00  0.00    +0.000 C 
BRANCH  26  27
ATOM     27  C   UNL     1      -9.293   2.177  19.261  0.00  0.00    +0.000 C 
BRANCH  27  28
ATOM     28  N   UNL     1      -9.201   3.310  18.531  0.00  0.00    +0.000 N 
ATOM     29  C   UNL     1      -9.835   4.515  18.721  0.00  0.00    +0.000 C 
ATOM     30  O   UNL     1     -10.622   4.776  19.620  0.00  0.00    +0.000 OA
ATOM     31  H   UNL     1      -8.570   3.249  17.743  0.00  0.00    +0.000 HD
BRANCH  29  32
ATOM     32  C   UNL     1      -9.515   5.538  17.755  0.00  0.00    +0.000 C 
ATOM     33  C   UNL     1      -9.269   6.402  16.957  0.00  0.00    +0.000 C 
BRANCH  33  34
ATOM     34  C   UNL     1      -8.981   7.458  16.009  0.00  0.00    +0.000 C 
ATOM     35  O   UNL     1      -7.803   7.731  15.800  0.00  0.00    +0.000 OA
ATOM     36  N   UNL     1     -10.059   8.111  15.435  0.00  0.00    +0.000 N 
BRANCH  36  37
ATOM     37  C   UNL     1     -10.109   9.015  14.435  0.00  0.00    +0.000 C 
ATOM     38  C   UNL     1     -10.153   9.817  13.543  0.00  0.00    +0.000 C 
BRANCH  38  39
ATOM     39  C   UNL     1     -10.204  10.837  12.401  0.00  0.00    +0.000 C 
ATOM     40  C   UNL     1     -10.239  11.638  11.509  0.00  0.00    +0.000 C 
BRANCH  40  41
ATOM     41  C   UNL     1     -10.280  12.662  10.371  0.00  0.00    +0.000 C 
BRANCH  41  42
ATOM     42  N   UNL     1     -10.318  13.634   9.290  0.00  0.00    +0.000 NA
ATOM     43  H   UNL     1      -9.641  13.390   8.569  0.00  0.00    +0.000 HD
ATOM     44  H   UNL     1     -11.229  13.624   8.835  0.00  0.00    +0.000 HD
ENDBRANCH  41  42
ENDBRANCH  40  41
ENDBRANCH  38  39
ENDBRANCH  36  37
BRANCH  36  45
ATOM     45  O   UNL     1     -11.340   7.541  15.618  0.00  0.00    +0.000 OA
ATOM     46  H   UNL     1     -11.126   6.591  15.649  0.00  0.00    +0.000 HD
ENDBRANCH  36  45
ENDBRANCH  33  34
ENDBRANCH  29  32
ENDBRANCH  27  28
ENDBRANCH  26  27
ENDBRANCH   1  25
TORSDOF 19
ENDMDL
MODEL 4
REMARK VINA RESULT:      -4.0     19.348     23.298
REMARK  Name = Deferoxamine.pdbqt.pdb
REMARK  19 active torsions:
REMARK  status: ('A' for Active; 'I' for Inactive)
REMARK    1  A    between atoms: C_1  and  C_2
REMARK    2  A    between atoms: C_3  and  C_4
REMARK    3  A    between atoms: C_4  and  N_5
REMARK    4  A    between atoms: C_6  and  C_9
REMARK    5  A    between atoms: C_10  and  C_11
REMARK    6  A    between atoms: N_13  and  O_14
REMARK    7  A    between atoms: N_13  and  C_16
REMARK    8  A    between atoms: C_17  and  C_18
REMARK    9  A    between atoms: C_19  and  C_20
REMARK   10  A    between atoms: C_20  and  N_21
REMARK   11  A    between atoms: C_24  and  N_25
REMARK   12  A    between atoms: N_25  and  O_28
REMARK   13  A    between atoms: C_26  and  C_30
REMARK   14  A    between atoms: C_31  and  C_32
REMARK   15  A    between atoms: N_34  and  C_36
REMARK   16  A    between atoms: C_37  and  C_38
REMARK   17  A    between atoms: C_38  and  C_39
REMARK   18  A    between atoms: C_40  and  N_41
REMARK   19  A    between atoms: N_41  and  O_45
REMARK                            x       y       z     vdW  Elec       q    Type
REMARK                         _______ _______ _______ _____ _____    ______ ____
ROOT
ATOM      1  C   UNL     1      -9.095  -4.002  23.502  0.00  0.00    +0.000 C 
ATOM      2  C   UNL     1      -9.089  -2.963  22.899  0.00  0.00    +0.000 C 
ENDROOT
BRANCH   2   3
ATOM      3  N   UNL     1      -9.081  -1.795  22.222  0.00  0.00    +0.000 N 
ATOM      4  C   UNL     1      -9.301  -1.527  20.882  0.00  0.00    +0.000 C 
ATOM      5  O   UNL     1      -9.383  -2.377  20.002  0.00  0.00    +0.000 OA
BRANCH   4   6
ATOM      6  C   UNL     1      -9.408  -0.137  20.489  0.00  0.00    +0.000 C 
ATOM      7  C   UNL     1      -9.503   1.018  20.175  0.00  0.00    +0.000 C 
BRANCH   7   8
ATOM      8  C   UNL     1      -9.639   2.406  19.808  0.00  0.00    +0.000 C 
ATOM      9  O   UNL     1     -10.203   3.171  20.577  0.00  0.00    +0.000 OA
ATOM     10  N   UNL     1      -9.100   2.745  18.587  0.00  0.00    +0.000 N 
ATOM     11  H   UNL     1      -8.660   1.995  18.069  0.00  0.00    +0.000 HD
BRANCH  10  12
ATOM     12  C   UNL     1      -9.069   3.949  17.975  0.00  0.00    +0.000 C 
ATOM     13  C   UNL     1      -9.037   5.019  17.433  0.00  0.00    +0.000 C 
BRANCH  13  14
ATOM     14  C   UNL     1      -8.985   6.385  16.742  0.00  0.00    +0.000 C 
BRANCH  14  15
ATOM     15  C   UNL     1      -8.942   7.753  16.055  0.00  0.00    +0.000 C 
ATOM     16  C   UNL     1      -8.910   8.826  15.518  0.00  0.00    +0.000 C 
BRANCH  16  17
ATOM     17  N   UNL     1      -8.876  10.033  14.921  0.00  0.00    +0.000 N 
ATOM     18  C   UNL     1      -9.346  10.455  13.700  0.00  0.00    +0.000 C 
ATOM     19  O   UNL     1      -9.929   9.835  12.828  0.00  0.00    +0.000 OA
ATOM     20  C   UNL     1      -9.155  11.895  13.294  0.00  0.00    +0.000 C 
BRANCH  17  21
ATOM     21  O   UNL     1      -8.221  10.959  15.774  0.00  0.00    +0.000 OA
ATOM     22  H   UNL     1      -7.912  11.652  15.154  0.00  0.00    +0.000 HD
ENDBRANCH  17  21
ENDBRANCH  16  17
ENDBRANCH  14  15
ENDBRANCH  13  14
ENDBRANCH  10  12
ENDBRANCH   7   8
ENDBRANCH   4   6
BRANCH   3  23
ATOM     23  O   UNL     1      -9.224  -0.725  23.134  0.00  0.00    +0.000 OA
ATOM     24  H   UNL     1      -8.563  -0.092  22.795  0.00  0.00    +0.000 HD
ENDBRANCH   3  23
ENDBRANCH   2   3
BRANCH   1  25
ATOM     25  C   UNL     1      -9.106  -5.318  24.284  0.00  0.00    +0.000 C 
ATOM     26  C   UNL     1      -9.118  -6.342  24.909  0.00  0.00    +0.000 C 
BRANCH  26  27
ATOM     27  C   UNL     1      -9.136  -7.643  25.718  0.00  0.00    +0.000 C 
BRANCH  27  28
ATOM     28  N   UNL     1      -9.171  -8.790  26.430  0.00  0.00    +0.000 N 
ATOM     29  C   UNL     1     -10.154  -9.749  26.480  0.00  0.00    +0.000 C 
ATOM     30  O   UNL     1     -11.209  -9.725  25.863  0.00  0.00    +0.000 OA
ATOM     31  H   UNL     1      -8.347  -8.955  26.996  0.00  0.00    +0.000 HD
BRANCH  29  32
ATOM     32  C   UNL     1      -9.879 -10.869  27.348  0.00  0.00    +0.000 C 
ATOM     33  C   UNL     1      -9.628 -11.791  28.075  0.00  0.00    +0.000 C 
BRANCH  33  34
ATOM     34  C   UNL     1      -9.313 -12.890  28.965  0.00  0.00    +0.000 C 
ATOM     35  O   UNL     1      -9.811 -12.875  30.087  0.00  0.00    +0.000 OA
ATOM     36  N   UNL     1      -8.442 -13.859  28.499  0.00  0.00    +0.000 N 
BRANCH  36  37
ATOM     37  C   UNL     1      -8.081 -15.046  29.028  0.00  0.00    +0.000 C 
ATOM     38  C   UNL     1      -7.762 -16.104  29.497  0.00  0.00    +0.000 C 
BRANCH  38  39
ATOM     39  C   UNL     1      -7.361 -17.456  30.096  0.00  0.00    +0.000 C 
ATOM     40  C   UNL     1      -7.046 -18.513  30.569  0.00  0.00    +0.000 C 
BRANCH  40  41
ATOM     41  C   UNL     1      -6.643 -19.859  31.177  0.00  0.00    +0.000 C 
BRANCH  41  42
ATOM     42  N   UNL     1      -6.260 -21.137  31.753  0.00  0.00    +0.000 NA
ATOM     43  H   UNL     1      -6.230 -21.075  32.769  0.00  0.00    +0.000 HD
ATOM     44  H   UNL     1      -6.956 -21.848  31.535  0.00  0.00    +0.000 HD
ENDBRANCH  41  42
ENDBRANCH  40  41
ENDBRANCH  38  39
ENDBRANCH  36  37
BRANCH  36  45
ATOM     45  O   UNL     1      -8.125 -13.843  27.121  0.00  0.00    +0.000 OA
ATOM     46  H   UNL     1      -8.510 -14.687  26.824  0.00  0.00    +0.000 HD
ENDBRANCH  36  45
ENDBRANCH  33  34
ENDBRANCH  29  32
ENDBRANCH  27  28
ENDBRANCH  26  27
ENDBRANCH   1  25
TORSDOF 19
ENDMDL
MODEL 5
REMARK VINA RESULT:      -4.0     18.830     27.685
REMARK  Name = Deferoxamine.pdbqt.pdb
REMARK  19 active torsions:
REMARK  status: ('A' for Active; 'I' for Inactive)
REMARK    1  A    between atoms: C_1  and  C_2
REMARK    2  A    between atoms: C_3  and  C_4
REMARK    3  A    between atoms: C_4  and  N_5
REMARK    4  A    between atoms: C_6  and  C_9
REMARK    5  A    between atoms: C_10  and  C_11
REMARK    6  A    between atoms: N_13  and  O_14
REMARK    7  A    between atoms: N_13  and  C_16
REMARK    8  A    between atoms: C_17  and  C_18
REMARK    9  A    between atoms: C_19  and  C_20
REMARK   10  A    between atoms: C_20  and  N_21
REMARK   11  A    between atoms: C_24  and  N_25
REMARK   12  A    between atoms: N_25  and  O_28
REMARK   13  A    between atoms: C_26  and  C_30
REMARK   14  A    between atoms: C_31  and  C_32
REMARK   15  A    between atoms: N_34  and  C_36
REMARK   16  A    between atoms: C_37  and  C_38
REMARK   17  A    between atoms: C_38  and  C_39
REMARK   18  A    between atoms: C_40  and  N_41
REMARK   19  A    between atoms: N_41  and  O_45
REMARK                            x       y       z     vdW  Elec       q    Type
REMARK                         _______ _______ _______ _____ _____    ______ ____
ROOT
ATOM      1  C   UNL     1      -9.229  -8.569  -3.068  0.00  0.00    +0.000 C 
ATOM      2  C   UNL     1      -8.395  -9.429  -3.150  0.00  0.00    +0.000 C 
ENDROOT
BRANCH   2   3
ATOM      3  N   UNL     1      -7.459 -10.396  -3.242  0.00  0.00    +0.000 N 
ATOM      4  C   UNL     1      -6.963 -11.070  -4.345  0.00  0.00    +0.000 C 
ATOM      5  O   UNL     1      -7.439 -11.012  -5.474  0.00  0.00    +0.000 OA
BRANCH   4   6
ATOM      6  C   UNL     1      -5.818 -11.933  -4.140  0.00  0.00    +0.000 C 
ATOM      7  C   UNL     1      -4.860 -12.639  -3.976  0.00  0.00    +0.000 C 
BRANCH   7   8
ATOM      8  C   UNL     1      -3.700 -13.478  -3.798  0.00  0.00    +0.000 C 
ATOM      9  O   UNL     1      -3.679 -14.272  -2.869  0.00  0.00    +0.000 OA
ATOM     10  N   UNL     1      -2.697 -13.295  -4.724  0.00  0.00    +0.000 N 
ATOM     11  H   UNL     1      -2.870 -12.599  -5.438  0.00  0.00    +0.000 HD
BRANCH  10  12
ATOM     12  C   UNL     1      -1.505 -13.922  -4.821  0.00  0.00    +0.000 C 
ATOM     13  C   UNL     1      -0.448 -14.484  -4.906  0.00  0.00    +0.000 C 
BRANCH  13  14
ATOM     14  C   UNL     1       0.897 -15.209  -5.013  0.00  0.00    +0.000 C 
BRANCH  14  15
ATOM     15  C   UNL     1       2.246 -15.927  -5.117  0.00  0.00    +0.000 C 
ATOM     16  C   UNL     1       3.303 -16.490  -5.196  0.00  0.00    +0.000 C 
BRANCH  16  17
ATOM     17  N   UNL     1       4.488 -17.125  -5.278  0.00  0.00    +0.000 N 
ATOM     18  C   UNL     1       5.764 -16.644  -5.454  0.00  0.00    +0.000 C 
ATOM     19  O   UNL     1       6.159 -15.499  -5.580  0.00  0.00    +0.000 OA
ATOM     20  C   UNL     1       6.916 -17.616  -5.512  0.00  0.00    +0.000 C 
BRANCH  17  21
ATOM     21  O   UNL     1       4.280 -18.523  -5.155  0.00  0.00    +0.000 OA
ATOM     22  H   UNL     1       4.003 -18.625  -4.221  0.00  0.00    +0.000 HD
ENDBRANCH  17  21
ENDBRANCH  16  17
ENDBRANCH  14  15
ENDBRANCH  13  14
ENDBRANCH  10  12
ENDBRANCH   7   8
ENDBRANCH   4   6
BRANCH   3  23
ATOM     23  O   UNL     1      -6.673 -10.402  -2.067  0.00  0.00    +0.000 OA
ATOM     24  H   UNL     1      -5.793 -10.621  -2.424  0.00  0.00    +0.000 HD
ENDBRANCH   3  23
ENDBRANCH   2   3
BRANCH   1  25
ATOM     25  C   UNL     1     -10.302  -7.482  -2.954  0.00  0.00    +0.000 C 
ATOM     26  C   UNL     1     -11.147  -6.637  -2.853  0.00  0.00    +0.000 C 
BRANCH  26  27
ATOM     27  C   UNL     1     -12.231  -5.563  -2.713  0.00  0.00    +0.000 C 
BRANCH  27  28
ATOM     28  N   UNL     1     -13.175  -4.604  -2.594  0.00  0.00    +0.000 N 
ATOM     29  C   UNL     1     -14.191  -4.276  -3.459  0.00  0.00    +0.000 C 
ATOM     30  O   UNL     1     -14.422  -4.820  -4.530  0.00  0.00    +0.000 OA
ATOM     31  H   UNL     1     -13.115  -4.065  -1.739  0.00  0.00    +0.000 HD
BRANCH  29  32
ATOM     32  C   UNL     1     -15.039  -3.191  -3.030  0.00  0.00    +0.000 C 
ATOM     33  C   UNL     1     -15.761  -2.303  -2.665  0.00  0.00    +0.000 C 
BRANCH  33  34
ATOM     34  C   UNL     1     -16.639  -1.245  -2.207  0.00  0.00    +0.000 C 
ATOM     35  O   UNL     1     -17.848  -1.433  -2.291  0.00  0.00    +0.000 OA
ATOM     36  N   UNL     1     -16.048  -0.082  -1.742  0.00  0.00    +0.000 N 
BRANCH  36  37
ATOM     37  C   UNL     1     -16.586   0.994  -1.131  0.00  0.00    +0.000 C 
ATOM     38  C   UNL     1     -17.066   1.949  -0.586  0.00  0.00    +0.000 C 
BRANCH  38  39
ATOM     39  C   UNL     1     -17.686   3.166   0.108  0.00  0.00    +0.000 C 
ATOM     40  C   UNL     1     -18.170   4.117   0.657  0.00  0.00    +0.000 C 
BRANCH  40  41
ATOM     41  C   UNL     1     -18.787   5.328   1.360  0.00  0.00    +0.000 C 
BRANCH  41  42
ATOM     42  N   UNL     1     -19.373   6.479   2.029  0.00  0.00    +0.000 NA
ATOM     43  H   UNL     1     -20.389   6.444   1.972  0.00  0.00    +0.000 HD
ATOM     44  H   UNL     1     -19.146   6.466   3.022  0.00  0.00    +0.000 HD
ENDBRANCH  41  42
ENDBRANCH  40  41
ENDBRANCH  38  39
ENDBRANCH  36  37
BRANCH  36  45
ATOM     45  O   UNL     1     -14.654  -0.105  -1.514  0.00  0.00    +0.000 OA
ATOM     46  H   UNL     1     -14.321  -0.405  -2.381  0.00  0.00    +0.000 HD
ENDBRANCH  36  45
ENDBRANCH  33  34
ENDBRANCH  29  32
ENDBRANCH  27  28
ENDBRANCH  26  27
ENDBRANCH   1  25
TORSDOF 19
ENDMDL
MODEL 6
REMARK VINA RESULT:      -4.0     18.889     24.920
REMARK  Name = Deferoxamine.pdbqt.pdb
REMARK  19 active torsions:
REMARK  status: ('A' for Active; 'I' for Inactive)
REMARK    1  A    between atoms: C_1  and  C_2
REMARK    2  A    between atoms: C_3  and  C_4
REMARK    3  A    between atoms: C_4  and  N_5
REMARK    4  A    between atoms: C_6  and  C_9
REMARK    5  A    between atoms: C_10  and  C_11
REMARK    6  A    between atoms: N_13  and  O_14
REMARK    7  A    between atoms: N_13  and  C_16
REMARK    8  A    between atoms: C_17  and  C_18
REMARK    9  A    between atoms: C_19  and  C_20
REMARK   10  A    between atoms: C_20  and  N_21
REMARK   11  A    between atoms: C_24  and  N_25
REMARK   12  A    between atoms: N_25  and  O_28
REMARK   13  A    between atoms: C_26  and  C_30
REMARK   14  A    between atoms: C_31  and  C_32
REMARK   15  A    between atoms: N_34  and  C_36
REMARK   16  A    between atoms: C_37  and  C_38
REMARK   17  A    between atoms: C_38  and  C_39
REMARK   18  A    between atoms: C_40  and  N_41
REMARK   19  A    between atoms: N_41  and  O_45
REMARK                            x       y       z     vdW  Elec       q    Type
REMARK                         _______ _______ _______ _____ _____    ______ ____
ROOT
ATOM      1  C   UNL     1      -4.701  -5.594   1.298  0.00  0.00    +0.000 C 
ATOM      2  C   UNL     1      -5.101  -6.520   0.644  0.00  0.00    +0.000 C 
ENDROOT
BRANCH   2   3
ATOM      3  N   UNL     1      -5.552  -7.559  -0.088  0.00  0.00    +0.000 N 
ATOM      4  C   UNL     1      -6.572  -7.631  -1.021  0.00  0.00    +0.000 C 
ATOM      5  O   UNL     1      -7.394  -6.745  -1.230  0.00  0.00    +0.000 OA
BRANCH   4   6
ATOM      6  C   UNL     1      -6.696  -8.858  -1.781  0.00  0.00    +0.000 C 
ATOM      7  C   UNL     1      -6.802  -9.882  -2.400  0.00  0.00    +0.000 C 
BRANCH   7   8
ATOM      8  C   UNL     1      -6.923 -11.124  -3.123  0.00  0.00    +0.000 C 
ATOM      9  O   UNL     1      -7.738 -11.205  -4.030  0.00  0.00    +0.000 OA
ATOM     10  N   UNL     1      -6.078 -12.129  -2.708  0.00  0.00    +0.000 N 
ATOM     11  H   UNL     1      -5.455 -11.901  -1.943  0.00  0.00    +0.000 HD
BRANCH  10  12
ATOM     12  C   UNL     1      -5.956 -13.388  -3.181  0.00  0.00    +0.000 C 
ATOM     13  C   UNL     1      -5.842 -14.505  -3.605  0.00  0.00    +0.000 C 
BRANCH  13  14
ATOM     14  C   UNL     1      -5.688 -15.929  -4.148  0.00  0.00    +0.000 C 
BRANCH  14  15
ATOM     15  C   UNL     1      -5.543 -17.354  -4.689  0.00  0.00    +0.000 C 
ATOM     16  C   UNL     1      -5.426 -18.470  -5.114  0.00  0.00    +0.000 C 
BRANCH  16  17
ATOM     17  N   UNL     1      -5.289 -19.723  -5.589  0.00  0.00    +0.000 N 
ATOM     18  C   UNL     1      -4.487 -20.764  -5.183  0.00  0.00    +0.000 C 
ATOM     19  O   UNL     1      -3.681 -20.823  -4.271  0.00  0.00    +0.000 OA
ATOM     20  C   UNL     1      -4.549 -22.075  -5.926  0.00  0.00    +0.000 C 
BRANCH  17  21
ATOM     21  O   UNL     1      -6.157 -19.903  -6.697  0.00  0.00    +0.000 OA
ATOM     22  H   UNL     1      -6.998 -20.178  -6.277  0.00  0.00    +0.000 HD
ENDBRANCH  17  21
ENDBRANCH  16  17
ENDBRANCH  14  15
ENDBRANCH  13  14
ENDBRANCH  10  12
ENDBRANCH   7   8
ENDBRANCH   4   6
BRANCH   3  23
ATOM     23  O   UNL     1      -4.567  -8.572  -0.119  0.00  0.00    +0.000 OA
ATOM     24  H   UNL     1      -5.090  -9.342  -0.413  0.00  0.00    +0.000 HD
ENDBRANCH   3  23
ENDBRANCH   2   3
BRANCH   1  25
ATOM     25  C   UNL     1      -4.190  -4.424   2.143  0.00  0.00    +0.000 C 
ATOM     26  C   UNL     1      -3.777  -3.513   2.804  0.00  0.00    +0.000 C 
BRANCH  26  27
ATOM     27  C   UNL     1      -3.236  -2.353   3.647  0.00  0.00    +0.000 C 
BRANCH  27  28
ATOM     28  N   UNL     1      -2.755  -1.322   4.375  0.00  0.00    +0.000 N 
ATOM     29  C   UNL     1      -1.517  -1.175   4.955  0.00  0.00    +0.000 C 
ATOM     30  O   UNL     1      -0.604  -1.987   4.909  0.00  0.00    +0.000 OA
ATOM     31  H   UNL     1      -3.406  -0.557   4.496  0.00  0.00    +0.000 HD
BRANCH  29  32
ATOM     32  C   UNL     1      -1.316   0.061   5.671  0.00  0.00    +0.000 C 
ATOM     33  C   UNL     1      -1.126   1.084   6.273  0.00  0.00    +0.000 C 
BRANCH  33  34
ATOM     34  C   UNL     1      -0.876   2.315   6.994  0.00  0.00    +0.000 C 
ATOM     35  O   UNL     1      -1.270   3.361   6.488  0.00  0.00    +0.000 OA
ATOM     36  N   UNL     1      -0.174   2.226   8.184  0.00  0.00    +0.000 N 
BRANCH  36  37
ATOM     37  C   UNL     1       0.080   3.156   9.127  0.00  0.00    +0.000 C 
ATOM     38  C   UNL     1       0.304   3.987   9.964  0.00  0.00    +0.000 C 
BRANCH  38  39
ATOM     39  C   UNL     1       0.592   5.051  11.028  0.00  0.00    +0.000 C 
ATOM     40  C   UNL     1       0.813   5.888  11.859  0.00  0.00    +0.000 C 
BRANCH  40  41
ATOM     41  C   UNL     1       1.092   6.959  12.917  0.00  0.00    +0.000 C 
BRANCH  41  42
ATOM     42  N   UNL     1       1.358   7.975  13.921  0.00  0.00    +0.000 NA
ATOM     43  H   UNL     1       0.495   8.446  14.188  0.00  0.00    +0.000 HD
ATOM     44  H   UNL     1       1.720   7.548  14.772  0.00  0.00    +0.000 HD
ENDBRANCH  41  42
ENDBRANCH  40  41
ENDBRANCH  38  39
ENDBRANCH  36  37
BRANCH  36  45
ATOM     45  O   UNL     1       0.023   0.937   8.730  0.00  0.00    +0.000 OA
ATOM     46  H   UNL     1       0.207   0.414   7.928  0.00  0.00    +0.000 HD
ENDBRANCH  36  45
ENDBRANCH  33  34
ENDBRANCH  29  32
ENDBRANCH  27  28
ENDBRANCH  26  27
ENDBRANCH   1  25
TORSDOF 19
ENDMDL
MODEL 7
REMARK VINA RESULT:      -4.0     16.609     20.535
REMARK  Name = Deferoxamine.pdbqt.pdb
REMARK  19 active torsions:
REMARK  status: ('A' for Active; 'I' for Inactive)
REMARK    1  A    between atoms: C_1  and  C_2
REMARK    2  A    between atoms: C_3  and  C_4
REMARK    3  A    between atoms: C_4  and  N_5
REMARK    4  A    between atoms: C_6  and  C_9
REMARK    5  A    between atoms: C_10  and  C_11
REMARK    6  A    between atoms: N_13  and  O_14
REMARK    7  A    between atoms: N_13  and  C_16
REMARK    8  A    between atoms: C_17  and  C_18
REMARK    9  A    between atoms: C_19  and  C_20
REMARK   10  A    between atoms: C_20  and  N_21
REMARK   11  A    between atoms: C_24  and  N_25
REMARK   12  A    between atoms: N_25  and  O_28
REMARK   13  A    between atoms: C_26  and  C_30
REMARK   14  A    between atoms: C_31  and  C_32
REMARK   15  A    between atoms: N_34  and  C_36
REMARK   16  A    between atoms: C_37  and  C_38
REMARK   17  A    between atoms: C_38  and  C_39
REMARK   18  A    between atoms: C_40  and  N_41
REMARK   19  A    between atoms: N_41  and  O_45
REMARK                            x       y       z     vdW  Elec       q    Type
REMARK                         _______ _______ _______ _____ _____    ______ ____
ROOT
ATOM      1  C   UNL     1       3.742 -12.520  13.267  0.00  0.00    +0.000 C 
ATOM      2  C   UNL     1       4.192 -11.408  13.343  0.00  0.00    +0.000 C 
ENDROOT
BRANCH   2   3
ATOM      3  N   UNL     1       4.698 -10.161  13.428  0.00  0.00    +0.000 N 
ATOM      4  C   UNL     1       4.889  -9.196  12.454  0.00  0.00    +0.000 C 
ATOM      5  O   UNL     1       4.776  -9.386  11.247  0.00  0.00    +0.000 OA
BRANCH   4   6
ATOM      6  C   UNL     1       5.287  -7.874  12.893  0.00  0.00    +0.000 C 
ATOM      7  C   UNL     1       5.613  -6.781  13.270  0.00  0.00    +0.000 C 
BRANCH   7   8
ATOM      8  C   UNL     1       5.987  -5.470  13.739  0.00  0.00    +0.000 C 
ATOM      9  O   UNL     1       7.017  -4.962  13.321  0.00  0.00    +0.000 OA
ATOM     10  N   UNL     1       5.117  -4.900  14.642  0.00  0.00    +0.000 N 
ATOM     11  H   UNL     1       4.302  -5.449  14.884  0.00  0.00    +0.000 HD
BRANCH  10  12
ATOM     12  C   UNL     1       5.193  -3.698  15.253  0.00  0.00    +0.000 C 
ATOM     13  C   UNL     1       5.265  -2.629  15.794  0.00  0.00    +0.000 C 
BRANCH  13  14
ATOM     14  C   UNL     1       5.363  -1.262  16.477  0.00  0.00    +0.000 C 
BRANCH  14  15
ATOM     15  C   UNL     1       5.457   0.102  17.168  0.00  0.00    +0.000 C 
ATOM     16  C   UNL     1       5.530   1.172  17.706  0.00  0.00    +0.000 C 
BRANCH  16  17
ATOM     17  N   UNL     1       5.607   2.376  18.307  0.00  0.00    +0.000 N 
ATOM     18  C   UNL     1       5.737   2.721  19.631  0.00  0.00    +0.000 C 
ATOM     19  O   UNL     1       5.822   2.015  20.621  0.00  0.00    +0.000 OA
ATOM     20  C   UNL     1       5.793   4.180  20.010  0.00  0.00    +0.000 C 
BRANCH  17  21
ATOM     21  O   UNL     1       5.527   3.396  17.324  0.00  0.00    +0.000 OA
ATOM     22  H   UNL     1       6.169   4.063  17.644  0.00  0.00    +0.000 HD
ENDBRANCH  17  21
ENDBRANCH  16  17
ENDBRANCH  14  15
ENDBRANCH  13  14
ENDBRANCH  10  12
ENDBRANCH   7   8
ENDBRANCH   4   6
BRANCH   3  23
ATOM     23  O   UNL     1       4.659  -9.730  14.773  0.00  0.00    +0.000 OA
ATOM     24  H   UNL     1       3.768  -9.338  14.825  0.00  0.00    +0.000 HD
ENDBRANCH   3  23
ENDBRANCH   2   3
BRANCH   1  25
ATOM     25  C   UNL     1       3.184 -13.942  13.171  0.00  0.00    +0.000 C 
ATOM     26  C   UNL     1       2.734 -15.051  13.092  0.00  0.00    +0.000 C 
BRANCH  26  27
ATOM     27  C   UNL     1       2.147 -16.463  12.987  0.00  0.00    +0.000 C 
BRANCH  27  28
ATOM     28  N   UNL     1       1.615 -17.702  12.905  0.00  0.00    +0.000 N 
ATOM     29  C   UNL     1       1.857 -18.802  13.693  0.00  0.00    +0.000 C 
ATOM     30  O   UNL     1       2.627 -18.846  14.642  0.00  0.00    +0.000 OA
ATOM     31  H   UNL     1       0.942 -17.818  12.158  0.00  0.00    +0.000 HD
BRANCH  29  32
ATOM     32  C   UNL     1       1.115 -19.987  13.339  0.00  0.00    +0.000 C 
ATOM     33  C   UNL     1       0.498 -20.968  13.022  0.00  0.00    +0.000 C 
BRANCH  33  34
ATOM     34  C   UNL     1      -0.236 -22.150  12.619  0.00  0.00    +0.000 C 
ATOM     35  O   UNL     1      -0.133 -23.151  13.321  0.00  0.00    +0.000 OA
ATOM     36  N   UNL     1      -0.971 -22.076  11.448  0.00  0.00    +0.000 N 
BRANCH  36  37
ATOM     37  C   UNL     1      -1.850 -22.943  10.905  0.00  0.00    +0.000 C 
ATOM     38  C   UNL     1      -2.630 -23.717  10.422  0.00  0.00    +0.000 C 
BRANCH  38  39
ATOM     39  C   UNL     1      -3.620 -24.709   9.802  0.00  0.00    +0.000 C 
ATOM     40  C   UNL     1      -4.396 -25.487   9.322  0.00  0.00    +0.000 C 
BRANCH  40  41
ATOM     41  C   UNL     1      -5.387 -26.483   8.712  0.00  0.00    +0.000 C 
BRANCH  41  42
ATOM     42  N   UNL     1      -6.327 -27.429   8.133  0.00  0.00    +0.000 NA
ATOM     43  H   UNL     1      -5.980 -28.381   8.233  0.00  0.00    +0.000 HD
ATOM     44  H   UNL     1      -7.214 -27.399   8.632  0.00  0.00    +0.000 HD
ENDBRANCH  41  42
ENDBRANCH  40  41
ENDBRANCH  38  39
ENDBRANCH  36  37
BRANCH  36  45
ATOM     45  O   UNL     1      -1.155 -20.798  10.873  0.00  0.00    +0.000 OA
ATOM     46  H   UNL     1      -1.100 -21.004   9.921  0.00  0.00    +0.000 HD
ENDBRANCH  36  45
ENDBRANCH  33  34
ENDBRANCH  29  32
ENDBRANCH  27  28
ENDBRANCH  26  27
ENDBRANCH   1  25
TORSDOF 19
ENDMDL
MODEL 8
REMARK VINA RESULT:      -4.0     16.668     20.819
REMARK  Name = Deferoxamine.pdbqt.pdb
REMARK  19 active torsions:
REMARK  status: ('A' for Active; 'I' for Inactive)
REMARK    1  A    between atoms: C_1  and  C_2
REMARK    2  A    between atoms: C_3  and  C_4
REMARK    3  A    between atoms: C_4  and  N_5
REMARK    4  A    between atoms: C_6  and  C_9
REMARK    5  A    between atoms: C_10  and  C_11
REMARK    6  A    between atoms: N_13  and  O_14
REMARK    7  A    between atoms: N_13  and  C_16
REMARK    8  A    between atoms: C_17  and  C_18
REMARK    9  A    between atoms: C_19  and  C_20
REMARK   10  A    between atoms: C_20  and  N_21
REMARK   11  A    between atoms: C_24  and  N_25
REMARK   12  A    between atoms: N_25  and  O_28
REMARK   13  A    between atoms: C_26  and  C_30
REMARK   14  A    between atoms: C_31  and  C_32
REMARK   15  A    between atoms: N_34  and  C_36
REMARK   16  A    between atoms: C_37  and  C_38
REMARK   17  A    between atoms: C_38  and  C_39
REMARK   18  A    between atoms: C_40  and  N_41
REMARK   19  A    between atoms: N_41  and  O_45
REMARK                            x       y       z     vdW  Elec       q    Type
REMARK                         _______ _______ _______ _____ _____    ______ ____
ROOT
ATOM      1  C   UNL     1       3.680 -12.647  13.218  0.00  0.00    +0.000 C 
ATOM      2  C   UNL     1       4.104 -11.524  13.255  0.00  0.00    +0.000 C 
ENDROOT
BRANCH   2   3
ATOM      3  N   UNL     1       4.583 -10.263  13.296  0.00  0.00    +0.000 N 
ATOM      4  C   UNL     1       4.824  -9.356  12.278  0.00  0.00    +0.000 C 
ATOM      5  O   UNL     1       4.797  -9.622  11.081  0.00  0.00    +0.000 OA
BRANCH   4   6
ATOM      6  C   UNL     1       5.168  -8.002  12.660  0.00  0.00    +0.000 C 
ATOM      7  C   UNL     1       5.447  -6.880  12.988  0.00  0.00    +0.000 C 
BRANCH   7   8
ATOM      8  C   UNL     1       5.760  -5.532  13.394  0.00  0.00    +0.000 C 
ATOM      9  O   UNL     1       6.577  -4.893  12.746  0.00  0.00    +0.000 OA
ATOM     10  N   UNL     1       5.085  -5.083  14.506  0.00  0.00    +0.000 N 
ATOM     11  H   UNL     1       4.435  -5.734  14.928  0.00  0.00    +0.000 HD
BRANCH  10  12
ATOM     12  C   UNL     1       5.162  -3.883  15.121  0.00  0.00    +0.000 C 
ATOM     13  C   UNL     1       5.226  -2.814  15.664  0.00  0.00    +0.000 C 
BRANCH  13  14
ATOM     14  C   UNL     1       5.299  -1.448  16.354  0.00  0.00    +0.000 C 
BRANCH  14  15
ATOM     15  C   UNL     1       5.373  -0.079  17.035  0.00  0.00    +0.000 C 
ATOM     16  C   UNL     1       5.430   0.996  17.566  0.00  0.00    +0.000 C 
BRANCH  16  17
ATOM     17  N   UNL     1       5.491   2.205  18.157  0.00  0.00    +0.000 N 
ATOM     18  C   UNL     1       4.549   3.197  18.290  0.00  0.00    +0.000 C 
ATOM     19  O   UNL     1       3.394   3.239  17.904  0.00  0.00    +0.000 OA
ATOM     20  C   UNL     1       4.915   4.469  19.014  0.00  0.00    +0.000 C 
BRANCH  17  21
ATOM     21  O   UNL     1       6.787   2.395  18.702  0.00  0.00    +0.000 OA
ATOM     22  H   UNL     1       7.160   1.489  18.711  0.00  0.00    +0.000 HD
ENDBRANCH  17  21
ENDBRANCH  16  17
ENDBRANCH  14  15
ENDBRANCH  13  14
ENDBRANCH  10  12
ENDBRANCH   7   8
ENDBRANCH   4   6
BRANCH   3  23
ATOM     23  O   UNL     1       4.444  -9.752  14.606  0.00  0.00    +0.000 OA
ATOM     24  H   UNL     1       4.729  -8.827  14.484  0.00  0.00    +0.000 HD
ENDBRANCH   3  23
ENDBRANCH   2   3
BRANCH   1  25
ATOM     25  C   UNL     1       3.152 -14.084  13.176  0.00  0.00    +0.000 C 
ATOM     26  C   UNL     1       2.726 -15.205  13.143  0.00  0.00    +0.000 C 
BRANCH  26  27
ATOM     27  C   UNL     1       2.169 -16.631  13.099  0.00  0.00    +0.000 C 
BRANCH  27  28
ATOM     28  N   UNL     1       1.668 -17.885  13.046  0.00  0.00    +0.000 N 
ATOM     29  C   UNL     1       1.982 -18.907  12.183  0.00  0.00    +0.000 C 
ATOM     30  O   UNL     1       2.803 -18.852  11.278  0.00  0.00    +0.000 OA
ATOM     31  H   UNL     1       0.969 -18.085  13.751  0.00  0.00    +0.000 HD
BRANCH  29  32
ATOM     32  C   UNL     1       1.260 -20.138  12.396  0.00  0.00    +0.000 C 
ATOM     33  C   UNL     1       0.652 -21.162  12.551  0.00  0.00    +0.000 C 
BRANCH  33  34
ATOM     34  C   UNL     1      -0.077 -22.403  12.717  0.00  0.00    +0.000 C 
ATOM     35  O   UNL     1       0.252 -23.354  12.015  0.00  0.00    +0.000 OA
ATOM     36  N   UNL     1      -1.119 -22.413  13.628  0.00  0.00    +0.000 N 
BRANCH  36  37
ATOM     37  C   UNL     1      -1.870 -23.433  14.094  0.00  0.00    +0.000 C 
ATOM     38  C   UNL     1      -2.535 -24.340  14.512  0.00  0.00    +0.000 C 
BRANCH  38  39
ATOM     39  C   UNL     1      -3.379 -25.502  15.045  0.00  0.00    +0.000 C 
ATOM     40  C   UNL     1      -4.038 -26.416  15.460  0.00  0.00    +0.000 C 
BRANCH  40  41
ATOM     41  C   UNL     1      -4.876 -27.584  15.985  0.00  0.00    +0.000 C 
BRANCH  41  42
ATOM     42  N   UNL     1      -5.673 -28.693  16.485  0.00  0.00    +0.000 NA
ATOM     43  H   UNL     1      -5.127 -29.553  16.481  0.00  0.00    +0.000 HD
ATOM     44  H   UNL     1      -5.938 -28.531  17.455  0.00  0.00    +0.000 HD
ENDBRANCH  41  42
ENDBRANCH  40  41
ENDBRANCH  38  39
ENDBRANCH  36  37
BRANCH  36  45
ATOM     45  O   UNL     1      -1.234 -21.308  14.501  0.00  0.00    +0.000 OA
ATOM     46  H   UNL     1      -0.377 -21.339  14.966  0.00  0.00    +0.000 HD
ENDBRANCH  36  45
ENDBRANCH  33  34
ENDBRANCH  29  32
ENDBRANCH  27  28
ENDBRANCH  26  27
ENDBRANCH   1  25
TORSDOF 19
ENDMDL
MODEL 9
REMARK VINA RESULT:      -3.9     18.994     19.776
REMARK  Name = Deferoxamine.pdbqt.pdb
REMARK  19 active torsions:
REMARK  status: ('A' for Active; 'I' for Inactive)
REMARK    1  A    between atoms: C_1  and  C_2
REMARK    2  A    between atoms: C_3  and  C_4
REMARK    3  A    between atoms: C_4  and  N_5
REMARK    4  A    between atoms: C_6  and  C_9
REMARK    5  A    between atoms: C_10  and  C_11
REMARK    6  A    between atoms: N_13  and  O_14
REMARK    7  A    between atoms: N_13  and  C_16
REMARK    8  A    between atoms: C_17  and  C_18
REMARK    9  A    between atoms: C_19  and  C_20
REMARK   10  A    between atoms: C_20  and  N_21
REMARK   11  A    between atoms: C_24  and  N_25
REMARK   12  A    between atoms: N_25  and  O_28
REMARK   13  A    between atoms: C_26  and  C_30
REMARK   14  A    between atoms: C_31  and  C_32
REMARK   15  A    between atoms: N_34  and  C_36
REMARK   16  A    between atoms: C_37  and  C_38
REMARK   17  A    between atoms: C_38  and  C_39
REMARK   18  A    between atoms: C_40  and  N_41
REMARK   19  A    between atoms: N_41  and  O_45
REMARK                            x       y       z     vdW  Elec       q    Type
REMARK                         _______ _______ _______ _____ _____    ______ ____
ROOT
ATOM      1  C   UNL     1     -10.362  -6.502  -3.243  0.00  0.00    +0.000 C 
ATOM      2  C   UNL     1     -11.205  -5.647  -3.193  0.00  0.00    +0.000 C 
ENDROOT
BRANCH   2   3
ATOM      3  N   UNL     1     -12.153  -4.689  -3.136  0.00  0.00    +0.000 N 
ATOM      4  C   UNL     1     -13.248  -4.453  -3.949  0.00  0.00    +0.000 C 
ATOM      5  O   UNL     1     -13.459  -5.013  -5.019  0.00  0.00    +0.000 OA
BRANCH   4   6
ATOM      6  C   UNL     1     -14.194  -3.445  -3.517  0.00  0.00    +0.000 C 
ATOM      7  C   UNL     1     -14.973  -2.609  -3.146  0.00  0.00    +0.000 C 
BRANCH   7   8
ATOM      8  C   UNL     1     -15.907  -1.614  -2.680  0.00  0.00    +0.000 C 
ATOM      9  O   UNL     1     -17.087  -1.721  -2.980  0.00  0.00    +0.000 OA
ATOM     10  N   UNL     1     -15.358  -0.608  -1.916  0.00  0.00    +0.000 N 
ATOM     11  H   UNL     1     -14.361  -0.664  -1.753  0.00  0.00    +0.000 HD
BRANCH  10  12
ATOM     12  C   UNL     1     -15.966   0.454  -1.343  0.00  0.00    +0.000 C 
ATOM     13  C   UNL     1     -16.503   1.400  -0.836  0.00  0.00    +0.000 C 
BRANCH  13  14
ATOM     14  C   UNL     1     -17.181   2.613  -0.192  0.00  0.00    +0.000 C 
BRANCH  14  15
ATOM     15  C   UNL     1     -17.862   3.828   0.443  0.00  0.00    +0.000 C 
ATOM     16  C   UNL     1     -18.394   4.783   0.941  0.00  0.00    +0.000 C 
BRANCH  16  17
ATOM     17  N   UNL     1     -18.986   5.858   1.496  0.00  0.00    +0.000 N 
ATOM     18  C   UNL     1     -18.590   7.172   1.573  0.00  0.00    +0.000 C 
ATOM     19  O   UNL     1     -17.585   7.714   1.148  0.00  0.00    +0.000 OA
ATOM     20  C   UNL     1     -19.478   8.169   2.275  0.00  0.00    +0.000 C 
BRANCH  17  21
ATOM     21  O   UNL     1     -20.219   5.465   2.078  0.00  0.00    +0.000 OA
ATOM     22  H   UNL     1     -20.815   5.390   1.305  0.00  0.00    +0.000 HD
ENDBRANCH  17  21
ENDBRANCH  16  17
ENDBRANCH  14  15
ENDBRANCH  13  14
ENDBRANCH  10  12
ENDBRANCH   7   8
ENDBRANCH   4   6
BRANCH   3  23
ATOM     23  O   UNL     1     -12.166  -4.120  -1.842  0.00  0.00    +0.000 OA
ATOM     24  H   UNL     1     -11.372  -4.522  -1.445  0.00  0.00    +0.000 HD
ENDBRANCH   3  23
ENDBRANCH   2   3
BRANCH   1  25
ATOM     25  C   UNL     1      -9.297  -7.599  -3.317  0.00  0.00    +0.000 C 
ATOM     26  C   UNL     1      -8.460  -8.456  -3.388  0.00  0.00    +0.000 C 
BRANCH  26  27
ATOM     27  C   UNL     1      -7.388  -9.546  -3.493  0.00  0.00    +0.000 C 
BRANCH  27  28
ATOM     28  N   UNL     1      -6.433 -10.497  -3.574  0.00  0.00    +0.000 N 
ATOM     29  C   UNL     1      -5.414 -10.625  -4.489  0.00  0.00    +0.000 C 
ATOM     30  O   UNL     1      -5.192  -9.869  -5.423  0.00  0.00    +0.000 OA
ATOM     31  H   UNL     1      -6.483 -11.202  -2.850  0.00  0.00    +0.000 HD
BRANCH  29  32
ATOM     32  C   UNL     1      -4.551 -11.765  -4.293  0.00  0.00    +0.000 C 
ATOM     33  C   UNL     1      -3.843 -12.717  -4.109  0.00  0.00    +0.000 C 
BRANCH  33  34
ATOM     34  C   UNL     1      -3.004 -13.875  -3.874  0.00  0.00    +0.000 C 
ATOM     35  O   UNL     1      -3.164 -14.490  -2.824  0.00  0.00    +0.000 OA
ATOM     36  N   UNL     1      -2.057 -14.182  -4.836  0.00  0.00    +0.000 N 
BRANCH  36  37
ATOM     37  C   UNL     1      -1.249 -15.255  -4.964  0.00  0.00    +0.000 C 
ATOM     38  C   UNL     1      -0.532 -16.211  -5.076  0.00  0.00    +0.000 C 
BRANCH  38  39
ATOM     39  C   UNL     1       0.380 -17.434  -5.213  0.00  0.00    +0.000 C 
ATOM     40  C   UNL     1       1.093 -18.393  -5.326  0.00  0.00    +0.000 C 
BRANCH  40  41
ATOM     41  C   UNL     1       2.001 -19.616  -5.473  0.00  0.00    +0.000 C 
BRANCH  41  42
ATOM     42  N   UNL     1       2.864 -20.778  -5.612  0.00  0.00    +0.000 NA
ATOM     43  H   UNL     1       3.843 -20.503  -5.559  0.00  0.00    +0.000 HD
ATOM     44  H   UNL     1       2.712 -21.428  -4.843  0.00  0.00    +0.000 HD
ENDBRANCH  41  42
ENDBRANCH  40  41
ENDBRANCH  38  39
ENDBRANCH  36  37
BRANCH  36  45
ATOM     45  O   UNL     1      -2.142 -13.507  -6.074  0.00  0.00    +0.000 OA
ATOM     46  H   UNL     1      -1.283 -13.733  -6.477  0.00  0.00    +0.000 HD
ENDBRANCH  36  45
ENDBRANCH  33  34
ENDBRANCH  29  32
ENDBRANCH  27  28
ENDBRANCH  26  27
ENDBRANCH   1  25
TORSDOF 19
ENDMDL
