MODEL 1
REMARK VINA RESULT:      -6.5      0.000      0.000
REMARK  Name = 
REMARK  25 active torsions:
REMARK  status: ('A' for Active; 'I' for Inactive)
REMARK    1  A    between atoms: O_2  and  C_17
REMARK    2  A    between atoms: O_2  and  C_36
REMARK    3  A    between atoms: O_3  and  C_20
REMARK    4  A    between atoms: O_3  and  C_37
REMARK    5  A    between atoms: O_4  and  C_21
REMARK    6  A    between atoms: O_5  and  C_22
REMARK    7  A    between atoms: O_7  and  C_30
REMARK    8  A    between atoms: O_8  and  C_31
REMARK    9  A    between atoms: O_8  and  C_39
REMARK   10  A    between atoms: O_12  and  C_41
REMARK   11  A    between atoms: O_13  and  C_51
REMARK   12  A    between atoms: O_13  and  C_55
REMARK   13  A    between atoms: N_15  and  C_44
REMARK   14  A    between atoms: C_18  and  C_29
REMARK   15  A    between atoms: C_24  and  C_33
REMARK   16  A    between atoms: C_24  and  C_34
REMARK   17  A    between atoms: C_32  and  C_35
REMARK   18  A    between atoms: C_36  and  C_38
REMARK   19  A    between atoms: C_37  and  C_40
REMARK   20  A    between atoms: C_39  and  C_41
REMARK   21  A    between atoms: C_41  and  C_44
REMARK   22  A    between atoms: C_44  and  C_48
REMARK   23  A    between atoms: C_55  and  C_56
REMARK   24  A    between atoms: C_55  and  C_57
REMARK   25  A    between atoms: C_55  and  C_58
REMARK                            x       y       z     vdW  Elec       q    Type
REMARK                         _______ _______ _______ _____ _____    ______ ____
ROOT
ATOM      1  O   UNL     1     -25.264   5.502   6.388  0.00  0.00    +0.000 OA
ATOM      2  O   UNL     1     -24.792   5.072  13.077  0.00  0.00    +0.000 OA
ATOM      3  C   UNL     1     -23.578   4.000   8.987  0.00  0.00    +0.000 C 
ATOM      4  C   UNL     1     -24.506   4.020   7.736  0.00  0.00    +0.000 C 
ATOM      5  C   UNL     1     -24.681   4.316  10.499  0.00  0.00    +0.000 C 
ATOM      6  C   UNL     1     -24.880   5.557   7.789  0.00  0.00    +0.000 C 
ATOM      7  C   UNL     1     -22.352   2.597   8.930  0.00  0.00    +0.000 C 
ATOM      8  C   UNL     1     -20.964   1.800   9.943  0.00  0.00    +0.000 C 
ATOM      9  C   UNL     1     -25.288   5.754  10.228  0.00  0.00    +0.000 C 
ATOM     10  C   UNL     1     -25.917   5.960   8.816  0.00  0.00    +0.000 C 
ATOM     11  C   UNL     1     -20.538   2.075  11.645  0.00  0.00    +0.000 C 
ATOM     12  C   UNL     1     -24.211   4.467   6.249  0.00  0.00    +0.000 C 
ATOM     13  C   UNL     1     -24.193   4.280  12.317  0.00  0.00    +0.000 C 
ATOM     14  C   UNL     1     -21.317   0.242   9.990  0.00  0.00    +0.000 C 
ATOM     15  C   UNL     1     -21.801   1.881  12.608  0.00  0.00    +0.000 C 
ATOM     16  C   UNL     1     -25.961   3.379  10.519  0.00  0.00    +0.000 C 
ATOM     17  C   UNL     1     -22.886   3.177  13.186  0.00  0.00    +0.000 C 
ATOM     18  C   UNL     1     -22.085  -0.312  11.276  0.00  0.00    +0.000 C 
ATOM     19  C   UNL     1     -22.304   0.604  12.532  0.00  0.00    +0.000 C 
ATOM     20  C   UNL     1     -19.465   0.943  12.050  0.00  0.00    +0.000 C 
ATOM     21  C   UNL     1     -19.612   3.277  12.016  0.00  0.00    +0.000 C 
ATOM     22  C   UNL     1     -23.327   0.077  13.509  0.00  0.00    +0.000 C 
ENDROOT
BRANCH  17  23
ATOM     23  O   UNL     1     -22.116   3.893  14.152  0.00  0.00    +0.000 OA
ATOM     24  H   UNL     1     -21.227   3.492  14.112  0.00  0.00    +0.000 HD
ENDBRANCH  17  23
BRANCH   9  25
ATOM     25  O   UNL     1     -24.246   6.722  10.360  0.00  0.00    +0.000 OA
ATOM     26  H   UNL     1     -24.471   7.466   9.773  0.00  0.00    +0.000 HD
ENDBRANCH   9  25
BRANCH   8  27
ATOM     27  O   UNL     1     -19.790   1.934   9.119  0.00  0.00    +0.000 OA
ATOM     28  H   UNL     1     -20.050   2.284   8.248  0.00  0.00    +0.000 HD
ENDBRANCH   8  27
BRANCH  18  29
ATOM     29  O   UNL     1     -23.404  -0.755  10.843  0.00  0.00    +0.000 OA
BRANCH  29  31
ATOM     30  O   UNL     1     -24.001  -2.595  12.008  0.00  0.00    +0.000 OA
ATOM     31  C   UNL     1     -23.690  -2.077  10.941  0.00  0.00    +0.000 C 
BRANCH  31  32
ATOM     32  C   UNL     1     -23.437  -2.894   9.669  0.00  0.00    +0.000 C 
BRANCH  32  33
ATOM     33  O   UNL     1     -24.606  -3.241   8.917  0.00  0.00    +0.000 OA
ATOM     34  H   UNL     1     -24.514  -2.796   8.054  0.00  0.00    +0.000 HD
ENDBRANCH  32  33
BRANCH  32  35
ATOM     35  C   UNL     1     -22.611  -4.152  10.049  0.00  0.00    +0.000 C 
BRANCH  35  36
ATOM     36  C   UNL     1     -21.534  -4.481   9.021  0.00  0.00    +0.000 A 
ATOM     37  C   UNL     1     -21.892  -4.653   7.674  0.00  0.00    +0.000 A 
ATOM     38  C   UNL     1     -20.177  -4.581   9.372  0.00  0.00    +0.000 A 
ATOM     39  C   UNL     1     -20.924  -4.944   6.709  0.00  0.00    +0.000 A 
ATOM     40  C   UNL     1     -19.212  -4.873   8.405  0.00  0.00    +0.000 A 
ATOM     41  C   UNL     1     -19.586  -5.057   7.076  0.00  0.00    +0.000 A 
ENDBRANCH  35  36
BRANCH  35  43
ATOM     42  O   UNL     1     -22.074  -6.526  11.577  0.00  0.00    +0.000 OA
ATOM     43  N   UNL     1     -23.465  -5.319  10.223  0.00  0.00    +0.000 N 
ATOM     44  C   UNL     1     -23.072  -6.438  10.882  0.00  0.00    +0.000 C 
ATOM     45  H   UNL     1     -24.248  -5.424   9.591  0.00  0.00    +0.000 HD
BRANCH  44  46
ATOM     46  O   UNL     1     -23.981  -7.411  10.659  0.00  0.00    +0.000 OA
BRANCH  46  47
ATOM     47  C   UNL     1     -23.898  -8.245   9.475  0.00  0.00    +0.000 C 
ATOM     48  C   UNL     1     -22.490  -8.220   8.870  0.00  0.00    +0.000 C 
ATOM     49  C   UNL     1     -24.191  -9.667   9.978  0.00  0.00    +0.000 C 
ATOM     50  C   UNL     1     -24.969  -7.858   8.448  0.00  0.00    +0.000 C 
ENDBRANCH  46  47
ENDBRANCH  44  46
ENDBRANCH  35  43
ENDBRANCH  32  35
ENDBRANCH  31  32
ENDBRANCH  29  31
ENDBRANCH  18  29
BRANCH   7  51
ATOM     51  O   UNL     1     -23.230   1.917   9.638  0.00  0.00    +0.000 OA
BRANCH  51  53
ATOM     52  O   UNL     1     -22.678   1.493   7.755  0.00  0.00    +0.000 OA
ATOM     53  C   UNL     1     -23.550   1.148   8.546  0.00  0.00    +0.000 C 
BRANCH  53  54
ATOM     54  C   UNL     1     -25.164   0.128   8.387  0.00  0.00    +0.000 A 
ATOM     55  C   UNL     1     -26.237   0.080   9.381  0.00  0.00    +0.000 A 
ATOM     56  C   UNL     1     -25.617  -0.611   7.251  0.00  0.00    +0.000 A 
ATOM     57  C   UNL     1     -27.490  -0.572   9.261  0.00  0.00    +0.000 A 
ATOM     58  C   UNL     1     -26.872  -1.272   7.112  0.00  0.00    +0.000 A 
ATOM     59  C   UNL     1     -27.810  -1.254   8.115  0.00  0.00    +0.000 A 
ENDBRANCH  53  54
ENDBRANCH  51  53
ENDBRANCH   7  51
BRANCH   4  60
ATOM     60  O   UNL     1     -25.636   3.127   7.872  0.00  0.00    +0.000 OA
BRANCH  60  62
ATOM     61  O   UNL     1     -26.092   2.353   5.823  0.00  0.00    +0.000 OA
ATOM     62  C   UNL     1     -26.503   2.841   6.874  0.00  0.00    +0.000 C 
ATOM     63  C   UNL     1     -27.939   3.234   7.025  0.00  0.00    +0.000 C 
ENDBRANCH  60  62
ENDBRANCH   4  60
TORSDOF 17
ENDMDL
MODEL 2
REMARK VINA RESULT:      -6.2      2.622      9.757
REMARK  Name = 
REMARK  25 active torsions:
REMARK  status: ('A' for Active; 'I' for Inactive)
REMARK    1  A    between atoms: O_2  and  C_17
REMARK    2  A    between atoms: O_2  and  C_36
REMARK    3  A    between atoms: O_3  and  C_20
REMARK    4  A    between atoms: O_3  and  C_37
REMARK    5  A    between atoms: O_4  and  C_21
REMARK    6  A    between atoms: O_5  and  C_22
REMARK    7  A    between atoms: O_7  and  C_30
REMARK    8  A    between atoms: O_8  and  C_31
REMARK    9  A    between atoms: O_8  and  C_39
REMARK   10  A    between atoms: O_12  and  C_41
REMARK   11  A    between atoms: O_13  and  C_51
REMARK   12  A    between atoms: O_13  and  C_55
REMARK   13  A    between atoms: N_15  and  C_44
REMARK   14  A    between atoms: C_18  and  C_29
REMARK   15  A    between atoms: C_24  and  C_33
REMARK   16  A    between atoms: C_24  and  C_34
REMARK   17  A    between atoms: C_32  and  C_35
REMARK   18  A    between atoms: C_36  and  C_38
REMARK   19  A    between atoms: C_37  and  C_40
REMARK   20  A    between atoms: C_39  and  C_41
REMARK   21  A    between atoms: C_41  and  C_44
REMARK   22  A    between atoms: C_44  and  C_48
REMARK   23  A    between atoms: C_55  and  C_56
REMARK   24  A    between atoms: C_55  and  C_57
REMARK   25  A    between atoms: C_55  and  C_58
REMARK                            x       y       z     vdW  Elec       q    Type
REMARK                         _______ _______ _______ _____ _____    ______ ____
ROOT
ATOM      1  O   UNL     1     -23.063  -6.695  14.814  0.00  0.00    +0.000 OA
ATOM      2  O   UNL     1     -27.515  -6.927   9.786  0.00  0.00    +0.000 OA
ATOM      3  C   UNL     1     -23.481  -6.288  11.421  0.00  0.00    +0.000 C 
ATOM      4  C   UNL     1     -23.159  -5.807  12.866  0.00  0.00    +0.000 C 
ATOM      5  C   UNL     1     -25.361  -6.154  11.198  0.00  0.00    +0.000 C 
ATOM      6  C   UNL     1     -23.856  -7.003  13.636  0.00  0.00    +0.000 C 
ATOM      7  C   UNL     1     -22.282  -5.601  10.169  0.00  0.00    +0.000 C 
ATOM      8  C   UNL     1     -21.928  -5.590   8.308  0.00  0.00    +0.000 C 
ATOM      9  C   UNL     1     -25.941  -7.136  12.298  0.00  0.00    +0.000 C 
ATOM     10  C   UNL     1     -25.366  -6.947  13.735  0.00  0.00    +0.000 C 
ATOM     11  C   UNL     1     -22.974  -6.129   6.979  0.00  0.00    +0.000 C 
ATOM     12  C   UNL     1     -22.015  -6.250  13.864  0.00  0.00    +0.000 C 
ATOM     13  C   UNL     1     -26.367  -6.454   9.636  0.00  0.00    +0.000 C 
ATOM     14  C   UNL     1     -21.755  -4.049   7.921  0.00  0.00    +0.000 C 
ATOM     15  C   UNL     1     -24.415  -5.437   7.044  0.00  0.00    +0.000 C 
ATOM     16  C   UNL     1     -25.922  -4.738  11.643  0.00  0.00    +0.000 C 
ATOM     17  C   UNL     1     -25.874  -6.125   7.811  0.00  0.00    +0.000 C 
ATOM     18  C   UNL     1     -23.020  -3.282   7.321  0.00  0.00    +0.000 C 
ATOM     19  C   UNL     1     -24.325  -4.069   6.939  0.00  0.00    +0.000 C 
ATOM     20  C   UNL     1     -22.284  -5.641   5.608  0.00  0.00    +0.000 C 
ATOM     21  C   UNL     1     -22.994  -7.641   6.588  0.00  0.00    +0.000 C 
ATOM     22  C   UNL     1     -25.533  -3.192   6.720  0.00  0.00    +0.000 C 
ENDROOT
BRANCH  17  23
ATOM     23  O   UNL     1     -26.290  -7.170   6.931  0.00  0.00    +0.000 OA
ATOM     24  H   UNL     1     -26.844  -7.756   7.481  0.00  0.00    +0.000 HD
ENDBRANCH  17  23
BRANCH   9  25
ATOM     25  O   UNL     1     -25.649  -8.479  11.911  0.00  0.00    +0.000 OA
ATOM     26  H   UNL     1     -25.921  -8.573  10.980  0.00  0.00    +0.000 HD
ENDBRANCH   9  25
BRANCH   8  27
ATOM     27  O   UNL     1     -20.627  -6.196   8.183  0.00  0.00    +0.000 OA
ATOM     28  H   UNL     1     -20.373  -6.213   7.243  0.00  0.00    +0.000 HD
ENDBRANCH   8  27
BRANCH  18  29
ATOM     29  O   UNL     1     -23.413  -2.260   8.282  0.00  0.00    +0.000 OA
BRANCH  29  31
ATOM     30  O   UNL     1     -22.215  -0.668   7.219  0.00  0.00    +0.000 OA
ATOM     31  C   UNL     1     -23.125  -0.968   7.984  0.00  0.00    +0.000 C 
BRANCH  31  32
ATOM     32  C   UNL     1     -23.903   0.076   8.793  0.00  0.00    +0.000 C 
BRANCH  32  33
ATOM     33  O   UNL     1     -25.319   0.091   8.578  0.00  0.00    +0.000 OA
ATOM     34  H   UNL     1     -25.486   0.800   7.929  0.00  0.00    +0.000 HD
ENDBRANCH  32  33
BRANCH  32  35
ATOM     35  C   UNL     1     -23.273   1.470   8.530  0.00  0.00    +0.000 C 
BRANCH  35  36
ATOM     36  C   UNL     1     -22.347   1.917   9.656  0.00  0.00    +0.000 A 
ATOM     37  C   UNL     1     -21.040   1.410   9.722  0.00  0.00    +0.000 A 
ATOM     38  C   UNL     1     -22.750   2.858  10.619  0.00  0.00    +0.000 A 
ATOM     39  C   UNL     1     -20.168   1.812  10.736  0.00  0.00    +0.000 A 
ATOM     40  C   UNL     1     -21.876   3.258  11.632  0.00  0.00    +0.000 A 
ATOM     41  C   UNL     1     -20.587   2.732  11.693  0.00  0.00    +0.000 A 
ENDBRANCH  35  36
BRANCH  35  43
ATOM     42  O   UNL     1     -23.719   3.096   6.203  0.00  0.00    +0.000 OA
ATOM     43  N   UNL     1     -24.295   2.488   8.330  0.00  0.00    +0.000 N 
ATOM     44  C   UNL     1     -24.354   3.277   7.228  0.00  0.00    +0.000 C 
ATOM     45  H   UNL     1     -24.786   2.824   9.148  0.00  0.00    +0.000 HD
BRANCH  44  46
ATOM     46  O   UNL     1     -25.247   4.265   7.452  0.00  0.00    +0.000 OA
BRANCH  46  47
ATOM     47  C   UNL     1     -24.856   5.469   8.162  0.00  0.00    +0.000 C 
ATOM     48  C   UNL     1     -23.344   5.702   8.079  0.00  0.00    +0.000 C 
ATOM     49  C   UNL     1     -25.569   6.608   7.417  0.00  0.00    +0.000 C 
ATOM     50  C   UNL     1     -25.354   5.444   9.612  0.00  0.00    +0.000 C 
ENDBRANCH  46  47
ENDBRANCH  44  46
ENDBRANCH  35  43
ENDBRANCH  32  35
ENDBRANCH  31  32
ENDBRANCH  29  31
ENDBRANCH  18  29
BRANCH   7  51
ATOM     51  O   UNL     1     -23.162  -4.639   9.986  0.00  0.00    +0.000 OA
BRANCH  51  53
ATOM     52  O   UNL     1     -21.309  -4.380  10.713  0.00  0.00    +0.000 OA
ATOM     53  C   UNL     1     -22.356  -3.744  10.645  0.00  0.00    +0.000 C 
BRANCH  53  54
ATOM     54  C   UNL     1     -22.985  -2.127  11.457  0.00  0.00    +0.000 A 
ATOM     55  C   UNL     1     -24.387  -1.723  11.565  0.00  0.00    +0.000 A 
ATOM     56  C   UNL     1     -22.219  -1.161  12.180  0.00  0.00    +0.000 A 
ATOM     57  C   UNL     1     -24.907  -0.594  12.248  0.00  0.00    +0.000 A 
ATOM     58  C   UNL     1     -22.722  -0.021  12.872  0.00  0.00    +0.000 A 
ATOM     59  C   UNL     1     -24.065   0.264  12.908  0.00  0.00    +0.000 A 
ENDBRANCH  53  54
ENDBRANCH  51  53
ENDBRANCH   7  51
BRANCH   4  60
ATOM     60  O   UNL     1     -23.722  -4.506  13.154  0.00  0.00    +0.000 OA
BRANCH  60  62
ATOM     61  O   UNL     1     -22.510  -3.568  14.784  0.00  0.00    +0.000 OA
ATOM     62  C   UNL     1     -23.617  -3.878  14.349  0.00  0.00    +0.000 C 
ATOM     63  C   UNL     1     -24.848  -3.679  15.175  0.00  0.00    +0.000 C 
ENDBRANCH  60  62
ENDBRANCH   4  60
TORSDOF 17
ENDMDL
MODEL 3
REMARK VINA RESULT:      -6.2      4.717      8.803
REMARK  Name = 
REMARK  25 active torsions:
REMARK  status: ('A' for Active; 'I' for Inactive)
REMARK    1  A    between atoms: O_2  and  C_17
REMARK    2  A    between atoms: O_2  and  C_36
REMARK    3  A    between atoms: O_3  and  C_20
REMARK    4  A    between atoms: O_3  and  C_37
REMARK    5  A    between atoms: O_4  and  C_21
REMARK    6  A    between atoms: O_5  and  C_22
REMARK    7  A    between atoms: O_7  and  C_30
REMARK    8  A    between atoms: O_8  and  C_31
REMARK    9  A    between atoms: O_8  and  C_39
REMARK   10  A    between atoms: O_12  and  C_41
REMARK   11  A    between atoms: O_13  and  C_51
REMARK   12  A    between atoms: O_13  and  C_55
REMARK   13  A    between atoms: N_15  and  C_44
REMARK   14  A    between atoms: C_18  and  C_29
REMARK   15  A    between atoms: C_24  and  C_33
REMARK   16  A    between atoms: C_24  and  C_34
REMARK   17  A    between atoms: C_32  and  C_35
REMARK   18  A    between atoms: C_36  and  C_38
REMARK   19  A    between atoms: C_37  and  C_40
REMARK   20  A    between atoms: C_39  and  C_41
REMARK   21  A    between atoms: C_41  and  C_44
REMARK   22  A    between atoms: C_44  and  C_48
REMARK   23  A    between atoms: C_55  and  C_56
REMARK   24  A    between atoms: C_55  and  C_57
REMARK   25  A    between atoms: C_55  and  C_58
REMARK                            x       y       z     vdW  Elec       q    Type
REMARK                         _______ _______ _______ _____ _____    ______ ____
ROOT
ATOM      1  O   UNL     1     -20.179  -4.018   7.687  0.00  0.00    +0.000 OA
ATOM      2  O   UNL     1     -25.673  -1.184  10.323  0.00  0.00    +0.000 OA
ATOM      3  C   UNL     1     -22.268  -3.968  10.424  0.00  0.00    +0.000 C 
ATOM      4  C   UNL     1     -21.596  -4.618   9.178  0.00  0.00    +0.000 C 
ATOM      5  C   UNL     1     -23.817  -3.061   9.808  0.00  0.00    +0.000 C 
ATOM      6  C   UNL     1     -21.158  -3.275   8.463  0.00  0.00    +0.000 C 
ATOM      7  C   UNL     1     -22.310  -5.127  11.883  0.00  0.00    +0.000 C 
ATOM      8  C   UNL     1     -22.922  -5.233  13.673  0.00  0.00    +0.000 C 
ATOM      9  C   UNL     1     -23.245  -1.977   8.803  0.00  0.00    +0.000 C 
ATOM     10  C   UNL     1     -22.247  -2.517   7.733  0.00  0.00    +0.000 C 
ATOM     11  C   UNL     1     -24.041  -4.151  14.527  0.00  0.00    +0.000 C 
ATOM     12  C   UNL     1     -20.073  -4.907   8.868  0.00  0.00    +0.000 C 
ATOM     13  C   UNL     1     -25.134  -2.191  10.833  0.00  0.00    +0.000 C 
ATOM     14  C   UNL     1     -23.738  -6.605  13.759  0.00  0.00    +0.000 C 
ATOM     15  C   UNL     1     -25.412  -3.965  13.721  0.00  0.00    +0.000 C 
ATOM     16  C   UNL     1     -24.722  -3.976   8.880  0.00  0.00    +0.000 C 
ATOM     17  C   UNL     1     -25.785  -2.642  12.581  0.00  0.00    +0.000 C 
ATOM     18  C   UNL     1     -25.325  -6.543  13.599  0.00  0.00    +0.000 C 
ATOM     19  C   UNL     1     -26.071  -5.161  13.560  0.00  0.00    +0.000 C 
ATOM     20  C   UNL     1     -24.415  -4.865  15.921  0.00  0.00    +0.000 C 
ATOM     21  C   UNL     1     -23.490  -2.847  15.186  0.00  0.00    +0.000 C 
ATOM     22  C   UNL     1     -27.493  -5.241  13.063  0.00  0.00    +0.000 C 
ENDROOT
BRANCH  17  23
ATOM     23  O   UNL     1     -25.983  -1.494  13.408  0.00  0.00    +0.000 OA
ATOM     24  H   UNL     1     -26.951  -1.377  13.447  0.00  0.00    +0.000 HD
ENDBRANCH  17  23
BRANCH   9  25
ATOM     25  O   UNL     1     -22.547  -0.983   9.554  0.00  0.00    +0.000 OA
ATOM     26  H   UNL     1     -23.043  -0.849  10.381  0.00  0.00    +0.000 HD
ENDBRANCH   9  25
BRANCH   8  27
ATOM     27  O   UNL     1     -21.726  -5.414  14.455  0.00  0.00    +0.000 OA
ATOM     28  H   UNL     1     -21.024  -5.777  13.886  0.00  0.00    +0.000 HD
ENDBRANCH   8  27
BRANCH  18  29
ATOM     29  O   UNL     1     -25.671  -7.241  12.368  0.00  0.00    +0.000 OA
BRANCH  29  31
ATOM     30  O   UNL     1     -27.440  -8.631  12.170  0.00  0.00    +0.000 OA
ATOM     31  C   UNL     1     -26.266  -8.456  12.476  0.00  0.00    +0.000 C 
BRANCH  31  32
ATOM     32  C   UNL     1     -25.420  -9.537  13.157  0.00  0.00    +0.000 C 
BRANCH  32  33
ATOM     33  O   UNL     1     -24.915 -10.560  12.291  0.00  0.00    +0.000 OA
ATOM     34  H   UNL     1     -25.357 -10.428  11.431  0.00  0.00    +0.000 HD
ENDBRANCH  32  33
BRANCH  32  35
ATOM     35  C   UNL     1     -26.241 -10.138  14.329  0.00  0.00    +0.000 C 
BRANCH  35  36
ATOM     36  C   UNL     1     -26.271  -9.228  15.552  0.00  0.00    +0.000 A 
ATOM     37  C   UNL     1     -25.107  -9.059  16.319  0.00  0.00    +0.000 A 
ATOM     38  C   UNL     1     -27.425  -8.515  15.920  0.00  0.00    +0.000 A 
ATOM     39  C   UNL     1     -25.103  -8.222  17.438  0.00  0.00    +0.000 A 
ATOM     40  C   UNL     1     -27.419  -7.681  17.040  0.00  0.00    +0.000 A 
ATOM     41  C   UNL     1     -26.260  -7.537  17.799  0.00  0.00    +0.000 A 
ENDBRANCH  35  36
BRANCH  35  43
ATOM     42  O   UNL     1     -27.725 -12.411  15.271  0.00  0.00    +0.000 OA
ATOM     43  N   UNL     1     -25.728 -11.441  14.727  0.00  0.00    +0.000 N 
ATOM     44  C   UNL     1     -26.505 -12.417  15.260  0.00  0.00    +0.000 C 
ATOM     45  H   UNL     1     -24.733 -11.521  14.894  0.00  0.00    +0.000 HD
BRANCH  44  46
ATOM     46  O   UNL     1     -25.705 -13.391  15.743  0.00  0.00    +0.000 OA
BRANCH  46  47
ATOM     47  C   UNL     1     -25.189 -13.324  17.097  0.00  0.00    +0.000 C 
ATOM     48  C   UNL     1     -25.955 -12.295  17.936  0.00  0.00    +0.000 C 
ATOM     49  C   UNL     1     -25.446 -14.722  17.681  0.00  0.00    +0.000 C 
ATOM     50  C   UNL     1     -23.680 -13.059  17.104  0.00  0.00    +0.000 C 
ENDBRANCH  46  47
ENDBRANCH  44  46
ENDBRANCH  35  43
ENDBRANCH  32  35
ENDBRANCH  31  32
ENDBRANCH  29  31
ENDBRANCH  18  29
BRANCH   7  51
ATOM     51  O   UNL     1     -23.518  -5.456  11.474  0.00  0.00    +0.000 OA
BRANCH  51  53
ATOM     52  O   UNL     1     -21.909  -6.658  11.471  0.00  0.00    +0.000 OA
ATOM     53  C   UNL     1     -23.069  -6.691  11.071  0.00  0.00    +0.000 C 
BRANCH  53  54
ATOM     54  C   UNL     1     -24.046  -7.863   9.913  0.00  0.00    +0.000 A 
ATOM     55  C   UNL     1     -25.218  -7.489   9.122  0.00  0.00    +0.000 A 
ATOM     56  C   UNL     1     -23.710  -9.203   9.548  0.00  0.00    +0.000 A 
ATOM     57  C   UNL     1     -25.906  -8.288   8.174  0.00  0.00    +0.000 A 
ATOM     58  C   UNL     1     -24.388 -10.021   8.598  0.00  0.00    +0.000 A 
ATOM     59  C   UNL     1     -25.486  -9.566   7.910  0.00  0.00    +0.000 A 
ENDBRANCH  53  54
ENDBRANCH  51  53
ENDBRANCH   7  51
BRANCH   4  60
ATOM     60  O   UNL     1     -22.520  -5.426   8.412  0.00  0.00    +0.000 OA
BRANCH  60  62
ATOM     61  O   UNL     1     -21.482  -7.354   7.949  0.00  0.00    +0.000 OA
ATOM     62  C   UNL     1     -22.143  -6.398   7.549  0.00  0.00    +0.000 C 
ATOM     63  C   UNL     1     -22.442  -6.230   6.092  0.00  0.00    +0.000 C 
ENDBRANCH  60  62
ENDBRANCH   4  60
TORSDOF 17
ENDMDL
MODEL 4
REMARK VINA RESULT:      -6.1      1.811      2.642
REMARK  Name = 
REMARK  25 active torsions:
REMARK  status: ('A' for Active; 'I' for Inactive)
REMARK    1  A    between atoms: O_2  and  C_17
REMARK    2  A    between atoms: O_2  and  C_36
REMARK    3  A    between atoms: O_3  and  C_20
REMARK    4  A    between atoms: O_3  and  C_37
REMARK    5  A    between atoms: O_4  and  C_21
REMARK    6  A    between atoms: O_5  and  C_22
REMARK    7  A    between atoms: O_7  and  C_30
REMARK    8  A    between atoms: O_8  and  C_31
REMARK    9  A    between atoms: O_8  and  C_39
REMARK   10  A    between atoms: O_12  and  C_41
REMARK   11  A    between atoms: O_13  and  C_51
REMARK   12  A    between atoms: O_13  and  C_55
REMARK   13  A    between atoms: N_15  and  C_44
REMARK   14  A    between atoms: C_18  and  C_29
REMARK   15  A    between atoms: C_24  and  C_33
REMARK   16  A    between atoms: C_24  and  C_34
REMARK   17  A    between atoms: C_32  and  C_35
REMARK   18  A    between atoms: C_36  and  C_38
REMARK   19  A    between atoms: C_37  and  C_40
REMARK   20  A    between atoms: C_39  and  C_41
REMARK   21  A    between atoms: C_41  and  C_44
REMARK   22  A    between atoms: C_44  and  C_48
REMARK   23  A    between atoms: C_55  and  C_56
REMARK   24  A    between atoms: C_55  and  C_57
REMARK   25  A    between atoms: C_55  and  C_58
REMARK                            x       y       z     vdW  Elec       q    Type
REMARK                         _______ _______ _______ _____ _____    ______ ____
ROOT
ATOM      1  O   UNL     1     -27.023   4.965   7.449  0.00  0.00    +0.000 OA
ATOM      2  O   UNL     1     -26.612   1.713  13.315  0.00  0.00    +0.000 OA
ATOM      3  C   UNL     1     -24.908   3.263   9.567  0.00  0.00    +0.000 C 
ATOM      4  C   UNL     1     -25.695   3.482   8.241  0.00  0.00    +0.000 C 
ATOM      5  C   UNL     1     -26.075   2.360  10.761  0.00  0.00    +0.000 C 
ATOM      6  C   UNL     1     -26.755   4.514   8.805  0.00  0.00    +0.000 C 
ATOM      7  C   UNL     1     -23.162   2.685   9.260  0.00  0.00    +0.000 C 
ATOM      8  C   UNL     1     -21.595   2.153  10.182  0.00  0.00    +0.000 C 
ATOM      9  C   UNL     1     -27.283   3.371  10.942  0.00  0.00    +0.000 C 
ATOM     10  C   UNL     1     -27.890   3.932   9.620  0.00  0.00    +0.000 C 
ATOM     11  C   UNL     1     -21.403   1.753  11.900  0.00  0.00    +0.000 C 
ATOM     12  C   UNL     1     -25.602   4.644   7.174  0.00  0.00    +0.000 C 
ATOM     13  C   UNL     1     -25.686   1.687  12.475  0.00  0.00    +0.000 C 
ATOM     14  C   UNL     1     -21.168   0.762   9.520  0.00  0.00    +0.000 C 
ATOM     15  C   UNL     1     -22.453   0.639  12.368  0.00  0.00    +0.000 C 
ATOM     16  C   UNL     1     -26.758   1.093  10.095  0.00  0.00    +0.000 C 
ATOM     17  C   UNL     1     -24.039   0.948  13.127  0.00  0.00    +0.000 C 
ATOM     18  C   UNL     1     -21.621  -0.583  10.250  0.00  0.00    +0.000 C 
ATOM     19  C   UNL     1     -22.288  -0.536  11.672  0.00  0.00    +0.000 C 
ATOM     20  C   UNL     1     -19.935   1.111  12.074  0.00  0.00    +0.000 C 
ATOM     21  C   UNL     1     -21.170   2.902  12.931  0.00  0.00    +0.000 C 
ATOM     22  C   UNL     1     -22.968  -1.819  12.078  0.00  0.00    +0.000 C 
ENDROOT
BRANCH  17  23
ATOM     23  O   UNL     1     -23.731   1.376  14.454  0.00  0.00    +0.000 OA
ATOM     24  H   UNL     1     -24.355   2.104  14.635  0.00  0.00    +0.000 HD
ENDBRANCH  17  23
BRANCH   9  25
ATOM     25  O   UNL     1     -26.829   4.495  11.697  0.00  0.00    +0.000 OA
ATOM     26  H   UNL     1     -26.949   5.282  11.137  0.00  0.00    +0.000 HD
ENDBRANCH   9  25
BRANCH   8  27
ATOM     27  O   UNL     1     -20.599   3.119   9.792  0.00  0.00    +0.000 OA
ATOM     28  H   UNL     1     -19.999   2.713   9.141  0.00  0.00    +0.000 HD
ENDBRANCH   8  27
BRANCH  18  29
ATOM     29  O   UNL     1     -22.559  -1.267   9.370  0.00  0.00    +0.000 OA
BRANCH  29  31
ATOM     30  O   UNL     1     -21.024  -2.506   8.271  0.00  0.00    +0.000 OA
ATOM     31  C   UNL     1     -22.141  -2.408   8.765  0.00  0.00    +0.000 C 
BRANCH  31  32
ATOM     32  C   UNL     1     -23.214  -3.490   8.603  0.00  0.00    +0.000 C 
BRANCH  32  33
ATOM     33  O   UNL     1     -24.250  -3.484   9.592  0.00  0.00    +0.000 OA
ATOM     34  H   UNL     1     -24.416  -2.546   9.803  0.00  0.00    +0.000 HD
ENDBRANCH  32  33
BRANCH  32  35
ATOM     35  C   UNL     1     -22.511  -4.871   8.524  0.00  0.00    +0.000 C 
BRANCH  35  36
ATOM     36  C   UNL     1     -22.825  -5.617   7.231  0.00  0.00    +0.000 A 
ATOM     37  C   UNL     1     -23.782  -6.645   7.239  0.00  0.00    +0.000 A 
ATOM     38  C   UNL     1     -22.210  -5.284   6.013  0.00  0.00    +0.000 A 
ATOM     39  C   UNL     1     -24.097  -7.337   6.068  0.00  0.00    +0.000 A 
ATOM     40  C   UNL     1     -22.526  -5.978   4.843  0.00  0.00    +0.000 A 
ATOM     41  C   UNL     1     -23.467  -7.006   4.871  0.00  0.00    +0.000 A 
ENDBRANCH  35  36
BRANCH  35  43
ATOM     42  O   UNL     1     -21.093  -5.212  11.000  0.00  0.00    +0.000 OA
ATOM     43  N   UNL     1     -22.869  -5.718   9.653  0.00  0.00    +0.000 N 
ATOM     44  C   UNL     1     -22.073  -5.889  10.738  0.00  0.00    +0.000 C 
ATOM     45  H   UNL     1     -23.576  -6.426   9.501  0.00  0.00    +0.000 HD
BRANCH  44  46
ATOM     46  O   UNL     1     -22.565  -6.905  11.479  0.00  0.00    +0.000 OA
BRANCH  46  47
ATOM     47  C   UNL     1     -23.225  -6.648  12.745  0.00  0.00    +0.000 C 
ATOM     48  C   UNL     1     -24.056  -5.363  12.692  0.00  0.00    +0.000 C 
ATOM     49  C   UNL     1     -24.174  -7.840  12.938  0.00  0.00    +0.000 C 
ATOM     50  C   UNL     1     -22.218  -6.631  13.901  0.00  0.00    +0.000 C 
ENDBRANCH  46  47
ENDBRANCH  44  46
ENDBRANCH  35  43
ENDBRANCH  32  35
ENDBRANCH  31  32
ENDBRANCH  29  31
ENDBRANCH  18  29
BRANCH   7  51
ATOM     51  O   UNL     1     -23.635   1.465   9.404  0.00  0.00    +0.000 OA
BRANCH  51  53
ATOM     52  O   UNL     1     -22.968   2.275   7.692  0.00  0.00    +0.000 OA
ATOM     53  C   UNL     1     -23.465   1.217   8.064  0.00  0.00    +0.000 C 
BRANCH  53  54
ATOM     54  C   UNL     1     -24.187  -0.306   7.153  0.00  0.00    +0.000 A 
ATOM     55  C   UNL     1     -25.456  -0.962   7.474  0.00  0.00    +0.000 A 
ATOM     56  C   UNL     1     -23.683  -0.933   5.972  0.00  0.00    +0.000 A 
ATOM     57  C   UNL     1     -26.080  -2.020   6.764  0.00  0.00    +0.000 A 
ATOM     58  C   UNL     1     -24.295  -1.996   5.246  0.00  0.00    +0.000 A 
ATOM     59  C   UNL     1     -25.493  -2.540   5.640  0.00  0.00    +0.000 A 
ENDBRANCH  53  54
ENDBRANCH  51  53
ENDBRANCH   7  51
BRANCH   4  60
ATOM     60  O   UNL     1     -26.271   2.256   7.732  0.00  0.00    +0.000 OA
BRANCH  60  62
ATOM     61  O   UNL     1     -25.968   2.145   5.518  0.00  0.00    +0.000 OA
ATOM     62  C   UNL     1     -26.742   2.104   6.472  0.00  0.00    +0.000 C 
ATOM     63  C   UNL     1     -28.219   2.004   6.257  0.00  0.00    +0.000 C 
ENDBRANCH  60  62
ENDBRANCH   4  60
TORSDOF 17
ENDMDL
MODEL 5
REMARK VINA RESULT:      -6.1      3.553      8.109
REMARK  Name = 
REMARK  25 active torsions:
REMARK  status: ('A' for Active; 'I' for Inactive)
REMARK    1  A    between atoms: O_2  and  C_17
REMARK    2  A    between atoms: O_2  and  C_36
REMARK    3  A    between atoms: O_3  and  C_20
REMARK    4  A    between atoms: O_3  and  C_37
REMARK    5  A    between atoms: O_4  and  C_21
REMARK    6  A    between atoms: O_5  and  C_22
REMARK    7  A    between atoms: O_7  and  C_30
REMARK    8  A    between atoms: O_8  and  C_31
REMARK    9  A    between atoms: O_8  and  C_39
REMARK   10  A    between atoms: O_12  and  C_41
REMARK   11  A    between atoms: O_13  and  C_51
REMARK   12  A    between atoms: O_13  and  C_55
REMARK   13  A    between atoms: N_15  and  C_44
REMARK   14  A    between atoms: C_18  and  C_29
REMARK   15  A    between atoms: C_24  and  C_33
REMARK   16  A    between atoms: C_24  and  C_34
REMARK   17  A    between atoms: C_32  and  C_35
REMARK   18  A    between atoms: C_36  and  C_38
REMARK   19  A    between atoms: C_37  and  C_40
REMARK   20  A    between atoms: C_39  and  C_41
REMARK   21  A    between atoms: C_41  and  C_44
REMARK   22  A    between atoms: C_44  and  C_48
REMARK   23  A    between atoms: C_55  and  C_56
REMARK   24  A    between atoms: C_55  and  C_57
REMARK   25  A    between atoms: C_55  and  C_58
REMARK                            x       y       z     vdW  Elec       q    Type
REMARK                         _______ _______ _______ _____ _____    ______ ____
ROOT
ATOM      1  O   UNL     1     -24.768  -0.748   5.702  0.00  0.00    +0.000 OA
ATOM      2  O   UNL     1     -20.577  -5.649   7.591  0.00  0.00    +0.000 OA
ATOM      3  C   UNL     1     -24.345  -3.395   7.863  0.00  0.00    +0.000 C 
ATOM      4  C   UNL     1     -24.525  -1.892   7.498  0.00  0.00    +0.000 C 
ATOM      5  C   UNL     1     -22.485  -3.764   7.785  0.00  0.00    +0.000 C 
ATOM      6  C   UNL     1     -24.084  -2.000   5.981  0.00  0.00    +0.000 C 
ATOM      7  C   UNL     1     -25.395  -3.894   9.320  0.00  0.00    +0.000 C 
ATOM      8  C   UNL     1     -25.778  -5.381  10.429  0.00  0.00    +0.000 C 
ATOM      9  C   UNL     1     -22.105  -3.466   6.276  0.00  0.00    +0.000 C 
ATOM     10  C   UNL     1     -22.596  -2.093   5.720  0.00  0.00    +0.000 C 
ATOM     11  C   UNL     1     -24.901  -6.919  10.562  0.00  0.00    +0.000 C 
ATOM     12  C   UNL     1     -25.716  -1.150   6.769  0.00  0.00    +0.000 C 
ATOM     13  C   UNL     1     -21.600  -5.359   8.249  0.00  0.00    +0.000 C 
ATOM     14  C   UNL     1     -25.626  -4.842  11.926  0.00  0.00    +0.000 C 
ATOM     15  C   UNL     1     -23.343  -6.687  10.849  0.00  0.00    +0.000 C 
ATOM     16  C   UNL     1     -21.625  -2.704   8.593  0.00  0.00    +0.000 C 
ATOM     17  C   UNL     1     -22.050  -6.624   9.620  0.00  0.00    +0.000 C 
ATOM     18  C   UNL     1     -24.239  -5.096  12.675  0.00  0.00    +0.000 C 
ATOM     19  C   UNL     1     -23.141  -6.018  12.033  0.00  0.00    +0.000 C 
ATOM     20  C   UNL     1     -25.499  -7.695  11.840  0.00  0.00    +0.000 C 
ATOM     21  C   UNL     1     -25.213  -8.067   9.550  0.00  0.00    +0.000 C 
ATOM     22  C   UNL     1     -21.779  -5.890  12.668  0.00  0.00    +0.000 C 
ENDROOT
BRANCH  17  23
ATOM     23  O   UNL     1     -21.886  -7.978   9.195  0.00  0.00    +0.000 OA
ATOM     24  H   UNL     1     -21.047  -7.985   8.696  0.00  0.00    +0.000 HD
ENDBRANCH  17  23
BRANCH   9  25
ATOM     25  O   UNL     1     -22.686  -4.477   5.450  0.00  0.00    +0.000 OA
ATOM     26  H   UNL     1     -22.647  -4.152   4.533  0.00  0.00    +0.000 HD
ENDBRANCH   9  25
BRANCH   8  27
ATOM     27  O   UNL     1     -27.181  -5.636  10.223  0.00  0.00    +0.000 OA
ATOM     28  H   UNL     1     -27.284  -6.297   9.515  0.00  0.00    +0.000 HD
ENDBRANCH   8  27
BRANCH  18  29
ATOM     29  O   UNL     1     -23.617  -3.798  12.901  0.00  0.00    +0.000 OA
BRANCH  29  31
ATOM     30  O   UNL     1     -25.015  -2.266  13.793  0.00  0.00    +0.000 OA
ATOM     31  C   UNL     1     -24.080  -3.046  13.931  0.00  0.00    +0.000 C 
BRANCH  31  32
ATOM     32  C   UNL     1     -23.251  -3.122  15.218  0.00  0.00    +0.000 C 
BRANCH  32  33
ATOM     33  O   UNL     1     -22.165  -4.056  15.197  0.00  0.00    +0.000 OA
ATOM     34  H   UNL     1     -22.313  -4.625  14.418  0.00  0.00    +0.000 HD
ENDBRANCH  32  33
BRANCH  32  35
ATOM     35  C   UNL     1     -24.212  -3.395  16.406  0.00  0.00    +0.000 C 
BRANCH  35  36
ATOM     36  C   UNL     1     -23.823  -2.627  17.665  0.00  0.00    +0.000 A 
ATOM     37  C   UNL     1     -22.708  -1.773  17.639  0.00  0.00    +0.000 A 
ATOM     38  C   UNL     1     -24.571  -2.717  18.851  0.00  0.00    +0.000 A 
ATOM     39  C   UNL     1     -22.336  -1.050  18.775  0.00  0.00    +0.000 A 
ATOM     40  C   UNL     1     -24.197  -1.993  19.985  0.00  0.00    +0.000 A 
ATOM     41  C   UNL     1     -23.078  -1.163  19.947  0.00  0.00    +0.000 A 
ENDBRANCH  35  36
BRANCH  35  43
ATOM     42  O   UNL     1     -26.191  -5.305  15.574  0.00  0.00    +0.000 OA
ATOM     43  N   UNL     1     -24.277  -4.815  16.724  0.00  0.00    +0.000 N 
ATOM     44  C   UNL     1     -25.316  -5.611  16.367  0.00  0.00    +0.000 C 
ATOM     45  H   UNL     1     -23.695  -5.152  17.479  0.00  0.00    +0.000 HD
BRANCH  44  46
ATOM     46  O   UNL     1     -25.196  -6.792  17.011  0.00  0.00    +0.000 OA
BRANCH  46  47
ATOM     47  C   UNL     1     -24.592  -7.936  16.355  0.00  0.00    +0.000 C 
ATOM     48  C   UNL     1     -24.111  -8.975  17.374  0.00  0.00    +0.000 C 
ATOM     49  C   UNL     1     -25.728  -8.553  15.525  0.00  0.00    +0.000 C 
ATOM     50  C   UNL     1     -23.470  -7.503  15.406  0.00  0.00    +0.000 C 
ENDBRANCH  46  47
ENDBRANCH  44  46
ENDBRANCH  35  43
ENDBRANCH  32  35
ENDBRANCH  31  32
ENDBRANCH  29  31
ENDBRANCH  18  29
BRANCH   7  51
ATOM     51  O   UNL     1     -24.334  -3.644  10.058  0.00  0.00    +0.000 OA
BRANCH  51  53
ATOM     52  O   UNL     1     -26.025  -2.563  10.047  0.00  0.00    +0.000 OA
ATOM     53  C   UNL     1     -24.887  -2.466  10.496  0.00  0.00    +0.000 C 
BRANCH  53  54
ATOM     54  C   UNL     1     -23.885  -1.037  11.287  0.00  0.00    +0.000 A 
ATOM     55  C   UNL     1     -22.427  -0.988  11.401  0.00  0.00    +0.000 A 
ATOM     56  C   UNL     1     -24.381   0.221  11.748  0.00  0.00    +0.000 A 
ATOM     57  C   UNL     1     -21.639   0.090  11.879  0.00  0.00    +0.000 A 
ATOM     58  C   UNL     1     -23.606   1.315  12.231  0.00  0.00    +0.000 A 
ATOM     59  C   UNL     1     -22.235   1.252  12.297  0.00  0.00    +0.000 A 
ENDBRANCH  53  54
ENDBRANCH  51  53
ENDBRANCH   7  51
BRANCH   4  60
ATOM     60  O   UNL     1     -23.691  -1.024   8.300  0.00  0.00    +0.000 OA
BRANCH  60  62
ATOM     61  O   UNL     1     -22.526   0.779   7.672  0.00  0.00    +0.000 OA
ATOM     62  C   UNL     1     -23.575   0.310   8.107  0.00  0.00    +0.000 C 
ATOM     63  C   UNL     1     -24.692   1.206   8.541  0.00  0.00    +0.000 C 
ENDBRANCH  60  62
ENDBRANCH   4  60
TORSDOF 17
ENDMDL
MODEL 6
REMARK VINA RESULT:      -6.1      3.397      7.930
REMARK  Name = 
REMARK  25 active torsions:
REMARK  status: ('A' for Active; 'I' for Inactive)
REMARK    1  A    between atoms: O_2  and  C_17
REMARK    2  A    between atoms: O_2  and  C_36
REMARK    3  A    between atoms: O_3  and  C_20
REMARK    4  A    between atoms: O_3  and  C_37
REMARK    5  A    between atoms: O_4  and  C_21
REMARK    6  A    between atoms: O_5  and  C_22
REMARK    7  A    between atoms: O_7  and  C_30
REMARK    8  A    between atoms: O_8  and  C_31
REMARK    9  A    between atoms: O_8  and  C_39
REMARK   10  A    between atoms: O_12  and  C_41
REMARK   11  A    between atoms: O_13  and  C_51
REMARK   12  A    between atoms: O_13  and  C_55
REMARK   13  A    between atoms: N_15  and  C_44
REMARK   14  A    between atoms: C_18  and  C_29
REMARK   15  A    between atoms: C_24  and  C_33
REMARK   16  A    between atoms: C_24  and  C_34
REMARK   17  A    between atoms: C_32  and  C_35
REMARK   18  A    between atoms: C_36  and  C_38
REMARK   19  A    between atoms: C_37  and  C_40
REMARK   20  A    between atoms: C_39  and  C_41
REMARK   21  A    between atoms: C_41  and  C_44
REMARK   22  A    between atoms: C_44  and  C_48
REMARK   23  A    between atoms: C_55  and  C_56
REMARK   24  A    between atoms: C_55  and  C_57
REMARK   25  A    between atoms: C_55  and  C_58
REMARK                            x       y       z     vdW  Elec       q    Type
REMARK                         _______ _______ _______ _____ _____    ______ ____
ROOT
ATOM      1  O   UNL     1     -20.858  -5.921   6.166  0.00  0.00    +0.000 OA
ATOM      2  O   UNL     1     -26.260  -1.935   5.871  0.00  0.00    +0.000 OA
ATOM      3  C   UNL     1     -22.400  -3.182   7.572  0.00  0.00    +0.000 C 
ATOM      4  C   UNL     1     -21.841  -4.635   7.571  0.00  0.00    +0.000 C 
ATOM      5  C   UNL     1     -24.184  -3.274   6.932  0.00  0.00    +0.000 C 
ATOM      6  C   UNL     1     -21.815  -4.839   6.001  0.00  0.00    +0.000 C 
ATOM      7  C   UNL     1     -21.951  -2.258   9.128  0.00  0.00    +0.000 C 
ATOM      8  C   UNL     1     -22.205  -0.587   9.984  0.00  0.00    +0.000 C 
ATOM      9  C   UNL     1     -24.028  -3.854   5.465  0.00  0.00    +0.000 C 
ATOM     10  C   UNL     1     -23.146  -5.134   5.341  0.00  0.00    +0.000 C 
ATOM     11  C   UNL     1     -23.351   0.704   9.573  0.00  0.00    +0.000 C 
ATOM     12  C   UNL     1     -20.369  -5.167   7.346  0.00  0.00    +0.000 C 
ATOM     13  C   UNL     1     -25.449  -1.885   6.821  0.00  0.00    +0.000 C 
ATOM     14  C   UNL     1     -22.699  -0.941  11.462  0.00  0.00    +0.000 C 
ATOM     15  C   UNL     1     -24.851   0.153   9.476  0.00  0.00    +0.000 C 
ATOM     16  C   UNL     1     -25.034  -4.389   7.674  0.00  0.00    +0.000 C 
ATOM     17  C   UNL     1     -25.678  -0.377   7.985  0.00  0.00    +0.000 C 
ATOM     18  C   UNL     1     -24.269  -0.922  11.751  0.00  0.00    +0.000 C 
ATOM     19  C   UNL     1     -25.273  -0.379  10.672  0.00  0.00    +0.000 C 
ATOM     20  C   UNL     1     -23.322   1.764  10.786  0.00  0.00    +0.000 C 
ATOM     21  C   UNL     1     -22.968   1.747   8.475  0.00  0.00    +0.000 C 
ATOM     22  C   UNL     1     -26.715  -0.738  10.934  0.00  0.00    +0.000 C 
ENDROOT
BRANCH  17  23
ATOM     23  O   UNL     1     -25.955   0.830   7.274  0.00  0.00    +0.000 OA
ATOM     24  H   UNL     1     -25.314   1.479   7.621  0.00  0.00    +0.000 HD
ENDBRANCH  17  23
BRANCH   9  25
ATOM     25  O   UNL     1     -23.424  -2.855   4.642  0.00  0.00    +0.000 OA
ATOM     26  H   UNL     1     -22.623  -2.550   5.105  0.00  0.00    +0.000 HD
ENDBRANCH   9  25
BRANCH   8  27
ATOM     27  O   UNL     1     -20.878  -0.039  10.111  0.00  0.00    +0.000 OA
ATOM     28  H   UNL     1     -20.850   0.551  10.885  0.00  0.00    +0.000 HD
ENDBRANCH   8  27
BRANCH  18  29
ATOM     29  O   UNL     1     -24.677  -2.287  12.054  0.00  0.00    +0.000 OA
BRANCH  29  31
ATOM     30  O   UNL     1     -26.118  -2.937  13.668  0.00  0.00    +0.000 OA
ATOM     31  C   UNL     1     -24.990  -2.582  13.341  0.00  0.00    +0.000 C 
BRANCH  31  32
ATOM     32  C   UNL     1     -23.890  -2.280  14.365  0.00  0.00    +0.000 C 
BRANCH  32  33
ATOM     33  O   UNL     1     -22.729  -3.114  14.285  0.00  0.00    +0.000 OA
ATOM     34  H   UNL     1     -21.963  -2.521  14.395  0.00  0.00    +0.000 HD
ENDBRANCH  32  33
BRANCH  32  35
ATOM     35  C   UNL     1     -24.519  -2.313  15.784  0.00  0.00    +0.000 C 
BRANCH  35  36
ATOM     36  C   UNL     1     -23.732  -1.484  16.794  0.00  0.00    +0.000 A 
ATOM     37  C   UNL     1     -22.963  -2.132  17.774  0.00  0.00    +0.000 A 
ATOM     38  C   UNL     1     -23.720  -0.079  16.754  0.00  0.00    +0.000 A 
ATOM     39  C   UNL     1     -22.224  -1.397  18.704  0.00  0.00    +0.000 A 
ATOM     40  C   UNL     1     -22.981   0.653  17.686  0.00  0.00    +0.000 A 
ATOM     41  C   UNL     1     -22.236  -0.006  18.662  0.00  0.00    +0.000 A 
ENDBRANCH  35  36
BRANCH  35  43
ATOM     42  O   UNL     1     -26.841  -3.605  16.876  0.00  0.00    +0.000 OA
ATOM     43  N   UNL     1     -24.634  -3.675  16.285  0.00  0.00    +0.000 N 
ATOM     44  C   UNL     1     -25.754  -4.158  16.880  0.00  0.00    +0.000 C 
ATOM     45  H   UNL     1     -23.777  -4.180  16.469  0.00  0.00    +0.000 HD
BRANCH  44  46
ATOM     46  O   UNL     1     -25.464  -5.350  17.444  0.00  0.00    +0.000 OA
BRANCH  46  47
ATOM     47  C   UNL     1     -25.651  -6.584  16.705  0.00  0.00    +0.000 C 
ATOM     48  C   UNL     1     -24.308  -7.232  16.350  0.00  0.00    +0.000 C 
ATOM     49  C   UNL     1     -26.401  -7.509  17.675  0.00  0.00    +0.000 C 
ATOM     50  C   UNL     1     -26.524  -6.362  15.465  0.00  0.00    +0.000 C 
ENDBRANCH  46  47
ENDBRANCH  44  46
ENDBRANCH  35  43
ENDBRANCH  32  35
ENDBRANCH  31  32
ENDBRANCH  29  31
ENDBRANCH  18  29
BRANCH   7  51
ATOM     51  O   UNL     1     -23.120  -2.649   9.592  0.00  0.00    +0.000 OA
BRANCH  51  53
ATOM     52  O   UNL     1     -21.330  -3.235  10.288  0.00  0.00    +0.000 OA
ATOM     53  C   UNL     1     -22.509  -3.532  10.448  0.00  0.00    +0.000 C 
BRANCH  53  54
ATOM     54  C   UNL     1     -23.410  -4.985  11.313  0.00  0.00    +0.000 A 
ATOM     55  C   UNL     1     -24.763  -5.449  11.001  0.00  0.00    +0.000 A 
ATOM     56  C   UNL     1     -22.869  -5.897  12.270  0.00  0.00    +0.000 A 
ATOM     57  C   UNL     1     -25.427  -6.582  11.537  0.00  0.00    +0.000 A 
ATOM     58  C   UNL     1     -23.521  -7.040  12.820  0.00  0.00    +0.000 A 
ATOM     59  C   UNL     1     -24.799  -7.384  12.455  0.00  0.00    +0.000 A 
ENDBRANCH  53  54
ENDBRANCH  51  53
ENDBRANCH   7  51
BRANCH   4  60
ATOM     60  O   UNL     1     -22.702  -5.558   8.277  0.00  0.00    +0.000 OA
BRANCH  60  62
ATOM     61  O   UNL     1     -21.468  -7.007   9.455  0.00  0.00    +0.000 OA
ATOM     62  C   UNL     1     -22.348  -6.820   8.617  0.00  0.00    +0.000 C 
ATOM     63  C   UNL     1     -22.955  -7.969   7.876  0.00  0.00    +0.000 C 
ENDBRANCH  60  62
ENDBRANCH   4  60
TORSDOF 17
ENDMDL
MODEL 7
REMARK VINA RESULT:      -6.1      1.834      2.539
REMARK  Name = 
REMARK  25 active torsions:
REMARK  status: ('A' for Active; 'I' for Inactive)
REMARK    1  A    between atoms: O_2  and  C_17
REMARK    2  A    between atoms: O_2  and  C_36
REMARK    3  A    between atoms: O_3  and  C_20
REMARK    4  A    between atoms: O_3  and  C_37
REMARK    5  A    between atoms: O_4  and  C_21
REMARK    6  A    between atoms: O_5  and  C_22
REMARK    7  A    between atoms: O_7  and  C_30
REMARK    8  A    between atoms: O_8  and  C_31
REMARK    9  A    between atoms: O_8  and  C_39
REMARK   10  A    between atoms: O_12  and  C_41
REMARK   11  A    between atoms: O_13  and  C_51
REMARK   12  A    between atoms: O_13  and  C_55
REMARK   13  A    between atoms: N_15  and  C_44
REMARK   14  A    between atoms: C_18  and  C_29
REMARK   15  A    between atoms: C_24  and  C_33
REMARK   16  A    between atoms: C_24  and  C_34
REMARK   17  A    between atoms: C_32  and  C_35
REMARK   18  A    between atoms: C_36  and  C_38
REMARK   19  A    between atoms: C_37  and  C_40
REMARK   20  A    between atoms: C_39  and  C_41
REMARK   21  A    between atoms: C_41  and  C_44
REMARK   22  A    between atoms: C_44  and  C_48
REMARK   23  A    between atoms: C_55  and  C_56
REMARK   24  A    between atoms: C_55  and  C_57
REMARK   25  A    between atoms: C_55  and  C_58
REMARK                            x       y       z     vdW  Elec       q    Type
REMARK                         _______ _______ _______ _____ _____    ______ ____
ROOT
ATOM      1  O   UNL     1     -27.335   4.590   7.282  0.00  0.00    +0.000 OA
ATOM      2  O   UNL     1     -26.814   1.440  13.195  0.00  0.00    +0.000 OA
ATOM      3  C   UNL     1     -25.171   2.962   9.409  0.00  0.00    +0.000 C 
ATOM      4  C   UNL     1     -25.973   3.145   8.086  0.00  0.00    +0.000 C 
ATOM      5  C   UNL     1     -26.311   2.057  10.627  0.00  0.00    +0.000 C 
ATOM      6  C   UNL     1     -27.048   4.166   8.643  0.00  0.00    +0.000 C 
ATOM      7  C   UNL     1     -23.417   2.413   9.097  0.00  0.00    +0.000 C 
ATOM      8  C   UNL     1     -21.833   1.926  10.013  0.00  0.00    +0.000 C 
ATOM      9  C   UNL     1     -27.537   3.046  10.802  0.00  0.00    +0.000 C 
ATOM     10  C   UNL     1     -28.165   3.575   9.476  0.00  0.00    +0.000 C 
ATOM     11  C   UNL     1     -21.619   1.557  11.736  0.00  0.00    +0.000 C 
ATOM     12  C   UNL     1     -25.911   4.292   7.000  0.00  0.00    +0.000 C 
ATOM     13  C   UNL     1     -25.895   1.419  12.348  0.00  0.00    +0.000 C 
ATOM     14  C   UNL     1     -21.385   0.533   9.370  0.00  0.00    +0.000 C 
ATOM     15  C   UNL     1     -22.644   0.431  12.230  0.00  0.00    +0.000 C 
ATOM     16  C   UNL     1     -26.975   0.766   9.986  0.00  0.00    +0.000 C 
ATOM     17  C   UNL     1     -24.230   0.722  12.998  0.00  0.00    +0.000 C 
ATOM     18  C   UNL     1     -21.806  -0.809  10.126  0.00  0.00    +0.000 C 
ATOM     19  C   UNL     1     -22.462  -0.751  11.552  0.00  0.00    +0.000 C 
ATOM     20  C   UNL     1     -20.138   0.946  11.908  0.00  0.00    +0.000 C 
ATOM     21  C   UNL     1     -21.399   2.727  12.747  0.00  0.00    +0.000 C 
ATOM     22  C   UNL     1     -23.114  -2.041  11.984  0.00  0.00    +0.000 C 
ENDROOT
BRANCH  17  23
ATOM     23  O   UNL     1     -23.919   1.177  14.315  0.00  0.00    +0.000 OA
ATOM     24  H   UNL     1     -24.112   2.133  14.303  0.00  0.00    +0.000 HD
ENDBRANCH  17  23
BRANCH   9  25
ATOM     25  O   UNL     1     -27.098   4.191  11.535  0.00  0.00    +0.000 OA
ATOM     26  H   UNL     1     -27.887   4.731  11.721  0.00  0.00    +0.000 HD
ENDBRANCH   9  25
BRANCH   8  27
ATOM     27  O   UNL     1     -20.859   2.904   9.599  0.00  0.00    +0.000 OA
ATOM     28  H   UNL     1     -21.310   3.749   9.423  0.00  0.00    +0.000 HD
ENDBRANCH   8  27
BRANCH  18  29
ATOM     29  O   UNL     1     -22.737  -1.525   9.264  0.00  0.00    +0.000 OA
BRANCH  29  31
ATOM     30  O   UNL     1     -21.221  -3.006   8.484  0.00  0.00    +0.000 OA
ATOM     31  C   UNL     1     -22.373  -2.755   8.823  0.00  0.00    +0.000 C 
BRANCH  31  32
ATOM     32  C   UNL     1     -23.526  -3.745   8.626  0.00  0.00    +0.000 C 
BRANCH  32  33
ATOM     33  O   UNL     1     -24.526  -3.738   9.651  0.00  0.00    +0.000 OA
ATOM     34  H   UNL     1     -25.272  -4.262   9.303  0.00  0.00    +0.000 HD
ENDBRANCH  32  33
BRANCH  32  35
ATOM     35  C   UNL     1     -22.927  -5.163   8.426  0.00  0.00    +0.000 C 
BRANCH  35  36
ATOM     36  C   UNL     1     -23.035  -5.649   6.985  0.00  0.00    +0.000 A 
ATOM     37  C   UNL     1     -24.210  -6.287   6.555  0.00  0.00    +0.000 A 
ATOM     38  C   UNL     1     -22.004  -5.445   6.052  0.00  0.00    +0.000 A 
ATOM     39  C   UNL     1     -24.340  -6.732   5.238  0.00  0.00    +0.000 A 
ATOM     40  C   UNL     1     -22.137  -5.891   4.736  0.00  0.00    +0.000 A 
ATOM     41  C   UNL     1     -23.303  -6.537   4.330  0.00  0.00    +0.000 A 
ENDBRANCH  35  36
BRANCH  35  43
ATOM     42  O   UNL     1     -21.669  -7.185  10.036  0.00  0.00    +0.000 OA
ATOM     43  N   UNL     1     -23.564  -6.139   9.299  0.00  0.00    +0.000 N 
ATOM     44  C   UNL     1     -22.883  -7.124   9.938  0.00  0.00    +0.000 C 
ATOM     45  H   UNL     1     -24.560  -6.280   9.195  0.00  0.00    +0.000 HD
BRANCH  44  46
ATOM     46  O   UNL     1     -23.773  -7.995  10.460  0.00  0.00    +0.000 OA
BRANCH  46  47
ATOM     47  C   UNL     1     -24.383  -9.018   9.631  0.00  0.00    +0.000 C 
ATOM     48  C   UNL     1     -23.464  -9.421   8.473  0.00  0.00    +0.000 C 
ATOM     49  C   UNL     1     -24.554 -10.225  10.566  0.00  0.00    +0.000 C 
ATOM     50  C   UNL     1     -25.766  -8.580   9.138  0.00  0.00    +0.000 C 
ENDBRANCH  46  47
ENDBRANCH  44  46
ENDBRANCH  35  43
ENDBRANCH  32  35
ENDBRANCH  31  32
ENDBRANCH  29  31
ENDBRANCH  18  29
BRANCH   7  51
ATOM     51  O   UNL     1     -23.865   1.186   9.264  0.00  0.00    +0.000 OA
BRANCH  51  53
ATOM     52  O   UNL     1     -23.138   1.944   7.553  0.00  0.00    +0.000 OA
ATOM     53  C   UNL     1     -23.701   0.920   7.926  0.00  0.00    +0.000 C 
BRANCH  53  54
ATOM     54  C   UNL     1     -24.508  -0.562   7.019  0.00  0.00    +0.000 A 
ATOM     55  C   UNL     1     -23.934  -1.268   5.873  0.00  0.00    +0.000 A 
ATOM     56  C   UNL     1     -25.690  -1.271   7.394  0.00  0.00    +0.000 A 
ATOM     57  C   UNL     1     -24.440  -2.432   5.239  0.00  0.00    +0.000 A 
ATOM     58  C   UNL     1     -26.214  -2.441   6.770  0.00  0.00    +0.000 A 
ATOM     59  C   UNL     1     -25.591  -3.023   5.693  0.00  0.00    +0.000 A 
ENDBRANCH  53  54
ENDBRANCH  51  53
ENDBRANCH   7  51
BRANCH   4  60
ATOM     60  O   UNL     1     -26.529   1.900   7.601  0.00  0.00    +0.000 OA
BRANCH  60  62
ATOM     61  O   UNL     1     -26.300   1.778   5.379  0.00  0.00    +0.000 OA
ATOM     62  C   UNL     1     -27.039   1.728   6.360  0.00  0.00    +0.000 C 
ATOM     63  C   UNL     1     -28.520   1.596   6.195  0.00  0.00    +0.000 C 
ENDBRANCH  60  62
ENDBRANCH   4  60
TORSDOF 17
ENDMDL
MODEL 8
REMARK VINA RESULT:      -6.0      3.326      8.672
REMARK  Name = 
REMARK  25 active torsions:
REMARK  status: ('A' for Active; 'I' for Inactive)
REMARK    1  A    between atoms: O_2  and  C_17
REMARK    2  A    between atoms: O_2  and  C_36
REMARK    3  A    between atoms: O_3  and  C_20
REMARK    4  A    between atoms: O_3  and  C_37
REMARK    5  A    between atoms: O_4  and  C_21
REMARK    6  A    between atoms: O_5  and  C_22
REMARK    7  A    between atoms: O_7  and  C_30
REMARK    8  A    between atoms: O_8  and  C_31
REMARK    9  A    between atoms: O_8  and  C_39
REMARK   10  A    between atoms: O_12  and  C_41
REMARK   11  A    between atoms: O_13  and  C_51
REMARK   12  A    between atoms: O_13  and  C_55
REMARK   13  A    between atoms: N_15  and  C_44
REMARK   14  A    between atoms: C_18  and  C_29
REMARK   15  A    between atoms: C_24  and  C_33
REMARK   16  A    between atoms: C_24  and  C_34
REMARK   17  A    between atoms: C_32  and  C_35
REMARK   18  A    between atoms: C_36  and  C_38
REMARK   19  A    between atoms: C_37  and  C_40
REMARK   20  A    between atoms: C_39  and  C_41
REMARK   21  A    between atoms: C_41  and  C_44
REMARK   22  A    between atoms: C_44  and  C_48
REMARK   23  A    between atoms: C_55  and  C_56
REMARK   24  A    between atoms: C_55  and  C_57
REMARK   25  A    between atoms: C_55  and  C_58
REMARK                            x       y       z     vdW  Elec       q    Type
REMARK                         _______ _______ _______ _____ _____    ______ ____
ROOT
ATOM      1  O   UNL     1     -21.416  -5.946   5.952  0.00  0.00    +0.000 OA
ATOM      2  O   UNL     1     -27.081  -2.413   6.719  0.00  0.00    +0.000 OA
ATOM      3  C   UNL     1     -22.896  -3.365   7.686  0.00  0.00    +0.000 C 
ATOM      4  C   UNL     1     -22.234  -4.768   7.544  0.00  0.00    +0.000 C 
ATOM      5  C   UNL     1     -24.752  -3.594   7.363  0.00  0.00    +0.000 C 
ATOM      6  C   UNL     1     -22.469  -4.944   5.988  0.00  0.00    +0.000 C 
ATOM      7  C   UNL     1     -22.255  -2.433   9.168  0.00  0.00    +0.000 C 
ATOM      8  C   UNL     1     -22.485  -0.803  10.105  0.00  0.00    +0.000 C 
ATOM      9  C   UNL     1     -24.811  -4.135   5.874  0.00  0.00    +0.000 C 
ATOM     10  C   UNL     1     -23.867  -5.336   5.561  0.00  0.00    +0.000 C 
ATOM     11  C   UNL     1     -23.783   0.397   9.939  0.00  0.00    +0.000 C 
ATOM     12  C   UNL     1     -20.788  -5.173   7.051  0.00  0.00    +0.000 C 
ATOM     13  C   UNL     1     -26.122  -2.312   7.516  0.00  0.00    +0.000 C 
ATOM     14  C   UNL     1     -22.682  -1.220  11.635  0.00  0.00    +0.000 C 
ATOM     15  C   UNL     1     -25.228  -0.275  10.087  0.00  0.00    +0.000 C 
ATOM     16  C   UNL     1     -25.369  -4.786   8.208  0.00  0.00    +0.000 C 
ATOM     17  C   UNL     1     -26.260  -0.846   8.746  0.00  0.00    +0.000 C 
ATOM     18  C   UNL     1     -24.174  -1.334  12.192  0.00  0.00    +0.000 C 
ATOM     19  C   UNL     1     -25.391  -0.858  11.321  0.00  0.00    +0.000 C 
ATOM     20  C   UNL     1     -23.624   1.435  11.160  0.00  0.00    +0.000 C 
ATOM     21  C   UNL     1     -23.680   1.484   8.823  0.00  0.00    +0.000 C 
ATOM     22  C   UNL     1     -26.732  -1.339  11.819  0.00  0.00    +0.000 C 
ENDROOT
BRANCH  17  23
ATOM     23  O   UNL     1     -26.751   0.345   8.131  0.00  0.00    +0.000 OA
ATOM     24  H   UNL     1     -25.988   0.954   8.117  0.00  0.00    +0.000 HD
ENDBRANCH  17  23
BRANCH   9  25
ATOM     25  O   UNL     1     -24.441  -3.077   4.989  0.00  0.00    +0.000 OA
ATOM     26  H   UNL     1     -24.986  -3.172   4.188  0.00  0.00    +0.000 HD
ENDBRANCH   9  25
BRANCH   8  27
ATOM     27  O   UNL     1     -21.203  -0.150  10.017  0.00  0.00    +0.000 OA
ATOM     28  H   UNL     1     -21.340   0.804   9.882  0.00  0.00    +0.000 HD
ENDBRANCH   8  27
BRANCH  18  29
ATOM     29  O   UNL     1     -24.415  -2.733  12.521  0.00  0.00    +0.000 OA
BRANCH  29  31
ATOM     30  O   UNL     1     -25.564  -3.643  14.239  0.00  0.00    +0.000 OA
ATOM     31  C   UNL     1     -24.568  -3.058  13.829  0.00  0.00    +0.000 C 
BRANCH  31  32
ATOM     32  C   UNL     1     -23.494  -2.499  14.769  0.00  0.00    +0.000 C 
BRANCH  32  33
ATOM     33  O   UNL     1     -22.564  -3.459  15.282  0.00  0.00    +0.000 OA
ATOM     34  H   UNL     1     -21.808  -3.460  14.664  0.00  0.00    +0.000 HD
ENDBRANCH  32  33
BRANCH  32  35
ATOM     35  C   UNL     1     -24.199  -1.722  15.913  0.00  0.00    +0.000 C 
BRANCH  35  36
ATOM     36  C   UNL     1     -24.701  -0.352  15.471  0.00  0.00    +0.000 A 
ATOM     37  C   UNL     1     -23.775   0.658  15.159  0.00  0.00    +0.000 A 
ATOM     38  C   UNL     1     -26.070  -0.073  15.327  0.00  0.00    +0.000 A 
ATOM     39  C   UNL     1     -24.208   1.918  14.740  0.00  0.00    +0.000 A 
ATOM     40  C   UNL     1     -26.499   1.188  14.909  0.00  0.00    +0.000 A 
ATOM     41  C   UNL     1     -25.569   2.184  14.619  0.00  0.00    +0.000 A 
ENDBRANCH  35  36
BRANCH  35  43
ATOM     42  O   UNL     1     -24.916  -1.653  18.695  0.00  0.00    +0.000 OA
ATOM     43  N   UNL     1     -23.320  -1.551  17.062  0.00  0.00    +0.000 N 
ATOM     44  C   UNL     1     -23.773  -1.427  18.335  0.00  0.00    +0.000 C 
ATOM     45  H   UNL     1     -22.382  -1.216  16.887  0.00  0.00    +0.000 HD
BRANCH  44  46
ATOM     46  O   UNL     1     -22.747  -1.041  19.123  0.00  0.00    +0.000 OA
BRANCH  46  47
ATOM     47  C   UNL     1     -22.559   0.357  19.464  0.00  0.00    +0.000 C 
ATOM     48  C   UNL     1     -22.603   0.573  20.980  0.00  0.00    +0.000 C 
ATOM     49  C   UNL     1     -21.147   0.694  18.961  0.00  0.00    +0.000 C 
ATOM     50  C   UNL     1     -23.567   1.247  18.729  0.00  0.00    +0.000 C 
ENDBRANCH  46  47
ENDBRANCH  44  46
ENDBRANCH  35  43
ENDBRANCH  32  35
ENDBRANCH  31  32
ENDBRANCH  29  31
ENDBRANCH  18  29
BRANCH   7  51
ATOM     51  O   UNL     1     -23.290  -2.926   9.816  0.00  0.00    +0.000 OA
BRANCH  51  53
ATOM     52  O   UNL     1     -21.367  -3.418  10.119  0.00  0.00    +0.000 OA
ATOM     53  C   UNL     1     -22.467  -3.739  10.557  0.00  0.00    +0.000 C 
BRANCH  53  54
ATOM     54  C   UNL     1     -23.091  -5.161  11.679  0.00  0.00    +0.000 A 
ATOM     55  C   UNL     1     -24.346  -5.891  11.501  0.00  0.00    +0.000 A 
ATOM     56  C   UNL     1     -22.386  -5.800  12.744  0.00  0.00    +0.000 A 
ATOM     57  C   UNL     1     -24.798  -7.017  12.237  0.00  0.00    +0.000 A 
ATOM     58  C   UNL     1     -22.822  -6.931  13.495  0.00  0.00    +0.000 A 
ATOM     59  C   UNL     1     -24.027  -7.541  13.243  0.00  0.00    +0.000 A 
ENDBRANCH  53  54
ENDBRANCH  51  53
ENDBRANCH   7  51
BRANCH   4  60
ATOM     60  O   UNL     1     -22.883  -5.770   8.361  0.00  0.00    +0.000 OA
BRANCH  60  62
ATOM     61  O   UNL     1     -21.382  -6.954   9.524  0.00  0.00    +0.000 OA
ATOM     62  C   UNL     1     -22.312  -6.943   8.721  0.00  0.00    +0.000 C 
ATOM     63  C   UNL     1     -22.752  -8.202   8.042  0.00  0.00    +0.000 C 
ENDBRANCH  60  62
ENDBRANCH   4  60
TORSDOF 17
ENDMDL
MODEL 9
REMARK VINA RESULT:      -5.9      3.878      8.564
REMARK  Name = 
REMARK  25 active torsions:
REMARK  status: ('A' for Active; 'I' for Inactive)
REMARK    1  A    between atoms: O_2  and  C_17
REMARK    2  A    between atoms: O_2  and  C_36
REMARK    3  A    between atoms: O_3  and  C_20
REMARK    4  A    between atoms: O_3  and  C_37
REMARK    5  A    between atoms: O_4  and  C_21
REMARK    6  A    between atoms: O_5  and  C_22
REMARK    7  A    between atoms: O_7  and  C_30
REMARK    8  A    between atoms: O_8  and  C_31
REMARK    9  A    between atoms: O_8  and  C_39
REMARK   10  A    between atoms: O_12  and  C_41
REMARK   11  A    between atoms: O_13  and  C_51
REMARK   12  A    between atoms: O_13  and  C_55
REMARK   13  A    between atoms: N_15  and  C_44
REMARK   14  A    between atoms: C_18  and  C_29
REMARK   15  A    between atoms: C_24  and  C_33
REMARK   16  A    between atoms: C_24  and  C_34
REMARK   17  A    between atoms: C_32  and  C_35
REMARK   18  A    between atoms: C_36  and  C_38
REMARK   19  A    between atoms: C_37  and  C_40
REMARK   20  A    between atoms: C_39  and  C_41
REMARK   21  A    between atoms: C_41  and  C_44
REMARK   22  A    between atoms: C_44  and  C_48
REMARK   23  A    between atoms: C_55  and  C_56
REMARK   24  A    between atoms: C_55  and  C_57
REMARK   25  A    between atoms: C_55  and  C_58
REMARK                            x       y       z     vdW  Elec       q    Type
REMARK                         _______ _______ _______ _____ _____    ______ ____
ROOT
ATOM      1  O   UNL     1     -24.780  -0.732   5.795  0.00  0.00    +0.000 OA
ATOM      2  O   UNL     1     -20.547  -5.607   7.660  0.00  0.00    +0.000 OA
ATOM      3  C   UNL     1     -24.347  -3.405   7.921  0.00  0.00    +0.000 C 
ATOM      4  C   UNL     1     -24.543  -1.900   7.576  0.00  0.00    +0.000 C 
ATOM      5  C   UNL     1     -22.481  -3.749   7.859  0.00  0.00    +0.000 C 
ATOM      6  C   UNL     1     -24.083  -1.979   6.063  0.00  0.00    +0.000 C 
ATOM      7  C   UNL     1     -25.407  -3.940   9.358  0.00  0.00    +0.000 C 
ATOM      8  C   UNL     1     -25.783  -5.448  10.441  0.00  0.00    +0.000 C 
ATOM      9  C   UNL     1     -22.088  -3.424   6.359  0.00  0.00    +0.000 C 
ATOM     10  C   UNL     1     -22.590  -2.050   5.819  0.00  0.00    +0.000 C 
ATOM     11  C   UNL     1     -24.888  -6.976  10.561  0.00  0.00    +0.000 C 
ATOM     12  C   UNL     1     -25.735  -1.162   6.844  0.00  0.00    +0.000 C 
ATOM     13  C   UNL     1     -21.581  -5.340   8.311  0.00  0.00    +0.000 C 
ATOM     14  C   UNL     1     -25.656  -4.929  11.947  0.00  0.00    +0.000 C 
ATOM     15  C   UNL     1     -23.337  -6.728  10.869  0.00  0.00    +0.000 C 
ATOM     16  C   UNL     1     -21.645  -2.690   8.693  0.00  0.00    +0.000 C 
ATOM     17  C   UNL     1     -22.030  -6.631   9.657  0.00  0.00    +0.000 C 
ATOM     18  C   UNL     1     -24.274  -5.176  12.708  0.00  0.00    +0.000 C 
ATOM     19  C   UNL     1     -23.158  -6.075  12.066  0.00  0.00    +0.000 C 
ATOM     20  C   UNL     1     -25.491  -7.778  11.821  0.00  0.00    +0.000 C 
ATOM     21  C   UNL     1     -25.174  -8.112   9.528  0.00  0.00    +0.000 C 
ATOM     22  C   UNL     1     -21.804  -5.938  12.718  0.00  0.00    +0.000 C 
ENDROOT
BRANCH  17  23
ATOM     23  O   UNL     1     -21.844  -7.975   9.214  0.00  0.00    +0.000 OA
ATOM     24  H   UNL     1     -21.370  -8.417   9.944  0.00  0.00    +0.000 HD
ENDBRANCH  17  23
BRANCH   9  25
ATOM     25  O   UNL     1     -22.646  -4.429   5.512  0.00  0.00    +0.000 OA
ATOM     26  H   UNL     1     -22.359  -4.229   4.603  0.00  0.00    +0.000 HD
ENDBRANCH   9  25
BRANCH   8  27
ATOM     27  O   UNL     1     -27.181  -5.718  10.214  0.00  0.00    +0.000 OA
ATOM     28  H   UNL     1     -27.346  -5.759   9.255  0.00  0.00    +0.000 HD
ENDBRANCH   8  27
BRANCH  18  29
ATOM     29  O   UNL     1     -23.672  -3.874  12.961  0.00  0.00    +0.000 OA
BRANCH  29  31
ATOM     30  O   UNL     1     -22.969  -2.593  14.683  0.00  0.00    +0.000 OA
ATOM     31  C   UNL     1     -23.811  -3.344  14.202  0.00  0.00    +0.000 C 
BRANCH  31  32
ATOM     32  C   UNL     1     -24.999  -3.877  15.010  0.00  0.00    +0.000 C 
BRANCH  32  33
ATOM     33  O   UNL     1     -26.068  -2.947  15.220  0.00  0.00    +0.000 OA
ATOM     34  H   UNL     1     -26.669  -3.369  15.862  0.00  0.00    +0.000 HD
ENDBRANCH  32  33
BRANCH  32  35
ATOM     35  C   UNL     1     -24.465  -4.444  16.352  0.00  0.00    +0.000 C 
BRANCH  35  36
ATOM     36  C   UNL     1     -24.742  -5.935  16.511  0.00  0.00    +0.000 A 
ATOM     37  C   UNL     1     -25.954  -6.359  17.079  0.00  0.00    +0.000 A 
ATOM     38  C   UNL     1     -23.831  -6.911  16.072  0.00  0.00    +0.000 A 
ATOM     39  C   UNL     1     -26.238  -7.719  17.226  0.00  0.00    +0.000 A 
ATOM     40  C   UNL     1     -24.117  -8.269  16.221  0.00  0.00    +0.000 A 
ATOM     41  C   UNL     1     -25.318  -8.673  16.800  0.00  0.00    +0.000 A 
ENDBRANCH  35  36
BRANCH  35  43
ATOM     42  O   UNL     1     -23.208  -2.461  18.009  0.00  0.00    +0.000 OA
ATOM     43  N   UNL     1     -25.033  -3.738  17.492  0.00  0.00    +0.000 N 
ATOM     44  C   UNL     1     -24.317  -2.893  18.277  0.00  0.00    +0.000 C 
ATOM     45  H   UNL     1     -25.885  -4.106  17.894  0.00  0.00    +0.000 HD
BRANCH  44  46
ATOM     46  O   UNL     1     -25.048  -2.598  19.373  0.00  0.00    +0.000 OA
BRANCH  46  47
ATOM     47  C   UNL     1     -25.429  -1.228  19.663  0.00  0.00    +0.000 C 
ATOM     48  C   UNL     1     -25.797  -0.467  18.385  0.00  0.00    +0.000 C 
ATOM     49  C   UNL     1     -26.684  -1.350  20.541  0.00  0.00    +0.000 C 
ATOM     50  C   UNL     1     -24.338  -0.508  20.465  0.00  0.00    +0.000 C 
ENDBRANCH  46  47
ENDBRANCH  44  46
ENDBRANCH  35  43
ENDBRANCH  32  35
ENDBRANCH  31  32
ENDBRANCH  29  31
ENDBRANCH  18  29
BRANCH   7  51
ATOM     51  O   UNL     1     -24.358  -3.687  10.112  0.00  0.00    +0.000 OA
BRANCH  51  53
ATOM     52  O   UNL     1     -26.077  -2.651  10.108  0.00  0.00    +0.000 OA
ATOM     53  C   UNL     1     -24.971  -2.573  10.632  0.00  0.00    +0.000 C 
BRANCH  53  54
ATOM     54  C   UNL     1     -24.059  -1.209  11.621  0.00  0.00    +0.000 A 
ATOM     55  C   UNL     1     -22.620  -0.948  11.575  0.00  0.00    +0.000 A 
ATOM     56  C   UNL     1     -24.642  -0.181  12.424  0.00  0.00    +0.000 A 
ATOM     57  C   UNL     1     -21.919   0.113  12.203  0.00  0.00    +0.000 A 
ATOM     58  C   UNL     1     -23.955   0.892  13.063  0.00  0.00    +0.000 A 
ATOM     59  C   UNL     1     -22.594   1.041  12.953  0.00  0.00    +0.000 A 
ENDBRANCH  53  54
ENDBRANCH  51  53
ENDBRANCH   7  51
BRANCH   4  60
ATOM     60  O   UNL     1     -23.729  -1.033   8.400  0.00  0.00    +0.000 OA
BRANCH  60  62
ATOM     61  O   UNL     1     -22.809   0.907   7.772  0.00  0.00    +0.000 OA
ATOM     62  C   UNL     1     -23.736   0.318   8.323  0.00  0.00    +0.000 C 
ATOM     63  C   UNL     1     -24.822   1.078   9.015  0.00  0.00    +0.000 C 
ENDBRANCH  60  62
ENDBRANCH   4  60
TORSDOF 17
ENDMDL
