MODEL 1
REMARK VINA RESULT:      -6.8      0.000      0.000
REMARK  Name = 
REMARK  13 active torsions:
REMARK  status: ('A' for Active; 'I' for Inactive)
REMARK    1  A    between atoms: O_1  and  C_13
REMARK    2  A    between atoms: O_1  and  C_19
REMARK    3  A    between atoms: O_3  and  C_14
REMARK    4  A    between atoms: O_4  and  C_22
REMARK    5  A    between atoms: O_5  and  C_24
REMARK    6  A    between atoms: O_6  and  C_26
REMARK    7  A    between atoms: O_8  and  C_30
REMARK    8  A    between atoms: O_11  and  C_35
REMARK    9  A    between atoms: O_11  and  C_39
REMARK   10  A    between atoms: N_12  and  C_21
REMARK   11  A    between atoms: C_14  and  C_25
REMARK   12  A    between atoms: C_23  and  C_29
REMARK   13  A    between atoms: C_25  and  C_30
REMARK                            x       y       z     vdW  Elec       q    Type
REMARK                         _______ _______ _______ _____ _____    ______ ____
ROOT
ATOM      1  O   UNL     1      -7.417  -4.310  23.895  0.00  0.00    +0.000 OA
ATOM      2  O   UNL     1     -12.472  -3.862  22.309  0.00  0.00    +0.000 OA
ATOM      3  C   UNL     1      -9.759  -8.097  26.442  0.00  0.00    +0.000 C 
ATOM      4  C   UNL     1     -12.187  -8.775  26.696  0.00  0.00    +0.000 C 
ATOM      5  C   UNL     1     -10.746  -9.264  26.498  0.00  0.00    +0.000 C 
ATOM      6  C   UNL     1     -12.607  -7.845  25.548  0.00  0.00    +0.000 C 
ATOM      7  C   UNL     1     -10.176  -7.053  25.425  0.00  0.00    +0.000 A 
ATOM      8  C   UNL     1     -11.522  -6.914  25.036  0.00  0.00    +0.000 A 
ATOM      9  C   UNL     1      -9.220  -6.165  24.896  0.00  0.00    +0.000 A 
ATOM     10  C   UNL     1     -11.868  -5.913  24.111  0.00  0.00    +0.000 A 
ATOM     11  C   UNL     1      -9.577  -5.157  23.979  0.00  0.00    +0.000 A 
ATOM     12  C   UNL     1     -10.905  -5.035  23.587  0.00  0.00    +0.000 A 
ATOM     13  C   UNL     1      -8.557  -4.227  23.447  0.00  0.00    +0.000 C 
ATOM     14  C   UNL     1     -11.292  -3.986  22.625  0.00  0.00    +0.000 C 
ATOM     15  C   UNL     1      -8.929  -3.218  22.426  0.00  0.00    +0.000 A 
ATOM     16  C   UNL     1     -10.267  -3.103  22.043  0.00  0.00    +0.000 A 
ATOM     17  C   UNL     1      -7.985  -2.364  21.834  0.00  0.00    +0.000 A 
ATOM     18  C   UNL     1     -10.659  -2.150  21.089  0.00  0.00    +0.000 A 
ATOM     19  C   UNL     1      -8.373  -1.433  20.864  0.00  0.00    +0.000 A 
ATOM     20  C   UNL     1      -9.711  -1.318  20.500  0.00  0.00    +0.000 A 
ENDROOT
BRANCH   4  21
ATOM     21  O   UNL     1     -12.321  -8.097  27.951  0.00  0.00    +0.000 OA
ATOM     22  H   UNL     1     -12.943  -8.623  28.498  0.00  0.00    +0.000 HD
ENDBRANCH   4  21
BRANCH   9  23
ATOM     23  O   UNL     1      -7.921  -6.329  25.314  0.00  0.00    +0.000 OA
ATOM     24  H   UNL     1      -7.802  -7.258  25.622  0.00  0.00    +0.000 HD
ENDBRANCH   9  23
BRANCH  10  25
ATOM     25  O   UNL     1     -13.191  -5.841  23.747  0.00  0.00    +0.000 OA
ATOM     26  H   UNL     1     -13.738  -6.261  24.449  0.00  0.00    +0.000 HD
ENDBRANCH  10  25
BRANCH   4  28
ATOM     27  O   UNL     1     -12.984 -10.981  26.024  0.00  0.00    +0.000 OA
ATOM     28  C   UNL     1     -13.146  -9.978  26.728  0.00  0.00    +0.000 C 
BRANCH  28  29
ATOM     29  C   UNL     1     -14.347  -9.889  27.666  0.00  0.00    +0.000 C 
BRANCH  29  30
ATOM     30  O   UNL     1     -15.301  -8.943  27.196  0.00  0.00    +0.000 OA
ATOM     31  H   UNL     1     -15.574  -9.252  26.307  0.00  0.00    +0.000 HD
ENDBRANCH  29  30
ENDBRANCH  28  29
ENDBRANCH   4  28
BRANCH  17  32
ATOM     32  O   UNL     1      -6.644  -2.472  22.094  0.00  0.00    +0.000 OA
ATOM     33  C   UNL     1      -6.160  -1.293  22.741  0.00  0.00    +0.000 C 
ENDBRANCH  17  32
BRANCH   3  34
ATOM     34  O   UNL     1      -9.752  -7.436  27.718  0.00  0.00    +0.000 OA
BRANCH  34  36
ATOM     35  O   UNL     1      -9.136  -7.581  29.987  0.00  0.00    +0.000 OA
ATOM     36  C   UNL     1      -8.947  -8.122  28.681  0.00  0.00    +0.000 C 
ATOM     37  C   UNL     1      -7.483  -8.068  28.240  0.00  0.00    +0.000 C 
ATOM     38  C   UNL     1      -6.922  -6.650  28.371  0.00  0.00    +0.000 C 
ATOM     39  C   UNL     1      -7.153  -6.132  29.805  0.00  0.00    +0.000 C 
ATOM     40  C   UNL     1      -8.653  -6.241  30.139  0.00  0.00    +0.000 C 
ATOM     41  C   UNL     1      -8.966  -5.815  31.570  0.00  0.00    +0.000 C 
BRANCH  38  42
ATOM     42  N   UNL     1      -5.487  -6.623  28.037  0.00  0.00    +0.000 NA
ATOM     43  H   UNL     1      -5.020  -5.885  28.560  0.00  0.00    +0.000 HD
ATOM     44  H   UNL     1      -5.416  -6.358  27.049  0.00  0.00    +0.000 HD
ENDBRANCH  38  42
BRANCH  39  45
ATOM     45  O   UNL     1      -6.350  -6.921  30.704  0.00  0.00    +0.000 OA
ATOM     46  H   UNL     1      -6.057  -6.336  31.423  0.00  0.00    +0.000 HD
ENDBRANCH  39  45
ENDBRANCH  34  36
ENDBRANCH   3  34
TORSDOF 11
ENDMDL
MODEL 2
REMARK VINA RESULT:      -6.6     16.833     18.663
REMARK  Name = 
REMARK  13 active torsions:
REMARK  status: ('A' for Active; 'I' for Inactive)
REMARK    1  A    between atoms: O_1  and  C_13
REMARK    2  A    between atoms: O_1  and  C_19
REMARK    3  A    between atoms: O_3  and  C_14
REMARK    4  A    between atoms: O_4  and  C_22
REMARK    5  A    between atoms: O_5  and  C_24
REMARK    6  A    between atoms: O_6  and  C_26
REMARK    7  A    between atoms: O_8  and  C_30
REMARK    8  A    between atoms: O_11  and  C_35
REMARK    9  A    between atoms: O_11  and  C_39
REMARK   10  A    between atoms: N_12  and  C_21
REMARK   11  A    between atoms: C_14  and  C_25
REMARK   12  A    between atoms: C_23  and  C_29
REMARK   13  A    between atoms: C_25  and  C_30
REMARK                            x       y       z     vdW  Elec       q    Type
REMARK                         _______ _______ _______ _____ _____    ______ ____
ROOT
ATOM      1  O   UNL     1       5.414  -9.927  16.506  0.00  0.00    +0.000 OA
ATOM      2  O   UNL     1       3.716 -10.056  11.469  0.00  0.00    +0.000 OA
ATOM      3  C   UNL     1       4.187 -14.862  15.835  0.00  0.00    +0.000 C 
ATOM      4  C   UNL     1       3.071 -16.131  13.947  0.00  0.00    +0.000 C 
ATOM      5  C   UNL     1       4.189 -16.142  14.997  0.00  0.00    +0.000 C 
ATOM      6  C   UNL     1       3.230 -14.935  12.997  0.00  0.00    +0.000 C 
ATOM      7  C   UNL     1       4.199 -13.619  14.967  0.00  0.00    +0.000 A 
ATOM      8  C   UNL     1       3.714 -13.650  13.645  0.00  0.00    +0.000 A 
ATOM      9  C   UNL     1       4.649 -12.395  15.498  0.00  0.00    +0.000 A 
ATOM     10  C   UNL     1       3.718 -12.466  12.886  0.00  0.00    +0.000 A 
ATOM     11  C   UNL     1       4.639 -11.211  14.734  0.00  0.00    +0.000 A 
ATOM     12  C   UNL     1       4.174 -11.251  13.425  0.00  0.00    +0.000 A 
ATOM     13  C   UNL     1       5.105  -9.933  15.318  0.00  0.00    +0.000 C 
ATOM     14  C   UNL     1       4.160 -10.020  12.613  0.00  0.00    +0.000 C 
ATOM     15  C   UNL     1       5.161  -8.710  14.483  0.00  0.00    +0.000 A 
ATOM     16  C   UNL     1       4.686  -8.762  13.171  0.00  0.00    +0.000 A 
ATOM     17  C   UNL     1       5.665  -7.492  14.967  0.00  0.00    +0.000 A 
ATOM     18  C   UNL     1       4.711  -7.620  12.355  0.00  0.00    +0.000 A 
ATOM     19  C   UNL     1       5.713  -6.361  14.144  0.00  0.00    +0.000 A 
ATOM     20  C   UNL     1       5.226  -6.422  12.842  0.00  0.00    +0.000 A 
ENDROOT
BRANCH   4  21
ATOM     21  O   UNL     1       1.786 -16.088  14.579  0.00  0.00    +0.000 OA
ATOM     22  H   UNL     1       1.326 -16.925  14.354  0.00  0.00    +0.000 HD
ENDBRANCH   4  21
BRANCH   9  23
ATOM     23  O   UNL     1       5.101 -12.409  16.796  0.00  0.00    +0.000 OA
ATOM     24  H   UNL     1       5.214 -13.346  17.081  0.00  0.00    +0.000 HD
ENDBRANCH   9  23
BRANCH  10  25
ATOM     25  O   UNL     1       3.259 -12.561  11.595  0.00  0.00    +0.000 OA
ATOM     26  H   UNL     1       3.747 -13.282  11.135  0.00  0.00    +0.000 HD
ENDBRANCH  10  25
BRANCH   4  28
ATOM     27  O   UNL     1       3.757 -18.425  13.476  0.00  0.00    +0.000 OA
ATOM     28  C   UNL     1       3.123 -17.426  13.117  0.00  0.00    +0.000 C 
BRANCH  28  29
ATOM     29  C   UNL     1       2.365 -17.438  11.792  0.00  0.00    +0.000 C 
BRANCH  29  30
ATOM     30  O   UNL     1       1.011 -17.039  11.967  0.00  0.00    +0.000 OA
ATOM     31  H   UNL     1       0.655 -16.885  11.068  0.00  0.00    +0.000 HD
ENDBRANCH  29  30
ENDBRANCH  28  29
ENDBRANCH   4  28
BRANCH  17  32
ATOM     32  O   UNL     1       6.225  -7.382  16.213  0.00  0.00    +0.000 OA
ATOM     33  C   UNL     1       5.530  -6.406  16.992  0.00  0.00    +0.000 C 
ENDBRANCH  17  32
BRANCH   3  34
ATOM     34  O   UNL     1       2.967 -14.810  16.594  0.00  0.00    +0.000 OA
BRANCH  34  36
ATOM     35  O   UNL     1       2.428 -16.535  18.104  0.00  0.00    +0.000 OA
ATOM     36  C   UNL     1       3.134 -15.309  17.924  0.00  0.00    +0.000 C 
ATOM     37  C   UNL     1       2.692 -14.236  18.922  0.00  0.00    +0.000 C 
ATOM     38  C   UNL     1       1.174 -14.045  18.887  0.00  0.00    +0.000 C 
ATOM     39  C   UNL     1       0.477 -15.405  19.096  0.00  0.00    +0.000 C 
ATOM     40  C   UNL     1       1.002 -16.402  18.045  0.00  0.00    +0.000 C 
ATOM     41  C   UNL     1       0.417 -17.799  18.220  0.00  0.00    +0.000 C 
BRANCH  38  42
ATOM     42  N   UNL     1       0.746 -13.081  19.916  0.00  0.00    +0.000 NA
ATOM     43  H   UNL     1       1.020 -13.412  20.839  0.00  0.00    +0.000 HD
ATOM     44  H   UNL     1      -0.280 -13.077  19.911  0.00  0.00    +0.000 HD
ENDBRANCH  38  42
BRANCH  39  45
ATOM     45  O   UNL     1       0.752 -15.852  20.436  0.00  0.00    +0.000 OA
ATOM     46  H   UNL     1       1.417 -16.559  20.378  0.00  0.00    +0.000 HD
ENDBRANCH  39  45
ENDBRANCH  34  36
ENDBRANCH   3  34
TORSDOF 11
ENDMDL
MODEL 3
REMARK VINA RESULT:      -6.2      3.066      6.155
REMARK  Name = 
REMARK  13 active torsions:
REMARK  status: ('A' for Active; 'I' for Inactive)
REMARK    1  A    between atoms: O_1  and  C_13
REMARK    2  A    between atoms: O_1  and  C_19
REMARK    3  A    between atoms: O_3  and  C_14
REMARK    4  A    between atoms: O_4  and  C_22
REMARK    5  A    between atoms: O_5  and  C_24
REMARK    6  A    between atoms: O_6  and  C_26
REMARK    7  A    between atoms: O_8  and  C_30
REMARK    8  A    between atoms: O_11  and  C_35
REMARK    9  A    between atoms: O_11  and  C_39
REMARK   10  A    between atoms: N_12  and  C_21
REMARK   11  A    between atoms: C_14  and  C_25
REMARK   12  A    between atoms: C_23  and  C_29
REMARK   13  A    between atoms: C_25  and  C_30
REMARK                            x       y       z     vdW  Elec       q    Type
REMARK                         _______ _______ _______ _____ _____    ______ ____
ROOT
ATOM      1  O   UNL     1     -13.368  -5.118  24.498  0.00  0.00    +0.000 OA
ATOM      2  O   UNL     1      -8.096  -5.654  24.077  0.00  0.00    +0.000 OA
ATOM      3  C   UNL     1     -12.384  -9.164  27.493  0.00  0.00    +0.000 C 
ATOM      4  C   UNL     1     -10.292 -10.521  27.943  0.00  0.00    +0.000 C 
ATOM      5  C   UNL     1     -11.541  -9.872  28.555  0.00  0.00    +0.000 C 
ATOM      6  C   UNL     1      -9.413  -9.466  27.256  0.00  0.00    +0.000 C 
ATOM      7  C   UNL     1     -11.558  -8.199  26.666  0.00  0.00    +0.000 A 
ATOM      8  C   UNL     1     -10.166  -8.367  26.528  0.00  0.00    +0.000 A 
ATOM      9  C   UNL     1     -12.187  -7.146  25.976  0.00  0.00    +0.000 A 
ATOM     10  C   UNL     1      -9.443  -7.464  25.728  0.00  0.00    +0.000 A 
ATOM     11  C   UNL     1     -11.457  -6.253  25.167  0.00  0.00    +0.000 A 
ATOM     12  C   UNL     1     -10.082  -6.414  25.047  0.00  0.00    +0.000 A 
ATOM     13  C   UNL     1     -12.143  -5.162  24.440  0.00  0.00    +0.000 C 
ATOM     14  C   UNL     1      -9.305  -5.485  24.206  0.00  0.00    +0.000 C 
ATOM     15  C   UNL     1     -11.357  -4.182  23.652  0.00  0.00    +0.000 A 
ATOM     16  C   UNL     1      -9.977  -4.358  23.535  0.00  0.00    +0.000 A 
ATOM     17  C   UNL     1     -11.952  -3.086  23.007  0.00  0.00    +0.000 A 
ATOM     18  C   UNL     1      -9.201  -3.458  22.787  0.00  0.00    +0.000 A 
ATOM     19  C   UNL     1     -11.174  -2.176  22.282  0.00  0.00    +0.000 A 
ATOM     20  C   UNL     1      -9.800  -2.368  22.163  0.00  0.00    +0.000 A 
ENDROOT
BRANCH   4  21
ATOM     21  O   UNL     1     -10.662 -11.539  27.005  0.00  0.00    +0.000 OA
ATOM     22  H   UNL     1     -11.604 -11.390  26.774  0.00  0.00    +0.000 HD
ENDBRANCH   4  21
BRANCH   9  23
ATOM     23  O   UNL     1     -13.548  -7.028  26.129  0.00  0.00    +0.000 OA
ATOM     24  H   UNL     1     -13.968  -7.034  25.236  0.00  0.00    +0.000 HD
ENDBRANCH   9  23
BRANCH  10  25
ATOM     25  O   UNL     1      -8.085  -7.659  25.651  0.00  0.00    +0.000 OA
ATOM     26  H   UNL     1      -7.911  -8.487  25.147  0.00  0.00    +0.000 HD
ENDBRANCH  10  25
BRANCH   4  28
ATOM     27  O   UNL     1      -8.949 -10.579  29.980  0.00  0.00    +0.000 OA
ATOM     28  C   UNL     1      -9.467 -11.204  29.047  0.00  0.00    +0.000 C 
BRANCH  28  29
ATOM     29  C   UNL     1      -9.280 -12.716  28.946  0.00  0.00    +0.000 C 
BRANCH  29  30
ATOM     30  O   UNL     1      -8.560 -13.071  27.771  0.00  0.00    +0.000 OA
ATOM     31  H   UNL     1      -9.183 -13.581  27.215  0.00  0.00    +0.000 HD
ENDBRANCH  29  30
ENDBRANCH  28  29
ENDBRANCH   4  28
BRANCH  17  32
ATOM     32  O   UNL     1     -13.284  -2.799  23.142  0.00  0.00    +0.000 OA
ATOM     33  C   UNL     1     -13.473  -1.414  23.441  0.00  0.00    +0.000 C 
ENDBRANCH  17  32
BRANCH   3  34
ATOM     34  O   UNL     1     -12.892 -10.147  26.575  0.00  0.00    +0.000 OA
BRANCH  34  36
ATOM     35  O   UNL     1     -13.857 -12.229  27.104  0.00  0.00    +0.000 OA
ATOM     36  C   UNL     1     -14.049 -10.817  27.082  0.00  0.00    +0.000 C 
ATOM     37  C   UNL     1     -15.268 -10.413  26.248  0.00  0.00    +0.000 C 
ATOM     38  C   UNL     1     -15.194 -11.013  24.842  0.00  0.00    +0.000 C 
ATOM     39  C   UNL     1     -14.994 -12.539  24.942  0.00  0.00    +0.000 C 
ATOM     40  C   UNL     1     -13.750 -12.824  25.805  0.00  0.00    +0.000 C 
ATOM     41  C   UNL     1     -13.515 -14.316  26.017  0.00  0.00    +0.000 C 
BRANCH  38  42
ATOM     42  N   UNL     1     -16.414 -10.701  24.077  0.00  0.00    +0.000 NA
ATOM     43  H   UNL     1     -16.244 -10.829  23.082  0.00  0.00    +0.000 HD
ATOM     44  H   UNL     1     -16.598  -9.700  24.206  0.00  0.00    +0.000 HD
ENDBRANCH  38  42
BRANCH  39  45
ATOM     45  O   UNL     1     -16.183 -13.114  25.517  0.00  0.00    +0.000 OA
ATOM     46  H   UNL     1     -15.901 -13.737  26.207  0.00  0.00    +0.000 HD
ENDBRANCH  39  45
ENDBRANCH  34  36
ENDBRANCH   3  34
TORSDOF 11
ENDMDL
MODEL 4
REMARK VINA RESULT:      -6.0     19.619     23.325
REMARK  Name = 
REMARK  13 active torsions:
REMARK  status: ('A' for Active; 'I' for Inactive)
REMARK    1  A    between atoms: O_1  and  C_13
REMARK    2  A    between atoms: O_1  and  C_19
REMARK    3  A    between atoms: O_3  and  C_14
REMARK    4  A    between atoms: O_4  and  C_22
REMARK    5  A    between atoms: O_5  and  C_24
REMARK    6  A    between atoms: O_6  and  C_26
REMARK    7  A    between atoms: O_8  and  C_30
REMARK    8  A    between atoms: O_11  and  C_35
REMARK    9  A    between atoms: O_11  and  C_39
REMARK   10  A    between atoms: N_12  and  C_21
REMARK   11  A    between atoms: C_14  and  C_25
REMARK   12  A    between atoms: C_23  and  C_29
REMARK   13  A    between atoms: C_25  and  C_30
REMARK                            x       y       z     vdW  Elec       q    Type
REMARK                         _______ _______ _______ _____ _____    ______ ____
ROOT
ATOM      1  O   UNL     1     -22.583  -2.352   5.757  0.00  0.00    +0.000 OA
ATOM      2  O   UNL     1     -22.450  -4.590  10.578  0.00  0.00    +0.000 OA
ATOM      3  C   UNL     1     -21.982   1.676   8.875  0.00  0.00    +0.000 C 
ATOM      4  C   UNL     1     -21.994   1.936  11.396  0.00  0.00    +0.000 C 
ATOM      5  C   UNL     1     -21.325   2.352  10.080  0.00  0.00    +0.000 C 
ATOM      6  C   UNL     1     -21.907   0.415  11.592  0.00  0.00    +0.000 C 
ATOM      7  C   UNL     1     -22.066   0.173   9.048  0.00  0.00    +0.000 A 
ATOM      8  C   UNL     1     -22.068  -0.413  10.329  0.00  0.00    +0.000 A 
ATOM      9  C   UNL     1     -22.202  -0.659   7.921  0.00  0.00    +0.000 A 
ATOM     10  C   UNL     1     -22.177  -1.810  10.444  0.00  0.00    +0.000 A 
ATOM     11  C   UNL     1     -22.322  -2.057   8.044  0.00  0.00    +0.000 A 
ATOM     12  C   UNL     1     -22.307  -2.631   9.310  0.00  0.00    +0.000 A 
ATOM     13  C   UNL     1     -22.477  -2.910   6.845  0.00  0.00    +0.000 C 
ATOM     14  C   UNL     1     -22.429  -4.093   9.455  0.00  0.00    +0.000 C 
ATOM     15  C   UNL     1     -22.528  -4.385   6.981  0.00  0.00    +0.000 A 
ATOM     16  C   UNL     1     -22.516  -4.949   8.258  0.00  0.00    +0.000 A 
ATOM     17  C   UNL     1     -22.597  -5.240   5.870  0.00  0.00    +0.000 A 
ATOM     18  C   UNL     1     -22.576  -6.341   8.427  0.00  0.00    +0.000 A 
ATOM     19  C   UNL     1     -22.630  -6.629   6.039  0.00  0.00    +0.000 A 
ATOM     20  C   UNL     1     -22.631  -7.179   7.317  0.00  0.00    +0.000 A 
ENDROOT
BRANCH   4  21
ATOM     21  O   UNL     1     -23.364   2.356  11.419  0.00  0.00    +0.000 OA
ATOM     22  H   UNL     1     -23.471   2.944  12.197  0.00  0.00    +0.000 HD
ENDBRANCH   4  21
BRANCH   9  23
ATOM     23  O   UNL     1     -22.209  -0.043   6.691  0.00  0.00    +0.000 OA
ATOM     24  H   UNL     1     -21.307  -0.110   6.300  0.00  0.00    +0.000 HD
ENDBRANCH   9  23
BRANCH  10  25
ATOM     25  O   UNL     1     -22.146  -2.329  11.715  0.00  0.00    +0.000 OA
ATOM     26  H   UNL     1     -23.041  -2.669  11.943  0.00  0.00    +0.000 HD
ENDBRANCH  10  25
BRANCH   4  28
ATOM     27  O   UNL     1     -21.836   2.792  13.676  0.00  0.00    +0.000 OA
ATOM     28  C   UNL     1     -21.291   2.624  12.578  0.00  0.00    +0.000 C 
BRANCH  28  29
ATOM     29  C   UNL     1     -19.868   3.128  12.348  0.00  0.00    +0.000 C 
BRANCH  29  30
ATOM     30  O   UNL     1     -19.764   4.522  12.614  0.00  0.00    +0.000 OA
ATOM     31  H   UNL     1     -18.895   4.651  13.045  0.00  0.00    +0.000 HD
ENDBRANCH  29  30
ENDBRANCH  28  29
ENDBRANCH   4  28
BRANCH  17  32
ATOM     32  O   UNL     1     -22.528  -4.769   4.586  0.00  0.00    +0.000 OA
ATOM     33  C   UNL     1     -22.526  -5.852   3.652  0.00  0.00    +0.000 C 
ENDBRANCH  17  32
BRANCH   3  34
ATOM     34  O   UNL     1     -23.336   2.145   8.765  0.00  0.00    +0.000 OA
BRANCH  34  36
ATOM     35  O   UNL     1     -24.185   4.324   9.047  0.00  0.00    +0.000 OA
ATOM     36  C   UNL     1     -23.412   3.463   8.214  0.00  0.00    +0.000 C 
ATOM     37  C   UNL     1     -23.969   3.382   6.792  0.00  0.00    +0.000 C 
ATOM     38  C   UNL     1     -25.452   3.002   6.805  0.00  0.00    +0.000 C 
ATOM     39  C   UNL     1     -26.227   3.976   7.715  0.00  0.00    +0.000 C 
ATOM     40  C   UNL     1     -25.575   3.980   9.111  0.00  0.00    +0.000 C 
ATOM     41  C   UNL     1     -26.235   4.972  10.062  0.00  0.00    +0.000 C 
BRANCH  38  42
ATOM     42  N   UNL     1     -26.007   3.019   5.439  0.00  0.00    +0.000 NA
ATOM     43  H   UNL     1     -26.346   3.952   5.212  0.00  0.00    +0.000 HD
ATOM     44  H   UNL     1     -26.833   2.411   5.446  0.00  0.00    +0.000 HD
ENDBRANCH  38  42
BRANCH  39  45
ATOM     45  O   UNL     1     -26.195   5.282   7.110  0.00  0.00    +0.000 OA
ATOM     46  H   UNL     1     -26.317   5.936   7.819  0.00  0.00    +0.000 HD
ENDBRANCH  39  45
ENDBRANCH  34  36
ENDBRANCH   3  34
TORSDOF 11
ENDMDL
MODEL 5
REMARK VINA RESULT:      -6.0     18.016     22.401
REMARK  Name = 
REMARK  13 active torsions:
REMARK  status: ('A' for Active; 'I' for Inactive)
REMARK    1  A    between atoms: O_1  and  C_13
REMARK    2  A    between atoms: O_1  and  C_19
REMARK    3  A    between atoms: O_3  and  C_14
REMARK    4  A    between atoms: O_4  and  C_22
REMARK    5  A    between atoms: O_5  and  C_24
REMARK    6  A    between atoms: O_6  and  C_26
REMARK    7  A    between atoms: O_8  and  C_30
REMARK    8  A    between atoms: O_11  and  C_35
REMARK    9  A    between atoms: O_11  and  C_39
REMARK   10  A    between atoms: N_12  and  C_21
REMARK   11  A    between atoms: C_14  and  C_25
REMARK   12  A    between atoms: C_23  and  C_29
REMARK   13  A    between atoms: C_25  and  C_30
REMARK                            x       y       z     vdW  Elec       q    Type
REMARK                         _______ _______ _______ _____ _____    ______ ____
ROOT
ATOM      1  O   UNL     1     -25.943  -8.949  12.365  0.00  0.00    +0.000 OA
ATOM      2  O   UNL     1     -22.147  -6.175  14.849  0.00  0.00    +0.000 OA
ATOM      3  C   UNL     1     -23.174  -7.062   8.482  0.00  0.00    +0.000 C 
ATOM      4  C   UNL     1     -21.246  -5.422   8.362  0.00  0.00    +0.000 C 
ATOM      5  C   UNL     1     -21.830  -6.736   7.828  0.00  0.00    +0.000 C 
ATOM      6  C   UNL     1     -21.035  -5.499   9.881  0.00  0.00    +0.000 C 
ATOM      7  C   UNL     1     -23.091  -7.020   9.995  0.00  0.00    +0.000 A 
ATOM      8  C   UNL     1     -22.106  -6.254  10.648  0.00  0.00    +0.000 A 
ATOM      9  C   UNL     1     -24.041  -7.710  10.771  0.00  0.00    +0.000 A 
ATOM     10  C   UNL     1     -22.084  -6.222  12.054  0.00  0.00    +0.000 A 
ATOM     11  C   UNL     1     -24.019  -7.663  12.179  0.00  0.00    +0.000 A 
ATOM     12  C   UNL     1     -23.035  -6.918  12.818  0.00  0.00    +0.000 A 
ATOM     13  C   UNL     1     -25.038  -8.385  12.973  0.00  0.00    +0.000 C 
ATOM     14  C   UNL     1     -22.998  -6.862  14.292  0.00  0.00    +0.000 C 
ATOM     15  C   UNL     1     -24.961  -8.391  14.454  0.00  0.00    +0.000 A 
ATOM     16  C   UNL     1     -23.971  -7.635  15.084  0.00  0.00    +0.000 A 
ATOM     17  C   UNL     1     -25.857  -9.122  15.250  0.00  0.00    +0.000 A 
ATOM     18  C   UNL     1     -23.875  -7.606  16.485  0.00  0.00    +0.000 A 
ATOM     19  C   UNL     1     -25.744  -9.113  16.645  0.00  0.00    +0.000 A 
ATOM     20  C   UNL     1     -24.761  -8.346  17.263  0.00  0.00    +0.000 A 
ENDROOT
BRANCH   4  21
ATOM     21  O   UNL     1     -22.105  -4.321   8.041  0.00  0.00    +0.000 OA
ATOM     22  H   UNL     1     -22.947  -4.701   7.709  0.00  0.00    +0.000 HD
ENDBRANCH   4  21
BRANCH   9  23
ATOM     23  O   UNL     1     -24.992  -8.433  10.091  0.00  0.00    +0.000 OA
ATOM     24  H   UNL     1     -25.043  -8.097   9.166  0.00  0.00    +0.000 HD
ENDBRANCH   9  23
BRANCH  10  25
ATOM     25  O   UNL     1     -21.085  -5.481  12.638  0.00  0.00    +0.000 OA
ATOM     26  H   UNL     1     -21.482  -4.680  13.050  0.00  0.00    +0.000 HD
ENDBRANCH  10  25
BRANCH   4  28
ATOM     27  O   UNL     1     -19.721  -5.211   6.469  0.00  0.00    +0.000 OA
ATOM     28  C   UNL     1     -19.889  -5.145   7.692  0.00  0.00    +0.000 C 
BRANCH  28  29
ATOM     29  C   UNL     1     -18.717  -4.796   8.606  0.00  0.00    +0.000 C 
BRANCH  29  30
ATOM     30  O   UNL     1     -17.471  -5.004   7.951  0.00  0.00    +0.000 OA
ATOM     31  H   UNL     1     -17.144  -5.874   8.259  0.00  0.00    +0.000 HD
ENDBRANCH  29  30
ENDBRANCH  28  29
ENDBRANCH   4  28
BRANCH  17  32
ATOM     32  O   UNL     1     -26.801  -9.952  14.706  0.00  0.00    +0.000 OA
ATOM     33  C   UNL     1     -28.105  -9.611  15.181  0.00  0.00    +0.000 C 
ENDBRANCH  17  32
BRANCH   3  34
ATOM     34  O   UNL     1     -24.127  -6.054   8.104  0.00  0.00    +0.000 OA
BRANCH  34  36
ATOM     35  O   UNL     1     -24.525  -6.536   5.833  0.00  0.00    +0.000 OA
ATOM     36  C   UNL     1     -25.076  -6.535   7.148  0.00  0.00    +0.000 C 
ATOM     37  C   UNL     1     -26.351  -5.694   7.240  0.00  0.00    +0.000 C 
ATOM     38  C   UNL     1     -26.115  -4.279   6.707  0.00  0.00    +0.000 C 
ATOM     39  C   UNL     1     -25.528  -4.355   5.282  0.00  0.00    +0.000 C 
ATOM     40  C   UNL     1     -24.259  -5.228   5.311  0.00  0.00    +0.000 C 
ATOM     41  C   UNL     1     -23.648  -5.417   3.927  0.00  0.00    +0.000 C 
BRANCH  38  42
ATOM     42  N   UNL     1     -27.369  -3.505   6.708  0.00  0.00    +0.000 NA
ATOM     43  H   UNL     1     -27.304  -2.738   7.374  0.00  0.00    +0.000 HD
ATOM     44  H   UNL     1     -28.102  -4.128   7.065  0.00  0.00    +0.000 HD
ENDBRANCH  38  42
BRANCH  39  45
ATOM     45  O   UNL     1     -26.532  -4.906   4.409  0.00  0.00    +0.000 OA
ATOM     46  H   UNL     1     -26.699  -5.819   4.696  0.00  0.00    +0.000 HD
ENDBRANCH  39  45
ENDBRANCH  34  36
ENDBRANCH   3  34
TORSDOF 11
ENDMDL
MODEL 6
REMARK VINA RESULT:      -6.0     16.127     18.316
REMARK  Name = 
REMARK  13 active torsions:
REMARK  status: ('A' for Active; 'I' for Inactive)
REMARK    1  A    between atoms: O_1  and  C_13
REMARK    2  A    between atoms: O_1  and  C_19
REMARK    3  A    between atoms: O_3  and  C_14
REMARK    4  A    between atoms: O_4  and  C_22
REMARK    5  A    between atoms: O_5  and  C_24
REMARK    6  A    between atoms: O_6  and  C_26
REMARK    7  A    between atoms: O_8  and  C_30
REMARK    8  A    between atoms: O_11  and  C_35
REMARK    9  A    between atoms: O_11  and  C_39
REMARK   10  A    between atoms: N_12  and  C_21
REMARK   11  A    between atoms: C_14  and  C_25
REMARK   12  A    between atoms: C_23  and  C_29
REMARK   13  A    between atoms: C_25  and  C_30
REMARK                            x       y       z     vdW  Elec       q    Type
REMARK                         _______ _______ _______ _____ _____    ______ ____
ROOT
ATOM      1  O   UNL     1       6.173  -7.890  16.418  0.00  0.00    +0.000 OA
ATOM      2  O   UNL     1       4.057  -8.277  11.556  0.00  0.00    +0.000 OA
ATOM      3  C   UNL     1       4.824 -12.831  16.144  0.00  0.00    +0.000 C 
ATOM      4  C   UNL     1       3.537 -14.186  14.433  0.00  0.00    +0.000 C 
ATOM      5  C   UNL     1       4.739 -14.157  15.387  0.00  0.00    +0.000 C 
ATOM      6  C   UNL     1       3.632 -13.050  13.405  0.00  0.00    +0.000 C 
ATOM      7  C   UNL     1       4.781 -11.641  15.207  0.00  0.00    +0.000 A 
ATOM      8  C   UNL     1       4.187 -11.739  13.934  0.00  0.00    +0.000 A 
ATOM      9  C   UNL     1       5.291 -10.397  15.625  0.00  0.00    +0.000 A 
ATOM     10  C   UNL     1       4.144 -10.601  13.108  0.00  0.00    +0.000 A 
ATOM     11  C   UNL     1       5.234  -9.260  14.796  0.00  0.00    +0.000 A 
ATOM     12  C   UNL     1       4.660  -9.366  13.535  0.00  0.00    +0.000 A 
ATOM     13  C   UNL     1       5.765  -7.959  15.263  0.00  0.00    +0.000 C 
ATOM     14  C   UNL     1       4.596  -8.184  12.655  0.00  0.00    +0.000 C 
ATOM     15  C   UNL     1       5.768  -6.787  14.356  0.00  0.00    +0.000 A 
ATOM     16  C   UNL     1       5.184  -6.906  13.093  0.00  0.00    +0.000 A 
ATOM     17  C   UNL     1       6.328  -5.554  14.724  0.00  0.00    +0.000 A 
ATOM     18  C   UNL     1       5.157  -5.813  12.211  0.00  0.00    +0.000 A 
ATOM     19  C   UNL     1       6.323  -4.473  13.834  0.00  0.00    +0.000 A 
ATOM     20  C   UNL     1       5.727  -4.599  12.582  0.00  0.00    +0.000 A 
ENDROOT
BRANCH   4  21
ATOM     21  O   UNL     1       2.310 -14.083  15.166  0.00  0.00    +0.000 OA
ATOM     22  H   UNL     1       2.164 -14.947  15.607  0.00  0.00    +0.000 HD
ENDBRANCH   4  21
BRANCH   9  23
ATOM     23  O   UNL     1       5.850 -10.344  16.880  0.00  0.00    +0.000 OA
ATOM     24  H   UNL     1       6.828 -10.256  16.787  0.00  0.00    +0.000 HD
ENDBRANCH   9  23
BRANCH  10  25
ATOM     25  O   UNL     1       3.577 -10.762  11.867  0.00  0.00    +0.000 OA
ATOM     26  H   UNL     1       2.726 -10.268  11.839  0.00  0.00    +0.000 HD
ENDBRANCH  10  25
BRANCH   4  28
ATOM     27  O   UNL     1       4.429 -16.343  13.723  0.00  0.00    +0.000 OA
ATOM     28  C   UNL     1       3.501 -15.527  13.681  0.00  0.00    +0.000 C 
BRANCH  28  29
ATOM     29  C   UNL     1       2.262 -15.824  12.840  0.00  0.00    +0.000 C 
BRANCH  29  30
ATOM     30  O   UNL     1       2.519 -15.631  11.454  0.00  0.00    +0.000 OA
ATOM     31  H   UNL     1       3.381 -15.170  11.399  0.00  0.00    +0.000 HD
ENDBRANCH  29  30
ENDBRANCH  28  29
ENDBRANCH   4  28
BRANCH  17  32
ATOM     32  O   UNL     1       6.991  -5.382  15.909  0.00  0.00    +0.000 OA
ATOM     33  C   UNL     1       6.408  -4.317  16.663  0.00  0.00    +0.000 C 
ENDBRANCH  17  32
BRANCH   3  34
ATOM     34  O   UNL     1       3.673 -12.713  16.998  0.00  0.00    +0.000 OA
BRANCH  34  36
ATOM     35  O   UNL     1       2.647 -14.255  18.453  0.00  0.00    +0.000 OA
ATOM     36  C   UNL     1       3.811 -13.470  18.204  0.00  0.00    +0.000 C 
ATOM     37  C   UNL     1       4.125 -12.518  19.361  0.00  0.00    +0.000 C 
ATOM     38  C   UNL     1       2.907 -11.660  19.710  0.00  0.00    +0.000 C 
ATOM     39  C   UNL     1       1.691 -12.571  19.975  0.00  0.00    +0.000 C 
ATOM     40  C   UNL     1       1.476 -13.484  18.752  0.00  0.00    +0.000 C 
ATOM     41  C   UNL     1       0.333 -14.472  18.953  0.00  0.00    +0.000 C 
BRANCH  38  42
ATOM     42  N   UNL     1       3.184 -10.815  20.886  0.00  0.00    +0.000 NA
ATOM     43  H   UNL     1       2.439 -10.133  21.009  0.00  0.00    +0.000 HD
ATOM     44  H   UNL     1       4.029 -10.275  20.671  0.00  0.00    +0.000 HD
ENDBRANCH  38  42
BRANCH  39  45
ATOM     45  O   UNL     1       1.948 -13.333  21.168  0.00  0.00    +0.000 OA
ATOM     46  H   UNL     1       1.181 -13.910  21.318  0.00  0.00    +0.000 HD
ENDBRANCH  39  45
ENDBRANCH  34  36
ENDBRANCH   3  34
TORSDOF 11
ENDMDL
MODEL 7
REMARK VINA RESULT:      -5.8     21.173     23.488
REMARK  Name = 
REMARK  13 active torsions:
REMARK  status: ('A' for Active; 'I' for Inactive)
REMARK    1  A    between atoms: O_1  and  C_13
REMARK    2  A    between atoms: O_1  and  C_19
REMARK    3  A    between atoms: O_3  and  C_14
REMARK    4  A    between atoms: O_4  and  C_22
REMARK    5  A    between atoms: O_5  and  C_24
REMARK    6  A    between atoms: O_6  and  C_26
REMARK    7  A    between atoms: O_8  and  C_30
REMARK    8  A    between atoms: O_11  and  C_35
REMARK    9  A    between atoms: O_11  and  C_39
REMARK   10  A    between atoms: N_12  and  C_21
REMARK   11  A    between atoms: C_14  and  C_25
REMARK   12  A    between atoms: C_23  and  C_29
REMARK   13  A    between atoms: C_25  and  C_30
REMARK                            x       y       z     vdW  Elec       q    Type
REMARK                         _______ _______ _______ _____ _____    ______ ____
ROOT
ATOM      1  O   UNL     1     -13.091 -19.997   8.609  0.00  0.00    +0.000 OA
ATOM      2  O   UNL     1      -8.403 -17.570   7.974  0.00  0.00    +0.000 OA
ATOM      3  C   UNL     1     -14.079 -16.529   4.962  0.00  0.00    +0.000 C 
ATOM      4  C   UNL     1     -12.726 -14.638   3.953  0.00  0.00    +0.000 C 
ATOM      5  C   UNL     1     -13.701 -15.791   3.676  0.00  0.00    +0.000 C 
ATOM      6  C   UNL     1     -11.438 -15.161   4.604  0.00  0.00    +0.000 C 
ATOM      7  C   UNL     1     -12.856 -16.961   5.746  0.00  0.00    +0.000 A 
ATOM      8  C   UNL     1     -11.625 -16.291   5.601  0.00  0.00    +0.000 A 
ATOM      9  C   UNL     1     -12.952 -18.012   6.677  0.00  0.00    +0.000 A 
ATOM     10  C   UNL     1     -10.524 -16.708   6.370  0.00  0.00    +0.000 A 
ATOM     11  C   UNL     1     -11.847 -18.416   7.451  0.00  0.00    +0.000 A 
ATOM     12  C   UNL     1     -10.631 -17.761   7.293  0.00  0.00    +0.000 A 
ATOM     13  C   UNL     1     -11.976 -19.515   8.434  0.00  0.00    +0.000 C 
ATOM     14  C   UNL     1      -9.464 -18.175   8.095  0.00  0.00    +0.000 C 
ATOM     15  C   UNL     1     -10.789 -19.982   9.190  0.00  0.00    +0.000 A 
ATOM     16  C   UNL     1      -9.574 -19.313   9.025  0.00  0.00    +0.000 A 
ATOM     17  C   UNL     1     -10.842 -21.069  10.076  0.00  0.00    +0.000 A 
ATOM     18  C   UNL     1      -8.432 -19.718   9.733  0.00  0.00    +0.000 A 
ATOM     19  C   UNL     1      -9.696 -21.488  10.762  0.00  0.00    +0.000 A 
ATOM     20  C   UNL     1      -8.494 -20.806  10.600  0.00  0.00    +0.000 A 
ENDROOT
BRANCH   4  21
ATOM     21  O   UNL     1     -13.337 -13.654   4.796  0.00  0.00    +0.000 OA
ATOM     22  H   UNL     1     -13.777 -13.004   4.208  0.00  0.00    +0.000 HD
ENDBRANCH   4  21
BRANCH   9  23
ATOM     23  O   UNL     1     -14.175 -18.628   6.795  0.00  0.00    +0.000 OA
ATOM     24  H   UNL     1     -14.883 -17.953   6.668  0.00  0.00    +0.000 HD
ENDBRANCH   9  23
BRANCH  10  25
ATOM     25  O   UNL     1      -9.342 -16.037   6.167  0.00  0.00    +0.000 OA
ATOM     26  H   UNL     1      -8.616 -16.527   6.616  0.00  0.00    +0.000 HD
ENDBRANCH  10  25
BRANCH   4  28
ATOM     27  O   UNL     1     -11.198 -13.639   2.334  0.00  0.00    +0.000 OA
ATOM     28  C   UNL     1     -12.360 -13.937   2.633  0.00  0.00    +0.000 C 
BRANCH  28  29
ATOM     29  C   UNL     1     -13.505 -13.592   1.685  0.00  0.00    +0.000 C 
BRANCH  29  30
ATOM     30  O   UNL     1     -14.436 -12.707   2.298  0.00  0.00    +0.000 OA
ATOM     31  H   UNL     1     -14.465 -12.957   3.244  0.00  0.00    +0.000 HD
ENDBRANCH  29  30
ENDBRANCH  28  29
ENDBRANCH   4  28
BRANCH  17  32
ATOM     32  O   UNL     1     -11.973 -21.826  10.229  0.00  0.00    +0.000 OA
ATOM     33  C   UNL     1     -11.777 -23.137   9.693  0.00  0.00    +0.000 C 
ENDBRANCH  17  32
BRANCH   3  34
ATOM     34  O   UNL     1     -14.806 -15.628   5.815  0.00  0.00    +0.000 OA
BRANCH  34  36
ATOM     35  O   UNL     1     -16.522 -14.363   4.815  0.00  0.00    +0.000 OA
ATOM     36  C   UNL     1     -16.198 -15.576   5.490  0.00  0.00    +0.000 C 
ATOM     37  C   UNL     1     -17.018 -15.764   6.768  0.00  0.00    +0.000 C 
ATOM     38  C   UNL     1     -16.901 -14.541   7.680  0.00  0.00    +0.000 C 
ATOM     39  C   UNL     1     -17.274 -13.269   6.890  0.00  0.00    +0.000 C 
ATOM     40  C   UNL     1     -16.393 -13.190   5.628  0.00  0.00    +0.000 C 
ATOM     41  C   UNL     1     -16.742 -11.997   4.746  0.00  0.00    +0.000 C 
BRANCH  38  42
ATOM     42  N   UNL     1     -17.769 -14.687   8.862  0.00  0.00    +0.000 NA
ATOM     43  H   UNL     1     -18.680 -15.046   8.583  0.00  0.00    +0.000 HD
ATOM     44  H   UNL     1     -17.937 -13.743   9.226  0.00  0.00    +0.000 HD
ENDBRANCH  38  42
BRANCH  39  45
ATOM     45  O   UNL     1     -18.673 -13.338   6.557  0.00  0.00    +0.000 OA
ATOM     46  H   UNL     1     -19.033 -12.438   6.620  0.00  0.00    +0.000 HD
ENDBRANCH  39  45
ENDBRANCH  34  36
ENDBRANCH   3  34
TORSDOF 11
ENDMDL
MODEL 8
REMARK VINA RESULT:      -5.8      3.332      8.741
REMARK  Name = 
REMARK  13 active torsions:
REMARK  status: ('A' for Active; 'I' for Inactive)
REMARK    1  A    between atoms: O_1  and  C_13
REMARK    2  A    between atoms: O_1  and  C_19
REMARK    3  A    between atoms: O_3  and  C_14
REMARK    4  A    between atoms: O_4  and  C_22
REMARK    5  A    between atoms: O_5  and  C_24
REMARK    6  A    between atoms: O_6  and  C_26
REMARK    7  A    between atoms: O_8  and  C_30
REMARK    8  A    between atoms: O_11  and  C_35
REMARK    9  A    between atoms: O_11  and  C_39
REMARK   10  A    between atoms: N_12  and  C_21
REMARK   11  A    between atoms: C_14  and  C_25
REMARK   12  A    between atoms: C_23  and  C_29
REMARK   13  A    between atoms: C_25  and  C_30
REMARK                            x       y       z     vdW  Elec       q    Type
REMARK                         _______ _______ _______ _____ _____    ______ ____
ROOT
ATOM      1  O   UNL     1     -12.539  -6.612  27.114  0.00  0.00    +0.000 OA
ATOM      2  O   UNL     1      -7.340  -6.785  26.015  0.00  0.00    +0.000 OA
ATOM      3  C   UNL     1     -12.071  -3.272  23.249  0.00  0.00    +0.000 C 
ATOM      4  C   UNL     1     -10.076  -2.320  22.011  0.00  0.00    +0.000 C 
ATOM      5  C   UNL     1     -11.503  -2.869  21.887  0.00  0.00    +0.000 C 
ATOM      6  C   UNL     1      -9.142  -3.370  22.630  0.00  0.00    +0.000 C 
ATOM      7  C   UNL     1     -11.139  -4.205  23.997  0.00  0.00    +0.000 A 
ATOM      8  C   UNL     1      -9.756  -4.220  23.727  0.00  0.00    +0.000 A 
ATOM      9  C   UNL     1     -11.642  -5.034  25.017  0.00  0.00    +0.000 A 
ATOM     10  C   UNL     1      -8.924  -5.081  24.465  0.00  0.00    +0.000 A 
ATOM     11  C   UNL     1     -10.800  -5.885  25.759  0.00  0.00    +0.000 A 
ATOM     12  C   UNL     1      -9.439  -5.908  25.478  0.00  0.00    +0.000 A 
ATOM     13  C   UNL     1     -11.350  -6.737  26.837  0.00  0.00    +0.000 C 
ATOM     14  C   UNL     1      -8.546  -6.796  26.245  0.00  0.00    +0.000 C 
ATOM     15  C   UNL     1     -10.468  -7.684  27.561  0.00  0.00    +0.000 A 
ATOM     16  C   UNL     1      -9.102  -7.694  27.272  0.00  0.00    +0.000 A 
ATOM     17  C   UNL     1     -10.955  -8.567  28.537  0.00  0.00    +0.000 A 
ATOM     18  C   UNL     1      -8.235  -8.568  27.947  0.00  0.00    +0.000 A 
ATOM     19  C   UNL     1     -10.093  -9.456  29.190  0.00  0.00    +0.000 A 
ATOM     20  C   UNL     1      -8.731  -9.448  28.904  0.00  0.00    +0.000 A 
ENDROOT
BRANCH   4  21
ATOM     21  O   UNL     1     -10.063  -1.125  22.802  0.00  0.00    +0.000 OA
ATOM     22  H   UNL     1      -9.552  -1.323  23.615  0.00  0.00    +0.000 HD
ENDBRANCH   4  21
BRANCH   9  23
ATOM     23  O   UNL     1     -12.995  -4.976  25.255  0.00  0.00    +0.000 OA
ATOM     24  H   UNL     1     -13.414  -4.420  24.557  0.00  0.00    +0.000 HD
ENDBRANCH   9  23
BRANCH  10  25
ATOM     25  O   UNL     1      -7.589  -5.075  24.141  0.00  0.00    +0.000 OA
ATOM     26  H   UNL     1      -7.498  -5.175  23.166  0.00  0.00    +0.000 HD
ENDBRANCH  10  25
BRANCH   4  28
ATOM     27  O   UNL     1      -8.685  -1.069  20.445  0.00  0.00    +0.000 OA
ATOM     28  C   UNL     1      -9.539  -1.945  20.619  0.00  0.00    +0.000 C 
BRANCH  28  29
ATOM     29  C   UNL     1     -10.122  -2.692  19.421  0.00  0.00    +0.000 C 
BRANCH  29  30
ATOM     30  O   UNL     1      -9.412  -3.899  19.170  0.00  0.00    +0.000 OA
ATOM     31  H   UNL     1      -9.764  -4.250  18.326  0.00  0.00    +0.000 HD
ENDBRANCH  29  30
ENDBRANCH  28  29
ENDBRANCH   4  28
BRANCH  17  32
ATOM     32  O   UNL     1     -12.292  -8.676  28.816  0.00  0.00    +0.000 OA
ATOM     33  C   UNL     1     -12.790  -9.951  28.404  0.00  0.00    +0.000 C 
ENDBRANCH  17  32
BRANCH   3  34
ATOM     34  O   UNL     1     -12.199  -2.094  24.063  0.00  0.00    +0.000 OA
BRANCH  34  36
ATOM     35  O   UNL     1     -12.873   0.053  23.367  0.00  0.00    +0.000 OA
ATOM     36  C   UNL     1     -13.301  -1.274  23.664  0.00  0.00    +0.000 C 
ATOM     37  C   UNL     1     -14.371  -1.306  24.757  0.00  0.00    +0.000 C 
ATOM     38  C   UNL     1     -13.903  -0.551  26.004  0.00  0.00    +0.000 C 
ATOM     39  C   UNL     1     -13.465   0.874  25.612  0.00  0.00    +0.000 C 
ATOM     40  C   UNL     1     -12.397   0.781  24.506  0.00  0.00    +0.000 C 
ATOM     41  C   UNL     1     -11.953   2.151  24.004  0.00  0.00    +0.000 C 
BRANCH  38  42
ATOM     42  N   UNL     1     -14.974  -0.502  27.016  0.00  0.00    +0.000 NA
ATOM     43  H   UNL     1     -15.878  -0.391  26.561  0.00  0.00    +0.000 HD
ATOM     44  H   UNL     1     -14.826   0.352  27.564  0.00  0.00    +0.000 HD
ENDBRANCH  38  42
BRANCH  39  45
ATOM     45  O   UNL     1     -14.627   1.598  25.168  0.00  0.00    +0.000 OA
ATOM     46  H   UNL     1     -14.508   1.792  24.223  0.00  0.00    +0.000 HD
ENDBRANCH  39  45
ENDBRANCH  34  36
ENDBRANCH   3  34
TORSDOF 11
ENDMDL
MODEL 9
REMARK VINA RESULT:      -5.8     10.695     12.151
REMARK  Name = 
REMARK  13 active torsions:
REMARK  status: ('A' for Active; 'I' for Inactive)
REMARK    1  A    between atoms: O_1  and  C_13
REMARK    2  A    between atoms: O_1  and  C_19
REMARK    3  A    between atoms: O_3  and  C_14
REMARK    4  A    between atoms: O_4  and  C_22
REMARK    5  A    between atoms: O_5  and  C_24
REMARK    6  A    between atoms: O_6  and  C_26
REMARK    7  A    between atoms: O_8  and  C_30
REMARK    8  A    between atoms: O_11  and  C_35
REMARK    9  A    between atoms: O_11  and  C_39
REMARK   10  A    between atoms: N_12  and  C_21
REMARK   11  A    between atoms: C_14  and  C_25
REMARK   12  A    between atoms: C_23  and  C_29
REMARK   13  A    between atoms: C_25  and  C_30
REMARK                            x       y       z     vdW  Elec       q    Type
REMARK                         _______ _______ _______ _____ _____    ______ ____
ROOT
ATOM      1  O   UNL     1      -1.457 -16.018  23.636  0.00  0.00    +0.000 OA
ATOM      2  O   UNL     1      -3.598 -14.053  19.184  0.00  0.00    +0.000 OA
ATOM      3  C   UNL     1      -6.263 -17.805  23.788  0.00  0.00    +0.000 C 
ATOM      4  C   UNL     1      -8.314 -17.392  22.358  0.00  0.00    +0.000 C 
ATOM      5  C   UNL     1      -7.480 -18.437  23.110  0.00  0.00    +0.000 C 
ATOM      6  C   UNL     1      -7.470 -16.698  21.279  0.00  0.00    +0.000 C 
ATOM      7  C   UNL     1      -5.443 -16.977  22.818  0.00  0.00    +0.000 A 
ATOM      8  C   UNL     1      -6.024 -16.428  21.659  0.00  0.00    +0.000 A 
ATOM      9  C   UNL     1      -4.092 -16.700  23.098  0.00  0.00    +0.000 A 
ATOM     10  C   UNL     1      -5.233 -15.643  20.802  0.00  0.00    +0.000 A 
ATOM     11  C   UNL     1      -3.309 -15.903  22.240  0.00  0.00    +0.000 A 
ATOM     12  C   UNL     1      -3.883 -15.377  21.089  0.00  0.00    +0.000 A 
ATOM     13  C   UNL     1      -1.893 -15.614  22.562  0.00  0.00    +0.000 C 
ATOM     14  C   UNL     1      -3.075 -14.543  20.180  0.00  0.00    +0.000 C 
ATOM     15  C   UNL     1      -1.058 -14.837  21.616  0.00  0.00    +0.000 A 
ATOM     16  C   UNL     1      -1.648 -14.310  20.465  0.00  0.00    +0.000 A 
ATOM     17  C   UNL     1       0.308 -14.601  21.839  0.00  0.00    +0.000 A 
ATOM     18  C   UNL     1      -0.891 -13.558  19.553  0.00  0.00    +0.000 A 
ATOM     19  C   UNL     1       1.067 -13.873  20.915  0.00  0.00    +0.000 A 
ATOM     20  C   UNL     1       0.465 -13.342  19.778  0.00  0.00    +0.000 A 
ENDROOT
BRANCH   4  21
ATOM     21  O   UNL     1      -8.843 -16.419  23.268  0.00  0.00    +0.000 OA
ATOM     22  H   UNL     1      -9.263 -16.913  24.005  0.00  0.00    +0.000 HD
ENDBRANCH   4  21
BRANCH   9  23
ATOM     23  O   UNL     1      -3.570 -17.245  24.247  0.00  0.00    +0.000 OA
ATOM     24  H   UNL     1      -2.586 -17.258  24.172  0.00  0.00    +0.000 HD
ENDBRANCH   9  23
BRANCH  10  25
ATOM     25  O   UNL     1      -5.844 -15.156  19.672  0.00  0.00    +0.000 OA
ATOM     26  H   UNL     1      -6.131 -14.230  19.839  0.00  0.00    +0.000 HD
ENDBRANCH  10  25
BRANCH   4  28
ATOM     27  O   UNL     1      -9.846 -19.240  21.920  0.00  0.00    +0.000 OA
ATOM     28  C   UNL     1      -9.514 -18.073  21.679  0.00  0.00    +0.000 C 
BRANCH  28  29
ATOM     29  C   UNL     1     -10.295 -17.254  20.654  0.00  0.00    +0.000 C 
BRANCH  29  30
ATOM     30  O   UNL     1     -10.752 -16.028  21.211  0.00  0.00    +0.000 OA
ATOM     31  H   UNL     1     -10.046 -15.371  21.038  0.00  0.00    +0.000 HD
ENDBRANCH  29  30
ENDBRANCH  28  29
ENDBRANCH   4  28
BRANCH  17  32
ATOM     32  O   UNL     1       0.977 -15.153  22.898  0.00  0.00    +0.000 OA
ATOM     33  C   UNL     1       1.842 -14.191  23.505  0.00  0.00    +0.000 C 
ENDBRANCH  17  32
BRANCH   3  34
ATOM     34  O   UNL     1      -6.721 -16.897  24.805  0.00  0.00    +0.000 OA
BRANCH  34  36
ATOM     35  O   UNL     1      -7.613 -18.266  26.501  0.00  0.00    +0.000 OA
ATOM     36  C   UNL     1      -6.531 -17.417  26.123  0.00  0.00    +0.000 C 
ATOM     37  C   UNL     1      -6.341 -16.254  27.099  0.00  0.00    +0.000 C 
ATOM     38  C   UNL     1      -7.648 -15.481  27.292  0.00  0.00    +0.000 C 
ATOM     39  C   UNL     1      -8.769 -16.456  27.706  0.00  0.00    +0.000 C 
ATOM     40  C   UNL     1      -8.863 -17.582  26.659  0.00  0.00    +0.000 C 
ATOM     41  C   UNL     1      -9.902 -18.636  27.026  0.00  0.00    +0.000 C 
BRANCH  38  42
ATOM     42  N   UNL     1      -7.483 -14.423  28.305  0.00  0.00    +0.000 NA
ATOM     43  H   UNL     1      -6.568 -14.501  28.745  0.00  0.00    +0.000 HD
ATOM     44  H   UNL     1      -8.169 -14.610  29.044  0.00  0.00    +0.000 HD
ENDBRANCH  38  42
BRANCH  39  45
ATOM     45  O   UNL     1      -8.459 -16.971  29.015  0.00  0.00    +0.000 OA
ATOM     46  H   UNL     1      -9.248 -16.854  29.569  0.00  0.00    +0.000 HD
ENDBRANCH  39  45
ENDBRANCH  34  36
ENDBRANCH   3  34
TORSDOF 11
ENDMDL
