MODEL 1
REMARK VINA RESULT:      -6.0      0.000      0.000
REMARK  Name = Dronabinol.pdbqt.pdb
REMARK  3 active torsions:
REMARK  status: ('A' for Active; 'I' for Inactive)
REMARK    1  A    between atoms: C_13  and  O_18
REMARK    2  A    between atoms: C_16  and  C_20
REMARK    3  A    between atoms: C_21  and  C_22
REMARK                            x       y       z     vdW  Elec       q    Type
REMARK                         _______ _______ _______ _____ _____    ______ ____
ROOT
ATOM      1  O   UNL     1     -10.983  -4.614  20.729  0.00  0.00    +0.000 OA
ATOM      2  C   UNL     1     -10.109  -2.320  20.505  0.00  0.00    +0.000 A 
ATOM      3  C   UNL     1     -10.419  -2.120  21.942  0.00  0.00    +0.000 A 
ATOM      4  C   UNL     1     -10.110  -3.732  19.984  0.00  0.00    +0.000 C 
ATOM      5  C   UNL     1      -9.627  -1.121  19.871  0.00  0.00    +0.000 A 
ATOM      6  C   UNL     1     -10.835  -3.252  22.767  0.00  0.00    +0.000 A 
ATOM      7  C   UNL     1      -9.481   0.242  20.573  0.00  0.00    +0.000 A 
ATOM      8  C   UNL     1     -10.215  -0.755  22.376  0.00  0.00    +0.000 A 
ATOM      9  C   UNL     1      -9.823   0.424  21.955  0.00  0.00    +0.000 A 
ATOM     10  C   UNL     1     -11.092  -4.453  22.089  0.00  0.00    +0.000 A 
ATOM     11  C   UNL     1     -10.639  -3.739  18.524  0.00  0.00    +0.000 C 
ATOM     12  C   UNL     1      -8.664  -4.306  20.038  0.00  0.00    +0.000 C 
ATOM     13  C   UNL     1     -11.010  -3.221  24.156  0.00  0.00    +0.000 A 
ATOM     14  C   UNL     1     -11.547  -5.577  22.782  0.00  0.00    +0.000 A 
ATOM     15  C   UNL     1     -10.529   1.666  22.400  0.00  0.00    +0.000 C 
ATOM     16  C   UNL     1     -11.716  -5.526  24.161  0.00  0.00    +0.000 A 
ATOM     17  C   UNL     1     -11.446  -4.351  24.851  0.00  0.00    +0.000 A 
ENDROOT
BRANCH  13  18
ATOM     18  O   UNL     1     -10.750  -2.081  24.863  0.00  0.00    +0.000 OA
ATOM     19  H   UNL     1     -11.388  -2.004  25.595  0.00  0.00    +0.000 HD
ENDBRANCH  13  18
BRANCH  16  20
ATOM     20  C   UNL     1     -12.154  -6.683  24.867  0.00  0.00    +0.000 C 
ATOM     21  C   UNL     1     -12.617  -7.935  25.619  0.00  0.00    +0.000 C 
BRANCH  21  22
ATOM     22  C   UNL     1     -13.072  -9.192  26.367  0.00  0.00    +0.000 C 
ATOM     23  C   UNL     1     -13.532 -10.449  27.113  0.00  0.00    +0.000 C 
ATOM     24  C   UNL     1     -13.993 -11.706  27.857  0.00  0.00    +0.000 C 
ENDBRANCH  21  22
ENDBRANCH  16  20
TORSDOF 3
ENDMDL
MODEL 2
REMARK VINA RESULT:      -6.0     20.030     24.159
REMARK  Name = Dronabinol.pdbqt.pdb
REMARK  3 active torsions:
REMARK  status: ('A' for Active; 'I' for Inactive)
REMARK    1  A    between atoms: C_13  and  O_18
REMARK    2  A    between atoms: C_16  and  C_20
REMARK    3  A    between atoms: C_21  and  C_22
REMARK                            x       y       z     vdW  Elec       q    Type
REMARK                         _______ _______ _______ _____ _____    ______ ____
ROOT
ATOM      1  O   UNL     1      -4.512  -5.173   0.891  0.00  0.00    +0.000 OA
ATOM      2  C   UNL     1      -3.722  -7.100  -0.427  0.00  0.00    +0.000 A 
ATOM      3  C   UNL     1      -2.336  -6.689  -0.095  0.00  0.00    +0.000 A 
ATOM      4  C   UNL     1      -4.839  -6.483   0.371  0.00  0.00    +0.000 C 
ATOM      5  C   UNL     1      -3.767  -8.218  -1.333  0.00  0.00    +0.000 A 
ATOM      6  C   UNL     1      -2.100  -5.629   0.881  0.00  0.00    +0.000 A 
ATOM      7  C   UNL     1      -2.527  -8.903  -1.939  0.00  0.00    +0.000 A 
ATOM      8  C   UNL     1      -1.337  -7.471  -0.792  0.00  0.00    +0.000 A 
ATOM      9  C   UNL     1      -1.195  -8.465  -1.635  0.00  0.00    +0.000 A 
ATOM     10  C   UNL     1      -3.231  -4.926   1.322  0.00  0.00    +0.000 A 
ATOM     11  C   UNL     1      -6.075  -6.282  -0.548  0.00  0.00    +0.000 C 
ATOM     12  C   UNL     1      -5.200  -7.414   1.565  0.00  0.00    +0.000 C 
ATOM     13  C   UNL     1      -0.847  -5.256   1.384  0.00  0.00    +0.000 A 
ATOM     14  C   UNL     1      -3.103  -3.859   2.213  0.00  0.00    +0.000 A 
ATOM     15  C   UNL     1      -0.156  -8.410  -2.711  0.00  0.00    +0.000 C 
ATOM     16  C   UNL     1      -1.850  -3.504   2.701  0.00  0.00    +0.000 A 
ATOM     17  C   UNL     1      -0.721  -4.202   2.291  0.00  0.00    +0.000 A 
ENDROOT
BRANCH  13  18
ATOM     18  O   UNL     1       0.282  -5.925   1.002  0.00  0.00    +0.000 OA
ATOM     19  H   UNL     1       1.043  -5.585   1.506  0.00  0.00    +0.000 HD
ENDBRANCH  13  18
BRANCH  16  20
ATOM     20  C   UNL     1      -1.727  -2.432   3.631  0.00  0.00    +0.000 C 
ATOM     21  C   UNL     1      -1.596  -1.287   4.642  0.00  0.00    +0.000 C 
BRANCH  21  22
ATOM     22  C   UNL     1      -1.464  -0.151   5.659  0.00  0.00    +0.000 C 
ATOM     23  C   UNL     1      -1.327   0.987   6.676  0.00  0.00    +0.000 C 
ATOM     24  C   UNL     1      -1.189   2.127   7.691  0.00  0.00    +0.000 C 
ENDBRANCH  21  22
ENDBRANCH  16  20
TORSDOF 3
ENDMDL
MODEL 3
REMARK VINA RESULT:      -5.8     16.884     20.329
REMARK  Name = Dronabinol.pdbqt.pdb
REMARK  3 active torsions:
REMARK  status: ('A' for Active; 'I' for Inactive)
REMARK    1  A    between atoms: C_13  and  O_18
REMARK    2  A    between atoms: C_16  and  C_20
REMARK    3  A    between atoms: C_21  and  C_22
REMARK                            x       y       z     vdW  Elec       q    Type
REMARK                         _______ _______ _______ _____ _____    ______ ____
ROOT
ATOM      1  O   UNL     1     -21.746  -4.294   8.380  0.00  0.00    +0.000 OA
ATOM      2  C   UNL     1     -22.154  -5.204   6.127  0.00  0.00    +0.000 A 
ATOM      3  C   UNL     1     -22.591  -3.847   5.717  0.00  0.00    +0.000 A 
ATOM      4  C   UNL     1     -21.410  -5.331   7.429  0.00  0.00    +0.000 C 
ATOM      5  C   UNL     1     -22.321  -6.179   5.080  0.00  0.00    +0.000 A 
ATOM      6  C   UNL     1     -22.410  -2.714   6.622  0.00  0.00    +0.000 A 
ATOM      7  C   UNL     1     -22.924  -5.880   3.695  0.00  0.00    +0.000 A 
ATOM      8  C   UNL     1     -23.133  -3.812   4.376  0.00  0.00    +0.000 A 
ATOM      9  C   UNL     1     -23.377  -4.568   3.332  0.00  0.00    +0.000 A 
ATOM     10  C   UNL     1     -21.986  -3.021   7.924  0.00  0.00    +0.000 A 
ATOM     11  C   UNL     1     -21.791  -6.675   8.108  0.00  0.00    +0.000 C 
ATOM     12  C   UNL     1     -19.878  -5.277   7.158  0.00  0.00    +0.000 C 
ATOM     13  C   UNL     1     -22.644  -1.372   6.296  0.00  0.00    +0.000 A 
ATOM     14  C   UNL     1     -21.837  -2.013   8.878  0.00  0.00    +0.000 A 
ATOM     15  C   UNL     1     -24.638  -4.396   2.545  0.00  0.00    +0.000 C 
ATOM     16  C   UNL     1     -22.074  -0.686   8.537  0.00  0.00    +0.000 A 
ATOM     17  C   UNL     1     -22.474  -0.362   7.246  0.00  0.00    +0.000 A 
ENDROOT
BRANCH  13  18
ATOM     18  O   UNL     1     -23.035  -1.022   5.035  0.00  0.00    +0.000 OA
ATOM     19  H   UNL     1     -22.286  -1.136   4.423  0.00  0.00    +0.000 HD
ENDBRANCH  13  18
BRANCH  16  20
ATOM     20  C   UNL     1     -21.894   0.341   9.506  0.00  0.00    +0.000 C 
ATOM     21  C   UNL     1     -21.688   1.443  10.552  0.00  0.00    +0.000 C 
BRANCH  21  22
ATOM     22  C   UNL     1     -21.472   2.541  11.596  0.00  0.00    +0.000 C 
ATOM     23  C   UNL     1     -21.252   3.643  12.639  0.00  0.00    +0.000 C 
ATOM     24  C   UNL     1     -21.031   4.746  13.679  0.00  0.00    +0.000 C 
ENDBRANCH  21  22
ENDBRANCH  16  20
TORSDOF 3
ENDMDL
MODEL 4
REMARK VINA RESULT:      -5.8      2.784      8.790
REMARK  Name = Dronabinol.pdbqt.pdb
REMARK  3 active torsions:
REMARK  status: ('A' for Active; 'I' for Inactive)
REMARK    1  A    between atoms: C_13  and  O_18
REMARK    2  A    between atoms: C_16  and  C_20
REMARK    3  A    between atoms: C_21  and  C_22
REMARK                            x       y       z     vdW  Elec       q    Type
REMARK                         _______ _______ _______ _____ _____    ______ ____
ROOT
ATOM      1  O   UNL     1      -9.111  -2.769  20.215  0.00  0.00    +0.000 OA
ATOM      2  C   UNL     1     -10.788  -4.094  21.443  0.00  0.00    +0.000 A 
ATOM      3  C   UNL     1     -11.070  -2.884  22.254  0.00  0.00    +0.000 A 
ATOM      4  C   UNL     1      -9.998  -3.911  20.175  0.00  0.00    +0.000 C 
ATOM      5  C   UNL     1     -11.523  -5.246  21.894  0.00  0.00    +0.000 A 
ATOM      6  C   UNL     1     -10.481  -1.599  21.883  0.00  0.00    +0.000 A 
ATOM      7  C   UNL     1     -12.470  -5.259  23.109  0.00  0.00    +0.000 A 
ATOM      8  C   UNL     1     -11.982  -3.141  23.348  0.00  0.00    +0.000 A 
ATOM      9  C   UNL     1     -12.699  -4.087  23.904  0.00  0.00    +0.000 A 
ATOM     10  C   UNL     1      -9.519  -1.628  20.862  0.00  0.00    +0.000 A 
ATOM     11  C   UNL     1      -9.090  -5.151  19.954  0.00  0.00    +0.000 C 
ATOM     12  C   UNL     1     -10.976  -3.736  18.975  0.00  0.00    +0.000 C 
ATOM     13  C   UNL     1     -10.786  -0.368  22.476  0.00  0.00    +0.000 A 
ATOM     14  C   UNL     1      -8.860  -0.460  20.474  0.00  0.00    +0.000 A 
ATOM     15  C   UNL     1     -12.796  -4.194  25.393  0.00  0.00    +0.000 C 
ATOM     16  C   UNL     1      -9.176   0.753  21.074  0.00  0.00    +0.000 A 
ATOM     17  C   UNL     1     -10.141   0.804  22.074  0.00  0.00    +0.000 A 
ENDROOT
BRANCH  13  18
ATOM     18  O   UNL     1     -11.732  -0.286  23.459  0.00  0.00    +0.000 OA
ATOM     19  H   UNL     1     -12.603  -0.514  23.086  0.00  0.00    +0.000 HD
ENDBRANCH  13  18
BRANCH  16  20
ATOM     20  C   UNL     1      -8.520   1.946  20.657  0.00  0.00    +0.000 C 
ATOM     21  C   UNL     1      -7.801   3.223  20.207  0.00  0.00    +0.000 C 
BRANCH  21  22
ATOM     22  C   UNL     1      -7.075   4.493  19.755  0.00  0.00    +0.000 C 
ATOM     23  C   UNL     1      -6.344   5.761  19.302  0.00  0.00    +0.000 C 
ATOM     24  C   UNL     1      -5.612   7.028  18.847  0.00  0.00    +0.000 C 
ENDBRANCH  21  22
ENDBRANCH  16  20
TORSDOF 3
ENDMDL
MODEL 5
REMARK VINA RESULT:      -5.7      4.304      8.383
REMARK  Name = Dronabinol.pdbqt.pdb
REMARK  3 active torsions:
REMARK  status: ('A' for Active; 'I' for Inactive)
REMARK    1  A    between atoms: C_13  and  O_18
REMARK    2  A    between atoms: C_16  and  C_20
REMARK    3  A    between atoms: C_21  and  C_22
REMARK                            x       y       z     vdW  Elec       q    Type
REMARK                         _______ _______ _______ _____ _____    ______ ____
ROOT
ATOM      1  O   UNL     1      -7.799  -3.934  20.980  0.00  0.00    +0.000 OA
ATOM      2  C   UNL     1      -9.904  -4.725  21.989  0.00  0.00    +0.000 A 
ATOM      3  C   UNL     1      -9.455  -4.118  23.267  0.00  0.00    +0.000 A 
ATOM      4  C   UNL     1      -9.170  -4.328  20.737  0.00  0.00    +0.000 C 
ATOM      5  C   UNL     1     -11.143  -5.445  22.123  0.00  0.00    +0.000 A 
ATOM      6  C   UNL     1      -8.263  -3.275  23.299  0.00  0.00    +0.000 A 
ATOM      7  C   UNL     1     -11.916  -5.617  23.444  0.00  0.00    +0.000 A 
ATOM      8  C   UNL     1     -10.336  -4.425  24.373  0.00  0.00    +0.000 A 
ATOM      9  C   UNL     1     -11.445  -5.055  24.677  0.00  0.00    +0.000 A 
ATOM     10  C   UNL     1      -7.497  -3.236  22.124  0.00  0.00    +0.000 A 
ATOM     11  C   UNL     1      -9.100  -5.546  19.775  0.00  0.00    +0.000 C 
ATOM     12  C   UNL     1      -9.912  -3.142  20.054  0.00  0.00    +0.000 C 
ATOM     13  C   UNL     1      -7.826  -2.532  24.403  0.00  0.00    +0.000 A 
ATOM     14  C   UNL     1      -6.311  -2.501  22.073  0.00  0.00    +0.000 A 
ATOM     15  C   UNL     1     -11.555  -5.833  25.951  0.00  0.00    +0.000 C 
ATOM     16  C   UNL     1      -5.893  -1.770  23.179  0.00  0.00    +0.000 A 
ATOM     17  C   UNL     1      -6.650  -1.781  24.345  0.00  0.00    +0.000 A 
ENDROOT
BRANCH  13  18
ATOM     18  O   UNL     1      -8.550  -2.520  25.562  0.00  0.00    +0.000 OA
ATOM     19  H   UNL     1      -9.501  -2.545  25.347  0.00  0.00    +0.000 HD
ENDBRANCH  13  18
BRANCH  16  20
ATOM     20  C   UNL     1      -4.697  -1.002  23.114  0.00  0.00    +0.000 C 
ATOM     21  C   UNL     1      -3.406  -0.179  23.030  0.00  0.00    +0.000 C 
BRANCH  21  22
ATOM     22  C   UNL     1      -2.117   0.642  22.937  0.00  0.00    +0.000 C 
ATOM     23  C   UNL     1      -0.824   1.460  22.846  0.00  0.00    +0.000 C 
ATOM     24  C   UNL     1       0.469   2.276  22.755  0.00  0.00    +0.000 C 
ENDBRANCH  21  22
ENDBRANCH  16  20
TORSDOF 3
ENDMDL
MODEL 6
REMARK VINA RESULT:      -5.7     16.464     18.982
REMARK  Name = Dronabinol.pdbqt.pdb
REMARK  3 active torsions:
REMARK  status: ('A' for Active; 'I' for Inactive)
REMARK    1  A    between atoms: C_13  and  O_18
REMARK    2  A    between atoms: C_16  and  C_20
REMARK    3  A    between atoms: C_21  and  C_22
REMARK                            x       y       z     vdW  Elec       q    Type
REMARK                         _______ _______ _______ _____ _____    ______ ____
ROOT
ATOM      1  O   UNL     1     -13.736 -16.893   7.907  0.00  0.00    +0.000 OA
ATOM      2  C   UNL     1     -12.235 -16.416   6.010  0.00  0.00    +0.000 A 
ATOM      3  C   UNL     1     -11.172 -16.110   6.999  0.00  0.00    +0.000 A 
ATOM      4  C   UNL     1     -13.459 -17.137   6.508  0.00  0.00    +0.000 C 
ATOM      5  C   UNL     1     -11.820 -16.166   4.655  0.00  0.00    +0.000 A 
ATOM      6  C   UNL     1     -11.387 -16.390   8.417  0.00  0.00    +0.000 A 
ATOM      7  C   UNL     1     -10.444 -15.602   4.252  0.00  0.00    +0.000 A 
ATOM      8  C   UNL     1      -9.971 -15.583   6.387  0.00  0.00    +0.000 A 
ATOM      9  C   UNL     1      -9.443 -15.276   5.227  0.00  0.00    +0.000 A 
ATOM     10  C   UNL     1     -12.685 -16.775   8.784  0.00  0.00    +0.000 A 
ATOM     11  C   UNL     1     -14.705 -16.628   5.731  0.00  0.00    +0.000 C 
ATOM     12  C   UNL     1     -13.281 -18.669   6.298  0.00  0.00    +0.000 C 
ATOM     13  C   UNL     1     -10.414 -16.285   9.419  0.00  0.00    +0.000 A 
ATOM     14  C   UNL     1     -13.004 -17.012  10.123  0.00  0.00    +0.000 A 
ATOM     15  C   UNL     1      -8.612 -14.042   5.070  0.00  0.00    +0.000 C 
ATOM     16  C   UNL     1     -12.025 -16.902  11.104  0.00  0.00    +0.000 A 
ATOM     17  C   UNL     1     -10.729 -16.542  10.755  0.00  0.00    +0.000 A 
ENDROOT
BRANCH  13  18
ATOM     18  O   UNL     1      -9.131 -15.936   9.107  0.00  0.00    +0.000 OA
ATOM     19  H   UNL     1      -9.001 -14.989   9.292  0.00  0.00    +0.000 HD
ENDBRANCH  13  18
BRANCH  16  20
ATOM     20  C   UNL     1     -12.348 -17.170  12.465  0.00  0.00    +0.000 C 
ATOM     21  C   UNL     1     -12.683 -17.458  13.933  0.00  0.00    +0.000 C 
BRANCH  21  22
ATOM     22  C   UNL     1     -13.007 -17.743  15.402  0.00  0.00    +0.000 C 
ATOM     23  C   UNL     1     -13.331 -18.022  16.873  0.00  0.00    +0.000 C 
ATOM     24  C   UNL     1     -13.657 -18.300  18.344  0.00  0.00    +0.000 C 
ENDBRANCH  21  22
ENDBRANCH  16  20
TORSDOF 3
ENDMDL
MODEL 7
REMARK VINA RESULT:      -5.6     12.890     15.738
REMARK  Name = Dronabinol.pdbqt.pdb
REMARK  3 active torsions:
REMARK  status: ('A' for Active; 'I' for Inactive)
REMARK    1  A    between atoms: C_13  and  O_18
REMARK    2  A    between atoms: C_16  and  C_20
REMARK    3  A    between atoms: C_21  and  C_22
REMARK                            x       y       z     vdW  Elec       q    Type
REMARK                         _______ _______ _______ _____ _____    ______ ____
ROOT
ATOM      1  O   UNL     1      -4.524 -17.579  23.083  0.00  0.00    +0.000 OA
ATOM      2  C   UNL     1      -6.809 -18.304  22.511  0.00  0.00    +0.000 A 
ATOM      3  C   UNL     1      -6.885 -17.149  21.584  0.00  0.00    +0.000 A 
ATOM      4  C   UNL     1      -5.450 -18.689  23.031  0.00  0.00    +0.000 C 
ATOM      5  C   UNL     1      -8.049 -19.030  22.595  0.00  0.00    +0.000 A 
ATOM      6  C   UNL     1      -5.693 -16.352  21.306  0.00  0.00    +0.000 A 
ATOM      7  C   UNL     1      -9.340 -18.645  21.848  0.00  0.00    +0.000 A 
ATOM      8  C   UNL     1      -8.201 -16.978  21.007  0.00  0.00    +0.000 A 
ATOM      9  C   UNL     1      -9.404 -17.500  20.985  0.00  0.00    +0.000 A 
ATOM     10  C   UNL     1      -4.563 -16.629  22.091  0.00  0.00    +0.000 A 
ATOM     11  C   UNL     1      -5.585 -19.202  24.490  0.00  0.00    +0.000 C 
ATOM     12  C   UNL     1      -4.842 -19.798  22.122  0.00  0.00    +0.000 C 
ATOM     13  C   UNL     1      -5.603 -15.337  20.345  0.00  0.00    +0.000 A 
ATOM     14  C   UNL     1      -3.392 -15.884  21.939  0.00  0.00    +0.000 A 
ATOM     15  C   UNL     1     -10.616 -16.623  20.986  0.00  0.00    +0.000 C 
ATOM     16  C   UNL     1      -3.322 -14.880  20.979  0.00  0.00    +0.000 A 
ATOM     17  C   UNL     1      -4.425 -14.606  20.179  0.00  0.00    +0.000 A 
ENDROOT
BRANCH  13  18
ATOM     18  O   UNL     1      -6.669 -15.047  19.541  0.00  0.00    +0.000 OA
ATOM     19  H   UNL     1      -7.397 -14.697  20.086  0.00  0.00    +0.000 HD
ENDBRANCH  13  18
BRANCH  16  20
ATOM     20  C   UNL     1      -2.117 -14.142  20.809  0.00  0.00    +0.000 C 
ATOM     21  C   UNL     1      -0.820 -13.343  20.639  0.00  0.00    +0.000 C 
BRANCH  21  22
ATOM     22  C   UNL     1       0.478 -12.545  20.480  0.00  0.00    +0.000 C 
ATOM     23  C   UNL     1       1.779 -11.751  20.322  0.00  0.00    +0.000 C 
ATOM     24  C   UNL     1       3.080 -10.959  20.160  0.00  0.00    +0.000 C 
ENDBRANCH  21  22
ENDBRANCH  16  20
TORSDOF 3
ENDMDL
MODEL 8
REMARK VINA RESULT:      -5.5      2.129      3.688
REMARK  Name = Dronabinol.pdbqt.pdb
REMARK  3 active torsions:
REMARK  status: ('A' for Active; 'I' for Inactive)
REMARK    1  A    between atoms: C_13  and  O_18
REMARK    2  A    between atoms: C_16  and  C_20
REMARK    3  A    between atoms: C_21  and  C_22
REMARK                            x       y       z     vdW  Elec       q    Type
REMARK                         _______ _______ _______ _____ _____    ______ ____
ROOT
ATOM      1  O   UNL     1      -8.608  -2.822  24.074  0.00  0.00    +0.000 OA
ATOM      2  C   UNL     1      -9.210  -2.025  21.821  0.00  0.00    +0.000 A 
ATOM      3  C   UNL     1      -9.971  -3.285  21.638  0.00  0.00    +0.000 A 
ATOM      4  C   UNL     1      -8.784  -1.668  23.220  0.00  0.00    +0.000 C 
ATOM      5  C   UNL     1      -9.191  -1.212  20.633  0.00  0.00    +0.000 A 
ATOM      6  C   UNL     1     -10.171  -4.191  22.766  0.00  0.00    +0.000 A 
ATOM      7  C   UNL     1      -9.843  -1.604  19.295  0.00  0.00    +0.000 A 
ATOM      8  C   UNL     1     -10.484  -3.441  20.293  0.00  0.00    +0.000 A 
ATOM      9  C   UNL     1     -10.543  -2.846  19.126  0.00  0.00    +0.000 A 
ATOM     10  C   UNL     1      -9.462  -3.890  23.939  0.00  0.00    +0.000 A 
ATOM     11  C   UNL     1      -7.403  -0.959  23.170  0.00  0.00    +0.000 C 
ATOM     12  C   UNL     1      -9.849  -0.732  23.864  0.00  0.00    +0.000 C 
ATOM     13  C   UNL     1     -10.990  -5.327  22.757  0.00  0.00    +0.000 A 
ATOM     14  C   UNL     1      -9.545  -4.726  25.054  0.00  0.00    +0.000 A 
ATOM     15  C   UNL     1     -10.391  -3.631  17.862  0.00  0.00    +0.000 C 
ATOM     16  C   UNL     1     -10.362  -5.850  25.025  0.00  0.00    +0.000 A 
ATOM     17  C   UNL     1     -11.088  -6.152  23.879  0.00  0.00    +0.000 A 
ENDROOT
BRANCH  13  18
ATOM     18  O   UNL     1     -11.718  -5.649  21.646  0.00  0.00    +0.000 OA
ATOM     19  H   UNL     1     -12.241  -4.874  21.370  0.00  0.00    +0.000 HD
ENDBRANCH  13  18
BRANCH  16  20
ATOM     20  C   UNL     1     -10.465  -6.685  26.174  0.00  0.00    +0.000 C 
ATOM     21  C   UNL     1     -10.573  -7.572  27.419  0.00  0.00    +0.000 C 
BRANCH  21  22
ATOM     22  C   UNL     1     -10.682  -8.450  28.669  0.00  0.00    +0.000 C 
ATOM     23  C   UNL     1     -10.792  -9.333  29.917  0.00  0.00    +0.000 C 
ATOM     24  C   UNL     1     -10.899 -10.217  31.163  0.00  0.00    +0.000 C 
ENDBRANCH  21  22
ENDBRANCH  16  20
TORSDOF 3
ENDMDL
MODEL 9
REMARK VINA RESULT:      -5.4      4.125      5.592
REMARK  Name = Dronabinol.pdbqt.pdb
REMARK  3 active torsions:
REMARK  status: ('A' for Active; 'I' for Inactive)
REMARK    1  A    between atoms: C_13  and  O_18
REMARK    2  A    between atoms: C_16  and  C_20
REMARK    3  A    between atoms: C_21  and  C_22
REMARK                            x       y       z     vdW  Elec       q    Type
REMARK                         _______ _______ _______ _____ _____    ______ ____
ROOT
ATOM      1  O   UNL     1     -12.041  -3.062  21.701  0.00  0.00    +0.000 OA
ATOM      2  C   UNL     1      -9.585  -3.263  21.762  0.00  0.00    +0.000 A 
ATOM      3  C   UNL     1      -9.590  -2.312  22.900  0.00  0.00    +0.000 A 
ATOM      4  C   UNL     1     -10.898  -3.887  21.373  0.00  0.00    +0.000 C 
ATOM      5  C   UNL     1      -8.254  -3.618  21.342  0.00  0.00    +0.000 A 
ATOM      6  C   UNL     1     -10.852  -1.912  23.516  0.00  0.00    +0.000 A 
ATOM      7  C   UNL     1      -6.962  -3.052  21.960  0.00  0.00    +0.000 A 
ATOM      8  C   UNL     1      -8.258  -1.913  23.304  0.00  0.00    +0.000 A 
ATOM      9  C   UNL     1      -6.989  -2.102  23.036  0.00  0.00    +0.000 A 
ATOM     10  C   UNL     1     -12.022  -2.327  22.861  0.00  0.00    +0.000 A 
ATOM     11  C   UNL     1     -10.938  -4.079  19.832  0.00  0.00    +0.000 C 
ATOM     12  C   UNL     1     -11.055  -5.259  22.092  0.00  0.00    +0.000 C 
ATOM     13  C   UNL     1     -10.978  -1.144  24.680  0.00  0.00    +0.000 A 
ATOM     14  C   UNL     1     -13.277  -1.949  23.342  0.00  0.00    +0.000 A 
ATOM     15  C   UNL     1      -6.027  -0.956  23.053  0.00  0.00    +0.000 C 
ATOM     16  C   UNL     1     -13.382  -1.186  24.499  0.00  0.00    +0.000 A 
ATOM     17  C   UNL     1     -12.234  -0.784  25.172  0.00  0.00    +0.000 A 
ENDROOT
BRANCH  13  18
ATOM     18  O   UNL     1      -9.868  -0.736  25.366  0.00  0.00    +0.000 OA
ATOM     19  H   UNL     1     -10.141  -0.348  26.217  0.00  0.00    +0.000 HD
ENDBRANCH  13  18
BRANCH  16  20
ATOM     20  C   UNL     1     -14.665  -0.826  25.001  0.00  0.00    +0.000 C 
ATOM     21  C   UNL     1     -16.041  -0.436  25.553  0.00  0.00    +0.000 C 
BRANCH  21  22
ATOM     22  C   UNL     1     -17.410  -0.043  26.113  0.00  0.00    +0.000 C 
ATOM     23  C   UNL     1     -18.781   0.354  26.670  0.00  0.00    +0.000 C 
ATOM     24  C   UNL     1     -20.154   0.750  27.225  0.00  0.00    +0.000 C 
ENDBRANCH  21  22
ENDBRANCH  16  20
TORSDOF 3
ENDMDL
