MODEL 1
REMARK VINA RESULT:      -6.5      0.000      0.000
REMARK  Name = Ellipticine.pdbqt.pdb
REMARK  0 active torsions:
REMARK  status: ('A' for Active; 'I' for Inactive)
REMARK                            x       y       z     vdW  Elec       q    Type
REMARK                         _______ _______ _______ _____ _____    ______ ____
ROOT
ATOM      1  N   UNL     1      -7.323  -2.933  21.973  0.00  0.00    +0.000 N 
ATOM      2  N   UNL     1      -6.844   3.453  22.433  0.00  0.00    +0.000 NA
ATOM      3  C   UNL     1      -8.271  -1.055  21.203  0.00  0.00    +0.000 A 
ATOM      4  C   UNL     1      -7.265  -1.556  22.035  0.00  0.00    +0.000 A 
ATOM      5  C   UNL     1      -8.416   0.352  21.096  0.00  0.00    +0.000 A 
ATOM      6  C   UNL     1      -8.941  -2.195  20.635  0.00  0.00    +0.000 A 
ATOM      7  C   UNL     1      -6.395  -0.731  22.765  0.00  0.00    +0.000 A 
ATOM      8  C   UNL     1      -6.542   0.665  22.657  0.00  0.00    +0.000 A 
ATOM      9  C   UNL     1      -7.549   1.199  21.825  0.00  0.00    +0.000 A 
ATOM     10  C   UNL     1      -8.328  -3.342  21.134  0.00  0.00    +0.000 A 
ATOM     11  C   UNL     1      -9.495   0.930  20.205  0.00  0.00    +0.000 C 
ATOM     12  C   UNL     1     -10.018  -2.351  19.739  0.00  0.00    +0.000 A 
ATOM     13  C   UNL     1      -5.343  -1.381  23.633  0.00  0.00    +0.000 C 
ATOM     14  C   UNL     1      -8.730  -4.636  20.787  0.00  0.00    +0.000 A 
ATOM     15  C   UNL     1      -5.709   1.551  23.357  0.00  0.00    +0.000 A 
ATOM     16  C   UNL     1      -7.639   2.590  21.764  0.00  0.00    +0.000 A 
ATOM     17  C   UNL     1     -10.435  -3.635  19.380  0.00  0.00    +0.000 A 
ATOM     18  C   UNL     1      -9.799  -4.756  19.898  0.00  0.00    +0.000 A 
ATOM     19  C   UNL     1      -5.894   2.914  23.217  0.00  0.00    +0.000 A 
ATOM     20  H   UNL     1      -6.702  -3.551  22.483  0.00  0.00    +0.000 HD
ENDROOT
TORSDOF 0
ENDMDL
MODEL 2
REMARK VINA RESULT:      -6.1     17.387     19.513
REMARK  Name = Ellipticine.pdbqt.pdb
REMARK  0 active torsions:
REMARK  status: ('A' for Active; 'I' for Inactive)
REMARK                            x       y       z     vdW  Elec       q    Type
REMARK                         _______ _______ _______ _____ _____    ______ ____
ROOT
ATOM      1  N   UNL     1       3.005 -12.334  12.011  0.00  0.00    +0.000 N 
ATOM      2  N   UNL     1       6.949 -15.089  16.264  0.00  0.00    +0.000 NA
ATOM      3  C   UNL     1       4.626 -11.822  13.471  0.00  0.00    +0.000 A 
ATOM      4  C   UNL     1       3.874 -12.874  12.937  0.00  0.00    +0.000 A 
ATOM      5  C   UNL     1       5.601 -12.124  14.456  0.00  0.00    +0.000 A 
ATOM      6  C   UNL     1       4.170 -10.620  12.823  0.00  0.00    +0.000 A 
ATOM      7  C   UNL     1       4.042 -14.210  13.332  0.00  0.00    +0.000 A 
ATOM      8  C   UNL     1       5.010 -14.507  14.309  0.00  0.00    +0.000 A 
ATOM      9  C   UNL     1       5.784 -13.466  14.866  0.00  0.00    +0.000 A 
ATOM     10  C   UNL     1       3.165 -10.975  11.926  0.00  0.00    +0.000 A 
ATOM     11  C   UNL     1       6.433 -11.011  15.055  0.00  0.00    +0.000 C 
ATOM     12  C   UNL     1       4.524  -9.260  12.923  0.00  0.00    +0.000 A 
ATOM     13  C   UNL     1       3.174 -15.266  12.688  0.00  0.00    +0.000 C 
ATOM     14  C   UNL     1       2.495 -10.046  11.122  0.00  0.00    +0.000 A 
ATOM     15  C   UNL     1       5.233 -15.820  14.753  0.00  0.00    +0.000 A 
ATOM     16  C   UNL     1       6.725 -13.830  15.829  0.00  0.00    +0.000 A 
ATOM     17  C   UNL     1       3.868  -8.316  12.130  0.00  0.00    +0.000 A 
ATOM     18  C   UNL     1       2.870  -8.707  11.246  0.00  0.00    +0.000 A 
ATOM     19  C   UNL     1       6.196 -16.059  15.715  0.00  0.00    +0.000 A 
ATOM     20  H   UNL     1       2.341 -12.878  11.472  0.00  0.00    +0.000 HD
ENDROOT
TORSDOF 0
ENDMDL
MODEL 3
REMARK VINA RESULT:      -5.9      2.555      5.629
REMARK  Name = Ellipticine.pdbqt.pdb
REMARK  0 active torsions:
REMARK  status: ('A' for Active; 'I' for Inactive)
REMARK                            x       y       z     vdW  Elec       q    Type
REMARK                         _______ _______ _______ _____ _____    ______ ____
ROOT
ATOM      1  N   UNL     1      -9.080   0.867  21.517  0.00  0.00    +0.000 N 
ATOM      2  N   UNL     1     -10.268  -5.442  21.399  0.00  0.00    +0.000 NA
ATOM      3  C   UNL     1      -9.731  -0.758  20.119  0.00  0.00    +0.000 A 
ATOM      4  C   UNL     1      -9.348  -0.484  21.436  0.00  0.00    +0.000 A 
ATOM      5  C   UNL     1     -10.063  -2.095  19.779  0.00  0.00    +0.000 A 
ATOM      6  C   UNL     1      -9.682   0.492  19.408  0.00  0.00    +0.000 A 
ATOM      7  C   UNL     1      -9.278  -1.471  22.432  0.00  0.00    +0.000 A 
ATOM      8  C   UNL     1      -9.607  -2.796  22.091  0.00  0.00    +0.000 A 
ATOM      9  C   UNL     1      -9.997  -3.102  20.770  0.00  0.00    +0.000 A 
ATOM     10  C   UNL     1      -9.274   1.477  20.305  0.00  0.00    +0.000 A 
ATOM     11  C   UNL     1     -10.482  -2.427  18.363  0.00  0.00    +0.000 C 
ATOM     12  C   UNL     1      -9.948   0.872  18.077  0.00  0.00    +0.000 A 
ATOM     13  C   UNL     1      -8.851  -1.062  23.822  0.00  0.00    +0.000 C 
ATOM     14  C   UNL     1      -9.118   2.820  19.947  0.00  0.00    +0.000 A 
ATOM     15  C   UNL     1      -9.560  -3.834  23.034  0.00  0.00    +0.000 A 
ATOM     16  C   UNL     1     -10.310  -4.435  20.501  0.00  0.00    +0.000 A 
ATOM     17  C   UNL     1      -9.798   2.209  17.698  0.00  0.00    +0.000 A 
ATOM     18  C   UNL     1      -9.390   3.164  18.621  0.00  0.00    +0.000 A 
ATOM     19  C   UNL     1      -9.893  -5.120  22.649  0.00  0.00    +0.000 A 
ATOM     20  H   UNL     1      -8.780   1.335  22.365  0.00  0.00    +0.000 HD
ENDROOT
TORSDOF 0
ENDMDL
MODEL 4
REMARK VINA RESULT:      -5.8     17.198     19.154
REMARK  Name = Ellipticine.pdbqt.pdb
REMARK  0 active torsions:
REMARK  status: ('A' for Active; 'I' for Inactive)
REMARK                            x       y       z     vdW  Elec       q    Type
REMARK                         _______ _______ _______ _____ _____    ______ ____
ROOT
ATOM      1  N   UNL     1       4.627  -6.857  12.394  0.00  0.00    +0.000 N 
ATOM      2  N   UNL     1       5.222 -13.249  12.252  0.00  0.00    +0.000 NA
ATOM      3  C   UNL     1       6.162  -8.470  12.640  0.00  0.00    +0.000 A 
ATOM      4  C   UNL     1       4.811  -8.224  12.375  0.00  0.00    +0.000 A 
ATOM      5  C   UNL     1       6.607  -9.816  12.674  0.00  0.00    +0.000 A 
ATOM      6  C   UNL     1       6.786  -7.186  12.819  0.00  0.00    +0.000 A 
ATOM      7  C   UNL     1       3.879  -9.248  12.144  0.00  0.00    +0.000 A 
ATOM      8  C   UNL     1       4.323 -10.583  12.179  0.00  0.00    +0.000 A 
ATOM      9  C   UNL     1       5.681 -10.861  12.443  0.00  0.00    +0.000 A 
ATOM     10  C   UNL     1       5.805  -6.209  12.660  0.00  0.00    +0.000 A 
ATOM     11  C   UNL     1       8.062 -10.119  12.958  0.00  0.00    +0.000 C 
ATOM     12  C   UNL     1       8.102  -6.768  13.104  0.00  0.00    +0.000 A 
ATOM     13  C   UNL     1       2.443  -8.867  11.868  0.00  0.00    +0.000 C 
ATOM     14  C   UNL     1       6.066  -4.839  12.770  0.00  0.00    +0.000 A 
ATOM     15  C   UNL     1       3.449 -11.658  11.957  0.00  0.00    +0.000 A 
ATOM     16  C   UNL     1       6.053 -12.206  12.464  0.00  0.00    +0.000 A 
ATOM     17  C   UNL     1       8.383  -5.405  13.217  0.00  0.00    +0.000 A 
ATOM     18  C   UNL     1       7.379  -4.459  13.052  0.00  0.00    +0.000 A 
ATOM     19  C   UNL     1       3.934 -12.952  12.003  0.00  0.00    +0.000 A 
ATOM     20  H   UNL     1       3.735  -6.403  12.232  0.00  0.00    +0.000 HD
ENDROOT
TORSDOF 0
ENDMDL
MODEL 5
REMARK VINA RESULT:      -5.8      1.523      5.605
REMARK  Name = Ellipticine.pdbqt.pdb
REMARK  0 active torsions:
REMARK  status: ('A' for Active; 'I' for Inactive)
REMARK                            x       y       z     vdW  Elec       q    Type
REMARK                         _______ _______ _______ _____ _____    ______ ____
ROOT
ATOM      1  N   UNL     1      -6.941  -0.168  22.885  0.00  0.00    +0.000 N 
ATOM      2  N   UNL     1     -10.603  -3.724  18.989  0.00  0.00    +0.000 NA
ATOM      3  C   UNL     1      -8.345   0.031  21.151  0.00  0.00    +0.000 A 
ATOM      4  C   UNL     1      -7.744  -0.884  22.021  0.00  0.00    +0.000 A 
ATOM      5  C   UNL     1      -9.227  -0.465  20.157  0.00  0.00    +0.000 A 
ATOM      6  C   UNL     1      -7.867   1.335  21.530  0.00  0.00    +0.000 A 
ATOM      7  C   UNL     1      -7.974  -2.267  21.954  0.00  0.00    +0.000 A 
ATOM      8  C   UNL     1      -8.850  -2.756  20.966  0.00  0.00    +0.000 A 
ATOM      9  C   UNL     1      -9.472  -1.856  20.074  0.00  0.00    +0.000 A 
ATOM     10  C   UNL     1      -6.999   1.173  22.608  0.00  0.00    +0.000 A 
ATOM     11  C   UNL     1      -9.896   0.497  19.198  0.00  0.00    +0.000 C 
ATOM     12  C   UNL     1      -8.097   2.640  21.050  0.00  0.00    +0.000 A 
ATOM     13  C   UNL     1      -7.271  -3.164  22.945  0.00  0.00    +0.000 C 
ATOM     14  C   UNL     1      -6.348   2.243  23.233  0.00  0.00    +0.000 A 
ATOM     15  C   UNL     1      -9.128  -4.126  20.840  0.00  0.00    +0.000 A 
ATOM     16  C   UNL     1     -10.327  -2.408  19.121  0.00  0.00    +0.000 A 
ATOM     17  C   UNL     1      -7.458   3.722  21.660  0.00  0.00    +0.000 A 
ATOM     18  C   UNL     1      -6.598   3.522  22.733  0.00  0.00    +0.000 A 
ATOM     19  C   UNL     1      -9.996  -4.556  19.853  0.00  0.00    +0.000 A 
ATOM     20  H   UNL     1      -6.386  -0.588  23.622  0.00  0.00    +0.000 HD
ENDROOT
TORSDOF 0
ENDMDL
MODEL 6
REMARK VINA RESULT:      -5.8      4.760      7.507
REMARK  Name = Ellipticine.pdbqt.pdb
REMARK  0 active torsions:
REMARK  status: ('A' for Active; 'I' for Inactive)
REMARK                            x       y       z     vdW  Elec       q    Type
REMARK                         _______ _______ _______ _____ _____    ______ ____
ROOT
ATOM      1  N   UNL     1      -7.915  -4.740  23.853  0.00  0.00    +0.000 N 
ATOM      2  N   UNL     1     -12.849  -8.021  26.327  0.00  0.00    +0.000 NA
ATOM      3  C   UNL     1     -10.142  -4.918  23.698  0.00  0.00    +0.000 A 
ATOM      4  C   UNL     1      -9.010  -5.415  24.350  0.00  0.00    +0.000 A 
ATOM      5  C   UNL     1     -11.409  -5.459  24.039  0.00  0.00    +0.000 A 
ATOM      6  C   UNL     1      -9.679  -3.909  22.782  0.00  0.00    +0.000 A 
ATOM      7  C   UNL     1      -9.072  -6.423  25.325  0.00  0.00    +0.000 A 
ATOM      8  C   UNL     1     -10.330  -6.958  25.662  0.00  0.00    +0.000 A 
ATOM      9  C   UNL     1     -11.490  -6.475  25.019  0.00  0.00    +0.000 A 
ATOM     10  C   UNL     1      -8.294  -3.825  22.905  0.00  0.00    +0.000 A 
ATOM     11  C   UNL     1     -12.655  -4.944  23.352  0.00  0.00    +0.000 C 
ATOM     12  C   UNL     1     -10.318  -3.058  21.857  0.00  0.00    +0.000 A 
ATOM     13  C   UNL     1      -7.785  -6.885  25.967  0.00  0.00    +0.000 C 
ATOM     14  C   UNL     1      -7.511  -2.940  22.156  0.00  0.00    +0.000 A 
ATOM     15  C   UNL     1     -10.468  -7.968  26.627  0.00  0.00    +0.000 A 
ATOM     16  C   UNL     1     -12.702  -7.050  25.400  0.00  0.00    +0.000 A 
ATOM     17  C   UNL     1      -9.555  -2.166  21.099  0.00  0.00    +0.000 A 
ATOM     18  C   UNL     1      -8.175  -2.111  21.249  0.00  0.00    +0.000 A 
ATOM     19  C   UNL     1     -11.726  -8.460  26.922  0.00  0.00    +0.000 A 
ATOM     20  H   UNL     1      -6.962  -4.905  24.156  0.00  0.00    +0.000 HD
ENDROOT
TORSDOF 0
ENDMDL
MODEL 7
REMARK VINA RESULT:      -5.6     18.121     20.299
REMARK  Name = Ellipticine.pdbqt.pdb
REMARK  0 active torsions:
REMARK  status: ('A' for Active; 'I' for Inactive)
REMARK                            x       y       z     vdW  Elec       q    Type
REMARK                         _______ _______ _______ _____ _____    ______ ____
ROOT
ATOM      1  N   UNL     1     -12.204   8.097   1.986  0.00  0.00    +0.000 N 
ATOM      2  N   UNL     1     -14.490   7.190   7.918  0.00  0.00    +0.000 NA
ATOM      3  C   UNL     1     -12.159   6.612   3.663  0.00  0.00    +0.000 A 
ATOM      4  C   UNL     1     -12.667   7.851   3.262  0.00  0.00    +0.000 A 
ATOM      5  C   UNL     1     -12.497   6.131   4.954  0.00  0.00    +0.000 A 
ATOM      6  C   UNL     1     -11.365   6.120   2.568  0.00  0.00    +0.000 A 
ATOM      7  C   UNL     1     -13.495   8.638   4.079  0.00  0.00    +0.000 A 
ATOM      8  C   UNL     1     -13.829   8.158   5.360  0.00  0.00    +0.000 A 
ATOM      9  C   UNL     1     -13.330   6.910   5.791  0.00  0.00    +0.000 A 
ATOM     10  C   UNL     1     -11.416   7.065   1.546  0.00  0.00    +0.000 A 
ATOM     11  C   UNL     1     -11.964   4.794   5.420  0.00  0.00    +0.000 C 
ATOM     12  C   UNL     1     -10.608   4.950   2.356  0.00  0.00    +0.000 A 
ATOM     13  C   UNL     1     -13.988   9.962   3.544  0.00  0.00    +0.000 C 
ATOM     14  C   UNL     1     -10.752   6.908   0.325  0.00  0.00    +0.000 A 
ATOM     15  C   UNL     1     -14.651   8.890   6.230  0.00  0.00    +0.000 A 
ATOM     16  C   UNL     1     -13.700   6.496   7.070  0.00  0.00    +0.000 A 
ATOM     17  C   UNL     1      -9.936   4.773   1.144  0.00  0.00    +0.000 A 
ATOM     18  C   UNL     1     -10.010   5.738   0.148  0.00  0.00    +0.000 A 
ATOM     19  C   UNL     1     -14.949   8.374   7.478  0.00  0.00    +0.000 A 
ATOM     20  H   UNL     1     -12.423   8.932   1.454  0.00  0.00    +0.000 HD
ENDROOT
TORSDOF 0
ENDMDL
MODEL 8
REMARK VINA RESULT:      -5.5     17.440     19.726
REMARK  Name = Ellipticine.pdbqt.pdb
REMARK  0 active torsions:
REMARK  status: ('A' for Active; 'I' for Inactive)
REMARK                            x       y       z     vdW  Elec       q    Type
REMARK                         _______ _______ _______ _____ _____    ______ ____
ROOT
ATOM      1  N   UNL     1     -21.968  -2.327  11.353  0.00  0.00    +0.000 N 
ATOM      2  N   UNL     1     -21.915  -5.668   5.869  0.00  0.00    +0.000 NA
ATOM      3  C   UNL     1     -22.067  -2.036   9.134  0.00  0.00    +0.000 A 
ATOM      4  C   UNL     1     -21.961  -2.995  10.146  0.00  0.00    +0.000 A 
ATOM      5  C   UNL     1     -22.082  -2.478   7.786  0.00  0.00    +0.000 A 
ATOM      6  C   UNL     1     -22.138  -0.755   9.788  0.00  0.00    +0.000 A 
ATOM      7  C   UNL     1     -21.869  -4.372   9.887  0.00  0.00    +0.000 A 
ATOM      8  C   UNL     1     -21.884  -4.808   8.549  0.00  0.00    +0.000 A 
ATOM      9  C   UNL     1     -21.990  -3.862   7.506  0.00  0.00    +0.000 A 
ATOM     10  C   UNL     1     -22.074  -0.974  11.162  0.00  0.00    +0.000 A 
ATOM     11  C   UNL     1     -22.195  -1.467   6.666  0.00  0.00    +0.000 C 
ATOM     12  C   UNL     1     -22.252   0.572   9.329  0.00  0.00    +0.000 A 
ATOM     13  C   UNL     1     -21.759  -5.320  11.058  0.00  0.00    +0.000 C 
ATOM     14  C   UNL     1     -22.117   0.060  12.104  0.00  0.00    +0.000 A 
ATOM     15  C   UNL     1     -21.796  -6.168   8.214  0.00  0.00    +0.000 A 
ATOM     16  C   UNL     1     -21.999  -4.362   6.205  0.00  0.00    +0.000 A 
ATOM     17  C   UNL     1     -22.296   1.620  10.252  0.00  0.00    +0.000 A 
ATOM     18  C   UNL     1     -22.230   1.363  11.616  0.00  0.00    +0.000 A 
ATOM     19  C   UNL     1     -21.815  -6.544   6.884  0.00  0.00    +0.000 A 
ATOM     20  H   UNL     1     -21.903  -2.786  12.255  0.00  0.00    +0.000 HD
ENDROOT
TORSDOF 0
ENDMDL
MODEL 9
REMARK VINA RESULT:      -5.4     17.531     19.525
REMARK  Name = Ellipticine.pdbqt.pdb
REMARK  0 active torsions:
REMARK  status: ('A' for Active; 'I' for Inactive)
REMARK                            x       y       z     vdW  Elec       q    Type
REMARK                         _______ _______ _______ _____ _____    ______ ____
ROOT
ATOM      1  N   UNL     1       5.289 -10.017  14.000  0.00  0.00    +0.000 N 
ATOM      2  N   UNL     1       6.271 -16.307  14.840  0.00  0.00    +0.000 NA
ATOM      3  C   UNL     1       4.591 -12.006  13.242  0.00  0.00    +0.000 A 
ATOM      4  C   UNL     1       5.460 -11.379  14.140  0.00  0.00    +0.000 A 
ATOM      5  C   UNL     1       4.580 -13.424  13.195  0.00  0.00    +0.000 A 
ATOM      6  C   UNL     1       3.886 -10.958  12.552  0.00  0.00    +0.000 A 
ATOM      7  C   UNL     1       6.319 -12.088  14.994  0.00  0.00    +0.000 A 
ATOM      8  C   UNL     1       6.306 -13.495  14.946  0.00  0.00    +0.000 A 
ATOM      9  C   UNL     1       5.439 -14.156  14.049  0.00  0.00    +0.000 A 
ATOM     10  C   UNL     1       4.343  -9.739  13.047  0.00  0.00    +0.000 A 
ATOM     11  C   UNL     1       3.651 -14.136  12.235  0.00  0.00    +0.000 C 
ATOM     12  C   UNL     1       2.897 -10.940  11.549  0.00  0.00    +0.000 A 
ATOM     13  C   UNL     1       7.217 -11.308  15.925  0.00  0.00    +0.000 C 
ATOM     14  C   UNL     1       3.868  -8.503  12.596  0.00  0.00    +0.000 A 
ATOM     15  C   UNL     1       7.137 -14.270  15.769  0.00  0.00    +0.000 A 
ATOM     16  C   UNL     1       5.477 -15.550  14.053  0.00  0.00    +0.000 A 
ATOM     17  C   UNL     1       2.408  -9.717  11.083  0.00  0.00    +0.000 A 
ATOM     18  C   UNL     1       2.889  -8.521  11.601  0.00  0.00    +0.000 A 
ATOM     19  C   UNL     1       7.086 -15.649  15.683  0.00  0.00    +0.000 A 
ATOM     20  H   UNL     1       5.800  -9.324  14.535  0.00  0.00    +0.000 HD
ENDROOT
TORSDOF 0
ENDMDL
