MODEL 1
REMARK VINA RESULT:      -6.5      0.000      0.000
REMARK  Name = Enterolactone.pdbqt.pdb
REMARK  2 active torsions:
REMARK  status: ('A' for Active; 'I' for Inactive)
REMARK    1  A    between atoms: C_10  and  O_14
REMARK    2  A    between atoms: C_19  and  O_23
REMARK                            x       y       z     vdW  Elec       q    Type
REMARK                         _______ _______ _______ _____ _____    ______ ____
ROOT
ATOM      1  O   UNL     1     -25.328  -4.855  12.450  0.00  0.00    +0.000 OA
ATOM      2  O   UNL     1     -24.858  -6.608  10.987  0.00  0.00    +0.000 OA
ATOM      3  C   UNL     1     -23.526  -3.410  11.912  0.00  0.00    +0.000 C 
ATOM      4  C   UNL     1     -23.452  -4.601  11.100  0.00  0.00    +0.000 C 
ATOM      5  C   UNL     1     -24.682  -3.714  12.633  0.00  0.00    +0.000 C 
ATOM      6  C   UNL     1     -24.605  -5.517  11.464  0.00  0.00    +0.000 C 
ATOM      7  C   UNL     1     -22.934  -2.167  11.621  0.00  0.00    +0.000 C 
ATOM      8  C   UNL     1     -22.320  -0.918  11.315  0.00  0.00    +0.000 C 
ATOM      9  C   UNL     1     -22.153  -0.537   9.985  0.00  0.00    +0.000 C 
ATOM     10  C   UNL     1     -21.543   0.681   9.699  0.00  0.00    +0.000 C 
ATOM     11  C   UNL     1     -21.101   1.516  10.719  0.00  0.00    +0.000 C 
ATOM     12  C   UNL     1     -21.271   1.129  12.046  0.00  0.00    +0.000 C 
ATOM     13  C   UNL     1     -21.881  -0.088  12.345  0.00  0.00    +0.000 C 
ATOM     14  C   UNL     1     -22.513  -4.843  10.073  0.00  0.00    +0.000 C 
ATOM     15  C   UNL     1     -21.565  -5.078   9.035  0.00  0.00    +0.000 C 
ATOM     16  C   UNL     1     -20.244  -4.671   9.198  0.00  0.00    +0.000 C 
ATOM     17  C   UNL     1     -19.331  -4.896   8.172  0.00  0.00    +0.000 C 
ATOM     18  C   UNL     1     -19.721  -5.518   6.991  0.00  0.00    +0.000 C 
ATOM     19  C   UNL     1     -21.045  -5.924   6.835  0.00  0.00    +0.000 C 
ATOM     20  C   UNL     1     -21.968  -5.703   7.855  0.00  0.00    +0.000 C 
ENDROOT
BRANCH  10  21
ATOM     21  O   UNL     1     -21.364   1.084   8.408  0.00  0.00    +0.000 OA
ATOM     22  H   UNL     1     -22.224   1.058   7.953  0.00  0.00    +0.000 HD
ENDBRANCH  10  21
BRANCH  17  23
ATOM     23  O   UNL     1     -18.029  -4.509   8.299  0.00  0.00    +0.000 OA
ATOM     24  H   UNL     1     -17.596  -5.089   8.950  0.00  0.00    +0.000 HD
ENDBRANCH  17  23
TORSDOF 2
ENDMDL
MODEL 2
REMARK VINA RESULT:      -5.9     17.292     18.644
REMARK  Name = Enterolactone.pdbqt.pdb
REMARK  2 active torsions:
REMARK  status: ('A' for Active; 'I' for Inactive)
REMARK    1  A    between atoms: C_10  and  O_14
REMARK    2  A    between atoms: C_19  and  O_23
REMARK                            x       y       z     vdW  Elec       q    Type
REMARK                         _______ _______ _______ _____ _____    ______ ____
ROOT
ATOM      1  O   UNL     1     -14.158  -2.803  25.814  0.00  0.00    +0.000 OA
ATOM      2  O   UNL     1     -13.736  -1.409  23.993  0.00  0.00    +0.000 OA
ATOM      3  C   UNL     1     -12.642  -4.556  25.317  0.00  0.00    +0.000 C 
ATOM      4  C   UNL     1     -12.552  -3.535  24.300  0.00  0.00    +0.000 C 
ATOM      5  C   UNL     1     -13.613  -3.968  26.128  0.00  0.00    +0.000 C 
ATOM      6  C   UNL     1     -13.535  -2.427  24.629  0.00  0.00    +0.000 C 
ATOM      7  C   UNL     1     -11.655  -5.512  25.624  0.00  0.00    +0.000 C 
ATOM      8  C   UNL     1     -10.649  -6.478  25.916  0.00  0.00    +0.000 C 
ATOM      9  C   UNL     1      -9.306  -6.157  25.728  0.00  0.00    +0.000 C 
ATOM     10  C   UNL     1      -8.334  -7.113  26.007  0.00  0.00    +0.000 C 
ATOM     11  C   UNL     1      -8.685  -8.377  26.468  0.00  0.00    +0.000 C 
ATOM     12  C   UNL     1     -10.029  -8.692  26.653  0.00  0.00    +0.000 C 
ATOM     13  C   UNL     1     -11.012  -7.742  26.377  0.00  0.00    +0.000 C 
ATOM     14  C   UNL     1     -11.641  -3.522  23.221  0.00  0.00    +0.000 C 
ATOM     15  C   UNL     1     -10.715  -3.513  22.137  0.00  0.00    +0.000 C 
ATOM     16  C   UNL     1     -10.405  -4.701  21.482  0.00  0.00    +0.000 C 
ATOM     17  C   UNL     1      -9.490  -4.680  20.433  0.00  0.00    +0.000 C 
ATOM     18  C   UNL     1      -8.886  -3.493  20.034  0.00  0.00    +0.000 C 
ATOM     19  C   UNL     1      -9.202  -2.307  20.694  0.00  0.00    +0.000 C 
ATOM     20  C   UNL     1     -10.116  -2.316  21.746  0.00  0.00    +0.000 C 
ENDROOT
BRANCH  10  21
ATOM     21  O   UNL     1      -7.010  -6.831  25.834  0.00  0.00    +0.000 OA
ATOM     22  H   UNL     1      -6.818  -6.815  24.880  0.00  0.00    +0.000 HD
ENDBRANCH  10  21
BRANCH  17  23
ATOM     23  O   UNL     1      -9.163  -5.827  19.770  0.00  0.00    +0.000 OA
ATOM     24  H   UNL     1      -9.985  -6.290  19.529  0.00  0.00    +0.000 HD
ENDBRANCH  17  23
TORSDOF 2
ENDMDL
MODEL 3
REMARK VINA RESULT:      -5.9     11.668     15.568
REMARK  Name = Enterolactone.pdbqt.pdb
REMARK  2 active torsions:
REMARK  status: ('A' for Active; 'I' for Inactive)
REMARK    1  A    between atoms: C_10  and  O_14
REMARK    2  A    between atoms: C_19  and  O_23
REMARK                            x       y       z     vdW  Elec       q    Type
REMARK                         _______ _______ _______ _____ _____    ______ ____
ROOT
ATOM      1  O   UNL     1     -13.510 -12.252  -0.285  0.00  0.00    +0.000 OA
ATOM      2  O   UNL     1     -11.246 -12.664   0.088  0.00  0.00    +0.000 OA
ATOM      3  C   UNL     1     -14.382 -12.971   1.799  0.00  0.00    +0.000 C 
ATOM      4  C   UNL     1     -12.947 -13.127   1.794  0.00  0.00    +0.000 C 
ATOM      5  C   UNL     1     -14.545 -12.439   0.519  0.00  0.00    +0.000 C 
ATOM      6  C   UNL     1     -12.408 -12.672   0.450  0.00  0.00    +0.000 C 
ATOM      7  C   UNL     1     -15.203 -12.873   2.938  0.00  0.00    +0.000 C 
ATOM      8  C   UNL     1     -16.020 -12.784   4.102  0.00  0.00    +0.000 C 
ATOM      9  C   UNL     1     -15.509 -12.212   5.265  0.00  0.00    +0.000 C 
ATOM     10  C   UNL     1     -16.314 -12.141   6.398  0.00  0.00    +0.000 C 
ATOM     11  C   UNL     1     -17.615 -12.631   6.383  0.00  0.00    +0.000 C 
ATOM     12  C   UNL     1     -18.120 -13.202   5.217  0.00  0.00    +0.000 C 
ATOM     13  C   UNL     1     -17.323 -13.278   4.076  0.00  0.00    +0.000 C 
ATOM     14  C   UNL     1     -12.158 -13.552   2.886  0.00  0.00    +0.000 C 
ATOM     15  C   UNL     1     -11.369 -13.976   3.994  0.00  0.00    +0.000 C 
ATOM     16  C   UNL     1     -11.837 -14.984   4.832  0.00  0.00    +0.000 C 
ATOM     17  C   UNL     1     -11.061 -15.381   5.917  0.00  0.00    +0.000 C 
ATOM     18  C   UNL     1      -9.830 -14.786   6.173  0.00  0.00    +0.000 C 
ATOM     19  C   UNL     1      -9.367 -13.779   5.330  0.00  0.00    +0.000 C 
ATOM     20  C   UNL     1     -10.136 -13.372   4.240  0.00  0.00    +0.000 C 
ENDROOT
BRANCH  10  21
ATOM     21  O   UNL     1     -15.844 -11.586   7.553  0.00  0.00    +0.000 OA
ATOM     22  H   UNL     1     -16.395 -10.815   7.774  0.00  0.00    +0.000 HD
ENDBRANCH  10  21
BRANCH  17  23
ATOM     23  O   UNL     1     -11.491 -16.365   6.759  0.00  0.00    +0.000 OA
ATOM     24  H   UNL     1     -11.840 -15.949   7.568  0.00  0.00    +0.000 HD
ENDBRANCH  17  23
TORSDOF 2
ENDMDL
MODEL 4
REMARK VINA RESULT:      -5.7      2.798      6.891
REMARK  Name = Enterolactone.pdbqt.pdb
REMARK  2 active torsions:
REMARK  status: ('A' for Active; 'I' for Inactive)
REMARK    1  A    between atoms: C_10  and  O_14
REMARK    2  A    between atoms: C_19  and  O_23
REMARK                            x       y       z     vdW  Elec       q    Type
REMARK                         _______ _______ _______ _____ _____    ______ ____
ROOT
ATOM      1  O   UNL     1     -25.091  -0.248   5.692  0.00  0.00    +0.000 OA
ATOM      2  O   UNL     1     -25.491   1.580   7.082  0.00  0.00    +0.000 OA
ATOM      3  C   UNL     1     -23.197  -1.159   6.788  0.00  0.00    +0.000 C 
ATOM      4  C   UNL     1     -23.647   0.016   7.495  0.00  0.00    +0.000 C 
ATOM      5  C   UNL     1     -24.154  -1.179   5.773  0.00  0.00    +0.000 C 
ATOM      6  C   UNL     1     -24.852   0.591   6.774  0.00  0.00    +0.000 C 
ATOM      7  C   UNL     1     -22.411  -2.199   7.320  0.00  0.00    +0.000 C 
ATOM      8  C   UNL     1     -21.608  -3.238   7.873  0.00  0.00    +0.000 C 
ATOM      9  C   UNL     1     -21.714  -3.550   9.226  0.00  0.00    +0.000 C 
ATOM     10  C   UNL     1     -20.917  -4.560   9.756  0.00  0.00    +0.000 C 
ATOM     11  C   UNL     1     -20.020  -5.258   8.954  0.00  0.00    +0.000 C 
ATOM     12  C   UNL     1     -19.919  -4.942   7.601  0.00  0.00    +0.000 C 
ATOM     13  C   UNL     1     -20.713  -3.932   7.060  0.00  0.00    +0.000 C 
ATOM     14  C   UNL     1     -23.112   0.508   8.706  0.00  0.00    +0.000 C 
ATOM     15  C   UNL     1     -22.570   0.994   9.931  0.00  0.00    +0.000 C 
ATOM     16  C   UNL     1     -21.195   0.949  10.146  0.00  0.00    +0.000 C 
ATOM     17  C   UNL     1     -20.680   1.417  11.351  0.00  0.00    +0.000 C 
ATOM     18  C   UNL     1     -21.517   1.925  12.338  0.00  0.00    +0.000 C 
ATOM     19  C   UNL     1     -22.892   1.967  12.117  0.00  0.00    +0.000 C 
ATOM     20  C   UNL     1     -23.420   1.501  10.913  0.00  0.00    +0.000 C 
ENDROOT
BRANCH  10  21
ATOM     21  O   UNL     1     -20.996  -4.890  11.078  0.00  0.00    +0.000 OA
ATOM     22  H   UNL     1     -20.762  -4.107  11.607  0.00  0.00    +0.000 HD
ENDBRANCH  10  21
BRANCH  17  23
ATOM     23  O   UNL     1     -19.338   1.387  11.595  0.00  0.00    +0.000 OA
ATOM     24  H   UNL     1     -19.182   0.867  12.404  0.00  0.00    +0.000 HD
ENDBRANCH  17  23
TORSDOF 2
ENDMDL
MODEL 5
REMARK VINA RESULT:      -5.6     17.474     18.715
REMARK  Name = Enterolactone.pdbqt.pdb
REMARK  2 active torsions:
REMARK  status: ('A' for Active; 'I' for Inactive)
REMARK    1  A    between atoms: C_10  and  O_14
REMARK    2  A    between atoms: C_19  and  O_23
REMARK                            x       y       z     vdW  Elec       q    Type
REMARK                         _______ _______ _______ _____ _____    ______ ____
ROOT
ATOM      1  O   UNL     1     -14.138  -2.459  25.944  0.00  0.00    +0.000 OA
ATOM      2  O   UNL     1     -14.000  -4.237  27.446  0.00  0.00    +0.000 OA
ATOM      3  C   UNL     1     -12.143  -2.832  24.719  0.00  0.00    +0.000 C 
ATOM      4  C   UNL     1     -12.285  -3.847  25.735  0.00  0.00    +0.000 C 
ATOM      5  C   UNL     1     -13.312  -2.112  24.970  0.00  0.00    +0.000 C 
ATOM      6  C   UNL     1     -13.561  -3.587  26.515  0.00  0.00    +0.000 C 
ATOM      7  C   UNL     1     -11.367  -2.929  23.549  0.00  0.00    +0.000 C 
ATOM      8  C   UNL     1     -10.568  -3.042  22.374  0.00  0.00    +0.000 C 
ATOM      9  C   UNL     1     -10.379  -4.289  21.783  0.00  0.00    +0.000 C 
ATOM     10  C   UNL     1      -9.589  -4.388  20.642  0.00  0.00    +0.000 C 
ATOM     11  C   UNL     1      -8.989  -3.261  20.088  0.00  0.00    +0.000 C 
ATOM     12  C   UNL     1      -9.182  -2.017  20.684  0.00  0.00    +0.000 C 
ATOM     13  C   UNL     1      -9.971  -1.907  21.828  0.00  0.00    +0.000 C 
ATOM     14  C   UNL     1     -11.427  -4.953  25.924  0.00  0.00    +0.000 C 
ATOM     15  C   UNL     1     -10.559  -6.069  26.104  0.00  0.00    +0.000 C 
ATOM     16  C   UNL     1      -9.186  -5.912  25.942  0.00  0.00    +0.000 C 
ATOM     17  C   UNL     1      -8.350  -7.012  26.110  0.00  0.00    +0.000 C 
ATOM     18  C   UNL     1      -8.869  -8.261  26.435  0.00  0.00    +0.000 C 
ATOM     19  C   UNL     1     -10.244  -8.411  26.596  0.00  0.00    +0.000 C 
ATOM     20  C   UNL     1     -11.091  -7.316  26.430  0.00  0.00    +0.000 C 
ENDROOT
BRANCH  10  21
ATOM     21  O   UNL     1      -9.383  -5.594  20.038  0.00  0.00    +0.000 OA
ATOM     22  H   UNL     1      -8.627  -5.512  19.431  0.00  0.00    +0.000 HD
ENDBRANCH  10  21
BRANCH  17  23
ATOM     23  O   UNL     1      -7.000  -6.893  25.958  0.00  0.00    +0.000 OA
ATOM     24  H   UNL     1      -6.760  -7.208  25.068  0.00  0.00    +0.000 HD
ENDBRANCH  17  23
TORSDOF 2
ENDMDL
MODEL 6
REMARK VINA RESULT:      -5.5     11.968     16.174
REMARK  Name = Enterolactone.pdbqt.pdb
REMARK  2 active torsions:
REMARK  status: ('A' for Active; 'I' for Inactive)
REMARK    1  A    between atoms: C_10  and  O_14
REMARK    2  A    between atoms: C_19  and  O_23
REMARK                            x       y       z     vdW  Elec       q    Type
REMARK                         _______ _______ _______ _____ _____    ______ ____
ROOT
ATOM      1  O   UNL     1     -14.791 -16.118   0.432  0.00  0.00    +0.000 OA
ATOM      2  O   UNL     1     -16.902 -16.022   1.417  0.00  0.00    +0.000 OA
ATOM      3  C   UNL     1     -13.548 -14.935   2.067  0.00  0.00    +0.000 C 
ATOM      4  C   UNL     1     -14.930 -15.016   2.474  0.00  0.00    +0.000 C 
ATOM      5  C   UNL     1     -13.637 -15.636   0.864  0.00  0.00    +0.000 C 
ATOM      6  C   UNL     1     -15.712 -15.767   1.412  0.00  0.00    +0.000 C 
ATOM      7  C   UNL     1     -12.445 -14.710   2.912  0.00  0.00    +0.000 C 
ATOM      8  C   UNL     1     -11.340 -14.473   3.780  0.00  0.00    +0.000 C 
ATOM      9  C   UNL     1     -11.387 -14.922   5.098  0.00  0.00    +0.000 C 
ATOM     10  C   UNL     1     -10.306 -14.675   5.939  0.00  0.00    +0.000 C 
ATOM     11  C   UNL     1      -9.186 -13.989   5.481  0.00  0.00    +0.000 C 
ATOM     12  C   UNL     1      -9.145 -13.543   4.162  0.00  0.00    +0.000 C 
ATOM     13  C   UNL     1     -10.222 -13.785   3.311  0.00  0.00    +0.000 C 
ATOM     14  C   UNL     1     -15.460 -14.551   3.699  0.00  0.00    +0.000 C 
ATOM     15  C   UNL     1     -15.985 -14.084   4.939  0.00  0.00    +0.000 C 
ATOM     16  C   UNL     1     -15.520 -12.890   5.482  0.00  0.00    +0.000 C 
ATOM     17  C   UNL     1     -16.034 -12.451   6.699  0.00  0.00    +0.000 C 
ATOM     18  C   UNL     1     -17.000 -13.187   7.375  0.00  0.00    +0.000 C 
ATOM     19  C   UNL     1     -17.462 -14.381   6.825  0.00  0.00    +0.000 C 
ATOM     20  C   UNL     1     -16.955 -14.831   5.607  0.00  0.00    +0.000 C 
ENDROOT
BRANCH  10  21
ATOM     21  O   UNL     1     -10.320 -15.100   7.236  0.00  0.00    +0.000 OA
ATOM     22  H   UNL     1     -10.995 -15.796   7.326  0.00  0.00    +0.000 HD
ENDBRANCH  10  21
BRANCH  17  23
ATOM     23  O   UNL     1     -15.598 -11.286   7.260  0.00  0.00    +0.000 OA
ATOM     24  H   UNL     1     -15.960 -10.542   6.746  0.00  0.00    +0.000 HD
ENDBRANCH  17  23
TORSDOF 2
ENDMDL
MODEL 7
REMARK VINA RESULT:      -5.5      2.360      6.051
REMARK  Name = Enterolactone.pdbqt.pdb
REMARK  2 active torsions:
REMARK  status: ('A' for Active; 'I' for Inactive)
REMARK    1  A    between atoms: C_10  and  O_14
REMARK    2  A    between atoms: C_19  and  O_23
REMARK                            x       y       z     vdW  Elec       q    Type
REMARK                         _______ _______ _______ _____ _____    ______ ____
ROOT
ATOM      1  O   UNL     1     -23.520   0.272  10.363  0.00  0.00    +0.000 OA
ATOM      2  O   UNL     1     -24.643  -0.274  12.332  0.00  0.00    +0.000 OA
ATOM      3  C   UNL     1     -22.377  -1.772   9.992  0.00  0.00    +0.000 C 
ATOM      4  C   UNL     1     -23.174  -1.873  11.191  0.00  0.00    +0.000 C 
ATOM      5  C   UNL     1     -22.702  -0.464   9.627  0.00  0.00    +0.000 C 
ATOM      6  C   UNL     1     -23.889  -0.554  11.418  0.00  0.00    +0.000 C 
ATOM      7  C   UNL     1     -21.910  -2.846   9.211  0.00  0.00    +0.000 C 
ATOM      8  C   UNL     1     -21.438  -3.946   8.438  0.00  0.00    +0.000 C 
ATOM      9  C   UNL     1     -22.186  -5.119   8.374  0.00  0.00    +0.000 C 
ATOM     10  C   UNL     1     -21.709  -6.189   7.624  0.00  0.00    +0.000 C 
ATOM     11  C   UNL     1     -20.500  -6.101   6.941  0.00  0.00    +0.000 C 
ATOM     12  C   UNL     1     -19.757  -4.925   7.008  0.00  0.00    +0.000 C 
ATOM     13  C   UNL     1     -20.225  -3.847   7.757  0.00  0.00    +0.000 C 
ATOM     14  C   UNL     1     -23.334  -3.033  11.982  0.00  0.00    +0.000 C 
ATOM     15  C   UNL     1     -23.494  -4.208  12.771  0.00  0.00    +0.000 C 
ATOM     16  C   UNL     1     -22.406  -5.049  12.990  0.00  0.00    +0.000 C 
ATOM     17  C   UNL     1     -22.579  -6.200  13.753  0.00  0.00    +0.000 C 
ATOM     18  C   UNL     1     -23.818  -6.518  14.296  0.00  0.00    +0.000 C 
ATOM     19  C   UNL     1     -24.902  -5.672  14.074  0.00  0.00    +0.000 C 
ATOM     20  C   UNL     1     -24.742  -4.517  13.311  0.00  0.00    +0.000 C 
ENDROOT
BRANCH  10  21
ATOM     21  O   UNL     1     -22.417  -7.353   7.541  0.00  0.00    +0.000 OA
ATOM     22  H   UNL     1     -22.949  -7.334   6.726  0.00  0.00    +0.000 HD
ENDBRANCH  10  21
BRANCH  17  23
ATOM     23  O   UNL     1     -21.534  -7.046  13.985  0.00  0.00    +0.000 OA
ATOM     24  H   UNL     1     -21.677  -7.862  13.473  0.00  0.00    +0.000 HD
ENDBRANCH  17  23
TORSDOF 2
ENDMDL
MODEL 8
REMARK VINA RESULT:      -5.4     18.866     21.460
REMARK  Name = Enterolactone.pdbqt.pdb
REMARK  2 active torsions:
REMARK  status: ('A' for Active; 'I' for Inactive)
REMARK    1  A    between atoms: C_10  and  O_14
REMARK    2  A    between atoms: C_19  and  O_23
REMARK                            x       y       z     vdW  Elec       q    Type
REMARK                         _______ _______ _______ _____ _____    ______ ____
ROOT
ATOM      1  O   UNL     1      -2.370  -5.611   0.803  0.00  0.00    +0.000 OA
ATOM      2  O   UNL     1      -0.369  -5.566   1.999  0.00  0.00    +0.000 OA
ATOM      3  C   UNL     1      -3.350  -3.610   1.614  0.00  0.00    +0.000 C 
ATOM      4  C   UNL     1      -2.056  -3.799   2.225  0.00  0.00    +0.000 C 
ATOM      5  C   UNL     1      -3.373  -4.747   0.805  0.00  0.00    +0.000 C 
ATOM      6  C   UNL     1      -1.448  -5.087   1.703  0.00  0.00    +0.000 C 
ATOM      7  C   UNL     1      -4.042  -2.391   1.492  0.00  0.00    +0.000 C 
ATOM      8  C   UNL     1      -4.732  -1.148   1.385  0.00  0.00    +0.000 C 
ATOM      9  C   UNL     1      -4.010   0.037   1.265  0.00  0.00    +0.000 C 
ATOM     10  C   UNL     1      -4.695   1.244   1.172  0.00  0.00    +0.000 C 
ATOM     11  C   UNL     1      -6.085   1.280   1.197  0.00  0.00    +0.000 C 
ATOM     12  C   UNL     1      -6.802   0.092   1.316  0.00  0.00    +0.000 C 
ATOM     13  C   UNL     1      -6.125  -1.123   1.411  0.00  0.00    +0.000 C 
ATOM     14  C   UNL     1      -1.416  -2.894   3.101  0.00  0.00    +0.000 C 
ATOM     15  C   UNL     1      -0.775  -1.973   3.980  0.00  0.00    +0.000 C 
ATOM     16  C   UNL     1      -1.524  -1.286   4.930  0.00  0.00    +0.000 C 
ATOM     17  C   UNL     1      -0.888  -0.381   5.775  0.00  0.00    +0.000 C 
ATOM     18  C   UNL     1       0.481  -0.156   5.681  0.00  0.00    +0.000 C 
ATOM     19  C   UNL     1       1.226  -0.848   4.728  0.00  0.00    +0.000 C 
ATOM     20  C   UNL     1       0.599  -1.756   3.876  0.00  0.00    +0.000 C 
ENDROOT
BRANCH  10  21
ATOM     21  O   UNL     1      -4.018   2.423   1.054  0.00  0.00    +0.000 OA
ATOM     22  H   UNL     1      -3.850   2.591   0.110  0.00  0.00    +0.000 HD
ENDBRANCH  10  21
BRANCH  17  23
ATOM     23  O   UNL     1      -1.594   0.309   6.716  0.00  0.00    +0.000 OA
ATOM     24  H   UNL     1      -2.240  -0.295   7.123  0.00  0.00    +0.000 HD
ENDBRANCH  17  23
TORSDOF 2
ENDMDL
MODEL 9
REMARK VINA RESULT:      -5.0     17.236     18.740
REMARK  Name = Enterolactone.pdbqt.pdb
REMARK  2 active torsions:
REMARK  status: ('A' for Active; 'I' for Inactive)
REMARK    1  A    between atoms: C_10  and  O_14
REMARK    2  A    between atoms: C_19  and  O_23
REMARK                            x       y       z     vdW  Elec       q    Type
REMARK                         _______ _______ _______ _____ _____    ______ ____
ROOT
ATOM      1  O   UNL     1     -15.431  -3.767  27.804  0.00  0.00    +0.000 OA
ATOM      2  O   UNL     1     -15.008  -1.859  26.533  0.00  0.00    +0.000 OA
ATOM      3  C   UNL     1     -14.118  -5.332  26.602  0.00  0.00    +0.000 C 
ATOM      4  C   UNL     1     -14.005  -4.030  25.988  0.00  0.00    +0.000 C 
ATOM      5  C   UNL     1     -14.975  -5.000  27.652  0.00  0.00    +0.000 C 
ATOM      6  C   UNL     1     -14.858  -3.045  26.764  0.00  0.00    +0.000 C 
ATOM      7  C   UNL     1     -13.204  -6.394  26.473  0.00  0.00    +0.000 C 
ATOM      8  C   UNL     1     -12.272  -7.462  26.323  0.00  0.00    +0.000 C 
ATOM      9  C   UNL     1     -10.922  -7.181  26.130  0.00  0.00    +0.000 C 
ATOM     10  C   UNL     1     -10.024  -8.233  25.975  0.00  0.00    +0.000 C 
ATOM     11  C   UNL     1     -10.457  -9.554  26.011  0.00  0.00    +0.000 C 
ATOM     12  C   UNL     1     -11.809  -9.829  26.205  0.00  0.00    +0.000 C 
ATOM     13  C   UNL     1     -12.717  -8.783  26.361  0.00  0.00    +0.000 C 
ATOM     14  C   UNL     1     -13.170  -3.702  24.896  0.00  0.00    +0.000 C 
ATOM     15  C   UNL     1     -12.323  -3.377  23.798  0.00  0.00    +0.000 C 
ATOM     16  C   UNL     1     -12.166  -4.283  22.752  0.00  0.00    +0.000 C 
ATOM     17  C   UNL     1     -11.326  -3.958  21.691  0.00  0.00    +0.000 C 
ATOM     18  C   UNL     1     -10.645  -2.746  21.663  0.00  0.00    +0.000 C 
ATOM     19  C   UNL     1     -10.806  -1.844  22.712  0.00  0.00    +0.000 C 
ATOM     20  C   UNL     1     -11.645  -2.158  23.781  0.00  0.00    +0.000 C 
ENDROOT
BRANCH  10  21
ATOM     21  O   UNL     1      -8.695  -7.992  25.784  0.00  0.00    +0.000 OA
ATOM     22  H   UNL     1      -8.588  -7.079  25.465  0.00  0.00    +0.000 HD
ENDBRANCH  10  21
BRANCH  17  23
ATOM     23  O   UNL     1     -11.150  -4.823  20.651  0.00  0.00    +0.000 OA
ATOM     24  H   UNL     1     -11.556  -5.677  20.887  0.00  0.00    +0.000 HD
ENDBRANCH  17  23
TORSDOF 2
ENDMDL
