MODEL 1
REMARK VINA RESULT:      -6.6      0.000      0.000
REMARK  Name = 
REMARK  12 active torsions:
REMARK  status: ('A' for Active; 'I' for Inactive)
REMARK    1  A    between atoms: O_2  and  C_12
REMARK    2  A    between atoms: O_2  and  C_24
REMARK    3  A    between atoms: O_3  and  C_18
REMARK    4  A    between atoms: O_4  and  C_23
REMARK    5  A    between atoms: O_5  and  C_25
REMARK    6  A    between atoms: O_6  and  C_26
REMARK    7  A    between atoms: O_8  and  C_27
REMARK    8  A    between atoms: O_9  and  C_31
REMARK    9  A    between atoms: O_10  and  C_32
REMARK   10  A    between atoms: O_11  and  C_33
REMARK   11  A    between atoms: C_13  and  C_16
REMARK   12  A    between atoms: C_24  and  C_28
REMARK                            x       y       z     vdW  Elec       q    Type
REMARK                         _______ _______ _______ _____ _____    ______ ____
ROOT
ATOM      1  O   UNL     1      -8.839  -4.797  21.288  0.00  0.00    +0.000 OA
ATOM      2  C   UNL     1     -10.376  -2.950  21.863  0.00  0.00    +0.000 C 
ATOM      3  C   UNL     1      -9.025  -3.639  22.120  0.00  0.00    +0.000 C 
ATOM      4  C   UNL     1     -10.402  -2.463  20.415  0.00  0.00    +0.000 C 
ATOM      5  C   UNL     1      -9.848  -3.505  19.476  0.00  0.00    +0.000 A 
ATOM      6  C   UNL     1      -9.106  -4.591  19.960  0.00  0.00    +0.000 A 
ATOM      7  C   UNL     1     -10.045  -3.396  18.094  0.00  0.00    +0.000 A 
ATOM      8  C   UNL     1      -8.615  -5.565  19.089  0.00  0.00    +0.000 A 
ATOM      9  C   UNL     1      -9.549  -4.356  17.215  0.00  0.00    +0.000 A 
ATOM     10  C   UNL     1      -8.840  -5.438  17.723  0.00  0.00    +0.000 A 
ENDROOT
BRANCH   3  11
ATOM     11  C   UNL     1      -8.872  -4.050  23.578  0.00  0.00    +0.000 A 
ATOM     12  C   UNL     1      -8.712  -3.063  24.570  0.00  0.00    +0.000 A 
ATOM     13  C   UNL     1      -8.924  -5.403  23.963  0.00  0.00    +0.000 A 
ATOM     14  C   UNL     1      -8.812  -5.747  25.306  0.00  0.00    +0.000 A 
ATOM     15  C   UNL     1      -8.598  -3.424  25.914  0.00  0.00    +0.000 A 
ATOM     16  C   UNL     1      -8.649  -4.764  26.280  0.00  0.00    +0.000 A 
BRANCH  14  17
ATOM     17  O   UNL     1      -8.862  -7.051  25.721  0.00  0.00    +0.000 OA
ATOM     18  H   UNL     1      -9.651  -7.165  26.278  0.00  0.00    +0.000 HD
ENDBRANCH  14  17
BRANCH  15  19
ATOM     19  O   UNL     1      -8.440  -2.469  26.878  0.00  0.00    +0.000 OA
ATOM     20  H   UNL     1      -7.681  -2.693  27.436  0.00  0.00    +0.000 HD
ENDBRANCH  15  19
BRANCH  16  21
ATOM     21  O   UNL     1      -8.543  -5.139  27.591  0.00  0.00    +0.000 OA
ATOM     22  H   UNL     1      -8.007  -4.437  28.007  0.00  0.00    +0.000 HD
ENDBRANCH  16  21
ENDBRANCH   3  11
BRANCH   7  23
ATOM     23  O   UNL     1     -10.741  -2.322  17.615  0.00  0.00    +0.000 OA
ATOM     24  H   UNL     1     -11.111  -2.550  16.746  0.00  0.00    +0.000 HD
ENDBRANCH   7  23
BRANCH  10  25
ATOM     25  O   UNL     1      -8.371  -6.361  16.836  0.00  0.00    +0.000 OA
ATOM     26  H   UNL     1      -7.400  -6.376  16.882  0.00  0.00    +0.000 HD
ENDBRANCH  10  25
BRANCH   2  27
ATOM     27  O   UNL     1     -11.453  -3.900  22.059  0.00  0.00    +0.000 OA
BRANCH  27  29
ATOM     28  O   UNL     1     -13.176  -2.586  22.816  0.00  0.00    +0.000 OA
ATOM     29  C   UNL     1     -12.424  -3.541  22.927  0.00  0.00    +0.000 C 
BRANCH  29  30
ATOM     30  C   UNL     1     -12.428  -4.466  24.088  0.00  0.00    +0.000 A 
ATOM     31  C   UNL     1     -12.568  -5.840  23.834  0.00  0.00    +0.000 A 
ATOM     32  C   UNL     1     -12.289  -4.000  25.406  0.00  0.00    +0.000 A 
ATOM     33  C   UNL     1     -12.304  -4.906  26.465  0.00  0.00    +0.000 A 
ATOM     34  C   UNL     1     -12.583  -6.728  24.902  0.00  0.00    +0.000 A 
ATOM     35  C   UNL     1     -12.457  -6.266  26.211  0.00  0.00    +0.000 A 
BRANCH  33  36
ATOM     36  O   UNL     1     -12.172  -4.470  27.752  0.00  0.00    +0.000 OA
ATOM     37  H   UNL     1     -12.728  -5.007  28.337  0.00  0.00    +0.000 HD
ENDBRANCH  33  36
BRANCH  34  38
ATOM     38  O   UNL     1     -12.722  -8.076  24.713  0.00  0.00    +0.000 OA
ATOM     39  H   UNL     1     -12.755  -8.511  25.584  0.00  0.00    +0.000 HD
ENDBRANCH  34  38
BRANCH  35  40
ATOM     40  O   UNL     1     -12.478  -7.170  27.238  0.00  0.00    +0.000 OA
ATOM     41  H   UNL     1     -13.091  -7.872  26.946  0.00  0.00    +0.000 HD
ENDBRANCH  35  40
ENDBRANCH  29  30
ENDBRANCH  27  29
ENDBRANCH   2  27
TORSDOF 12
ENDMDL
MODEL 2
REMARK VINA RESULT:      -6.6      0.073      2.039
REMARK  Name = 
REMARK  12 active torsions:
REMARK  status: ('A' for Active; 'I' for Inactive)
REMARK    1  A    between atoms: O_2  and  C_12
REMARK    2  A    between atoms: O_2  and  C_24
REMARK    3  A    between atoms: O_3  and  C_18
REMARK    4  A    between atoms: O_4  and  C_23
REMARK    5  A    between atoms: O_5  and  C_25
REMARK    6  A    between atoms: O_6  and  C_26
REMARK    7  A    between atoms: O_8  and  C_27
REMARK    8  A    between atoms: O_9  and  C_31
REMARK    9  A    between atoms: O_10  and  C_32
REMARK   10  A    between atoms: O_11  and  C_33
REMARK   11  A    between atoms: C_13  and  C_16
REMARK   12  A    between atoms: C_24  and  C_28
REMARK                            x       y       z     vdW  Elec       q    Type
REMARK                         _______ _______ _______ _____ _____    ______ ____
ROOT
ATOM      1  O   UNL     1      -8.883  -4.797  21.319  0.00  0.00    +0.000 OA
ATOM      2  C   UNL     1     -10.444  -2.959  21.856  0.00  0.00    +0.000 C 
ATOM      3  C   UNL     1      -9.091  -3.635  22.140  0.00  0.00    +0.000 C 
ATOM      4  C   UNL     1     -10.450  -2.483  20.404  0.00  0.00    +0.000 C 
ATOM      5  C   UNL     1      -9.872  -3.527  19.481  0.00  0.00    +0.000 A 
ATOM      6  C   UNL     1      -9.130  -4.602  19.986  0.00  0.00    +0.000 A 
ATOM      7  C   UNL     1     -10.048  -3.429  18.096  0.00  0.00    +0.000 A 
ATOM      8  C   UNL     1      -8.616  -5.579  19.130  0.00  0.00    +0.000 A 
ATOM      9  C   UNL     1      -9.529  -4.391  17.232  0.00  0.00    +0.000 A 
ATOM     10  C   UNL     1      -8.820  -5.463  17.759  0.00  0.00    +0.000 A 
ENDROOT
BRANCH   3  11
ATOM     11  C   UNL     1      -8.960  -4.034  23.603  0.00  0.00    +0.000 A 
ATOM     12  C   UNL     1      -8.983  -5.396  23.962  0.00  0.00    +0.000 A 
ATOM     13  C   UNL     1      -8.778  -3.066  24.609  0.00  0.00    +0.000 A 
ATOM     14  C   UNL     1      -8.630  -3.462  25.934  0.00  0.00    +0.000 A 
ATOM     15  C   UNL     1      -8.837  -5.778  25.297  0.00  0.00    +0.000 A 
ATOM     16  C   UNL     1      -8.660  -4.811  26.280  0.00  0.00    +0.000 A 
BRANCH  14  17
ATOM     17  O   UNL     1      -8.447  -2.551  26.940  0.00  0.00    +0.000 OA
ATOM     18  H   UNL     1      -9.174  -1.907  26.906  0.00  0.00    +0.000 HD
ENDBRANCH  14  17
BRANCH  15  19
ATOM     19  O   UNL     1      -8.862  -7.098  25.648  0.00  0.00    +0.000 OA
ATOM     20  H   UNL     1      -8.307  -7.607  25.039  0.00  0.00    +0.000 HD
ENDBRANCH  15  19
BRANCH  16  21
ATOM     21  O   UNL     1      -8.511  -5.164  27.593  0.00  0.00    +0.000 OA
ATOM     22  H   UNL     1      -7.891  -4.504  27.958  0.00  0.00    +0.000 HD
ENDBRANCH  16  21
ENDBRANCH   3  11
BRANCH   7  23
ATOM     23  O   UNL     1     -10.745  -2.364  17.598  0.00  0.00    +0.000 OA
ATOM     24  H   UNL     1     -10.461  -2.204  16.683  0.00  0.00    +0.000 HD
ENDBRANCH   7  23
BRANCH  10  25
ATOM     25  O   UNL     1      -8.329  -6.389  16.887  0.00  0.00    +0.000 OA
ATOM     26  H   UNL     1      -9.052  -6.693  16.313  0.00  0.00    +0.000 HD
ENDBRANCH  10  25
BRANCH   2  27
ATOM     27  O   UNL     1     -11.516  -3.917  22.041  0.00  0.00    +0.000 OA
BRANCH  27  29
ATOM     28  O   UNL     1     -13.239  -2.622  22.831  0.00  0.00    +0.000 OA
ATOM     29  C   UNL     1     -12.484  -3.576  22.920  0.00  0.00    +0.000 C 
BRANCH  29  30
ATOM     30  C   UNL     1     -12.480  -4.524  24.063  0.00  0.00    +0.000 A 
ATOM     31  C   UNL     1     -12.332  -3.995  25.356  0.00  0.00    +0.000 A 
ATOM     32  C   UNL     1     -12.629  -5.909  23.876  0.00  0.00    +0.000 A 
ATOM     33  C   UNL     1     -12.614  -6.760  24.980  0.00  0.00    +0.000 A 
ATOM     34  C   UNL     1     -12.317  -4.860  26.443  0.00  0.00    +0.000 A 
ATOM     35  C   UNL     1     -12.452  -6.236  26.259  0.00  0.00    +0.000 A 
BRANCH  33  36
ATOM     36  O   UNL     1     -12.755  -8.109  24.816  0.00  0.00    +0.000 OA
ATOM     37  H   UNL     1     -13.683  -8.320  24.637  0.00  0.00    +0.000 HD
ENDBRANCH  33  36
BRANCH  34  38
ATOM     38  O   UNL     1     -12.169  -4.401  27.724  0.00  0.00    +0.000 OA
ATOM     39  H   UNL     1     -13.014  -4.514  28.195  0.00  0.00    +0.000 HD
ENDBRANCH  34  38
BRANCH  35  40
ATOM     40  O   UNL     1     -12.432  -7.057  27.353  0.00  0.00    +0.000 OA
ATOM     41  H   UNL     1     -12.315  -6.459  28.116  0.00  0.00    +0.000 HD
ENDBRANCH  35  40
ENDBRANCH  29  30
ENDBRANCH  27  29
ENDBRANCH   2  27
TORSDOF 12
ENDMDL
MODEL 3
REMARK VINA RESULT:      -6.2      2.191      7.044
REMARK  Name = 
REMARK  12 active torsions:
REMARK  status: ('A' for Active; 'I' for Inactive)
REMARK    1  A    between atoms: O_2  and  C_12
REMARK    2  A    between atoms: O_2  and  C_24
REMARK    3  A    between atoms: O_3  and  C_18
REMARK    4  A    between atoms: O_4  and  C_23
REMARK    5  A    between atoms: O_5  and  C_25
REMARK    6  A    between atoms: O_6  and  C_26
REMARK    7  A    between atoms: O_8  and  C_27
REMARK    8  A    between atoms: O_9  and  C_31
REMARK    9  A    between atoms: O_10  and  C_32
REMARK   10  A    between atoms: O_11  and  C_33
REMARK   11  A    between atoms: C_13  and  C_16
REMARK   12  A    between atoms: C_24  and  C_28
REMARK                            x       y       z     vdW  Elec       q    Type
REMARK                         _______ _______ _______ _____ _____    ______ ____
ROOT
ATOM      1  O   UNL     1     -11.347  -4.706  25.122  0.00  0.00    +0.000 OA
ATOM      2  C   UNL     1      -9.330  -3.397  24.552  0.00  0.00    +0.000 C 
ATOM      3  C   UNL     1     -10.685  -3.439  25.280  0.00  0.00    +0.000 C 
ATOM      4  C   UNL     1      -8.417  -4.454  25.171  0.00  0.00    +0.000 C 
ATOM      5  C   UNL     1      -9.155  -5.748  25.405  0.00  0.00    +0.000 A 
ATOM      6  C   UNL     1     -10.555  -5.795  25.373  0.00  0.00    +0.000 A 
ATOM      7  C   UNL     1      -8.454  -6.928  25.684  0.00  0.00    +0.000 A 
ATOM      8  C   UNL     1     -11.233  -7.000  25.568  0.00  0.00    +0.000 A 
ATOM      9  C   UNL     1      -9.122  -8.133  25.892  0.00  0.00    +0.000 A 
ATOM     10  C   UNL     1     -10.509  -8.158  25.828  0.00  0.00    +0.000 A 
ENDROOT
BRANCH   3  11
ATOM     11  C   UNL     1     -11.615  -2.333  24.800  0.00  0.00    +0.000 A 
ATOM     12  C   UNL     1     -12.813  -2.665  24.137  0.00  0.00    +0.000 A 
ATOM     13  C   UNL     1     -11.319  -0.978  25.037  0.00  0.00    +0.000 A 
ATOM     14  C   UNL     1     -12.202   0.010  24.614  0.00  0.00    +0.000 A 
ATOM     15  C   UNL     1     -13.688  -1.662  23.715  0.00  0.00    +0.000 A 
ATOM     16  C   UNL     1     -13.382  -0.327  23.954  0.00  0.00    +0.000 A 
BRANCH  14  17
ATOM     17  O   UNL     1     -11.952   1.339  24.830  0.00  0.00    +0.000 OA
ATOM     18  H   UNL     1     -12.458   1.622  25.611  0.00  0.00    +0.000 HD
ENDBRANCH  14  17
BRANCH  15  19
ATOM     19  O   UNL     1     -14.849  -1.981  23.069  0.00  0.00    +0.000 OA
ATOM     20  H   UNL     1     -15.179  -2.832  23.394  0.00  0.00    +0.000 HD
ENDBRANCH  15  19
BRANCH  16  21
ATOM     21  O   UNL     1     -14.227   0.670  23.552  0.00  0.00    +0.000 OA
ATOM     22  H   UNL     1     -14.882   0.745  24.273  0.00  0.00    +0.000 HD
ENDBRANCH  16  21
ENDBRANCH   3  11
BRANCH   7  23
ATOM     23  O   UNL     1      -7.090  -6.879  25.747  0.00  0.00    +0.000 OA
ATOM     24  H   UNL     1      -6.831  -6.237  26.429  0.00  0.00    +0.000 HD
ENDBRANCH   7  23
BRANCH  10  25
ATOM     25  O   UNL     1     -11.131  -9.354  26.032  0.00  0.00    +0.000 OA
ATOM     26  H   UNL     1     -11.403  -9.411  26.964  0.00  0.00    +0.000 HD
ENDBRANCH  10  25
BRANCH   2  27
ATOM     27  O   UNL     1      -9.521  -3.704  23.148  0.00  0.00    +0.000 OA
BRANCH  27  29
ATOM     28  O   UNL     1      -8.680  -1.659  22.534  0.00  0.00    +0.000 OA
ATOM     29  C   UNL     1      -9.106  -2.770  22.265  0.00  0.00    +0.000 C 
BRANCH  29  30
ATOM     30  C   UNL     1      -9.278  -3.277  20.880  0.00  0.00    +0.000 A 
ATOM     31  C   UNL     1      -8.741  -4.536  20.569  0.00  0.00    +0.000 A 
ATOM     32  C   UNL     1      -9.962  -2.536  19.901  0.00  0.00    +0.000 A 
ATOM     33  C   UNL     1     -10.094  -3.051  18.612  0.00  0.00    +0.000 A 
ATOM     34  C   UNL     1      -8.879  -5.032  19.278  0.00  0.00    +0.000 A 
ATOM     35  C   UNL     1      -9.548  -4.293  18.302  0.00  0.00    +0.000 A 
BRANCH  33  36
ATOM     36  O   UNL     1     -10.754  -2.344  17.648  0.00  0.00    +0.000 OA
ATOM     37  H   UNL     1     -11.686  -2.248  17.895  0.00  0.00    +0.000 HD
ENDBRANCH  33  36
BRANCH  34  38
ATOM     38  O   UNL     1      -8.371  -6.250  18.917  0.00  0.00    +0.000 OA
ATOM     39  H   UNL     1      -9.027  -6.710  18.363  0.00  0.00    +0.000 HD
ENDBRANCH  34  38
BRANCH  35  40
ATOM     40  O   UNL     1      -9.665  -4.813  17.041  0.00  0.00    +0.000 OA
ATOM     41  H   UNL     1     -10.203  -4.163  16.549  0.00  0.00    +0.000 HD
ENDBRANCH  35  40
ENDBRANCH  29  30
ENDBRANCH  27  29
ENDBRANCH   2  27
TORSDOF 12
ENDMDL
MODEL 4
REMARK VINA RESULT:      -5.7      4.214      5.865
REMARK  Name = 
REMARK  12 active torsions:
REMARK  status: ('A' for Active; 'I' for Inactive)
REMARK    1  A    between atoms: O_2  and  C_12
REMARK    2  A    between atoms: O_2  and  C_24
REMARK    3  A    between atoms: O_3  and  C_18
REMARK    4  A    between atoms: O_4  and  C_23
REMARK    5  A    between atoms: O_5  and  C_25
REMARK    6  A    between atoms: O_6  and  C_26
REMARK    7  A    between atoms: O_8  and  C_27
REMARK    8  A    between atoms: O_9  and  C_31
REMARK    9  A    between atoms: O_10  and  C_32
REMARK   10  A    between atoms: O_11  and  C_33
REMARK   11  A    between atoms: C_13  and  C_16
REMARK   12  A    between atoms: C_24  and  C_28
REMARK                            x       y       z     vdW  Elec       q    Type
REMARK                         _______ _______ _______ _____ _____    ______ ____
ROOT
ATOM      1  O   UNL     1      -5.905  -0.865  23.268  0.00  0.00    +0.000 OA
ATOM      2  C   UNL     1      -7.895   0.320  22.408  0.00  0.00    +0.000 C 
ATOM      3  C   UNL     1      -7.228  -0.404  23.590  0.00  0.00    +0.000 C 
ATOM      4  C   UNL     1      -7.065   1.558  22.070  0.00  0.00    +0.000 C 
ATOM      5  C   UNL     1      -5.589   1.250  22.084  0.00  0.00    +0.000 A 
ATOM      6  C   UNL     1      -5.104   0.077  22.678  0.00  0.00    +0.000 A 
ATOM      7  C   UNL     1      -4.669   2.144  21.523  0.00  0.00    +0.000 A 
ATOM      8  C   UNL     1      -3.738  -0.215  22.670  0.00  0.00    +0.000 A 
ATOM      9  C   UNL     1      -3.303   1.867  21.520  0.00  0.00    +0.000 A 
ATOM     10  C   UNL     1      -2.850   0.685  22.091  0.00  0.00    +0.000 A 
ENDROOT
BRANCH   3  11
ATOM     11  C   UNL     1      -8.060  -1.587  24.066  0.00  0.00    +0.000 A 
ATOM     12  C   UNL     1      -7.605  -2.900  23.837  0.00  0.00    +0.000 A 
ATOM     13  C   UNL     1      -9.267  -1.395  24.765  0.00  0.00    +0.000 A 
ATOM     14  C   UNL     1      -9.991  -2.494  25.214  0.00  0.00    +0.000 A 
ATOM     15  C   UNL     1      -8.344  -3.994  24.291  0.00  0.00    +0.000 A 
ATOM     16  C   UNL     1      -9.535  -3.790  24.979  0.00  0.00    +0.000 A 
BRANCH  14  17
ATOM     17  O   UNL     1     -11.166  -2.349  25.902  0.00  0.00    +0.000 OA
ATOM     18  H   UNL     1     -10.970  -1.927  26.756  0.00  0.00    +0.000 HD
ENDBRANCH  14  17
BRANCH  15  19
ATOM     19  O   UNL     1      -7.906  -5.268  24.068  0.00  0.00    +0.000 OA
ATOM     20  H   UNL     1      -7.357  -5.289  23.270  0.00  0.00    +0.000 HD
ENDBRANCH  15  19
BRANCH  16  21
ATOM     21  O   UNL     1     -10.273  -4.847  25.435  0.00  0.00    +0.000 OA
ATOM     22  H   UNL     1     -10.664  -4.533  26.272  0.00  0.00    +0.000 HD
ENDBRANCH  16  21
ENDBRANCH   3  11
BRANCH   7  23
ATOM     23  O   UNL     1      -5.136   3.303  20.971  0.00  0.00    +0.000 OA
ATOM     24  H   UNL     1      -4.428   3.968  20.992  0.00  0.00    +0.000 HD
ENDBRANCH   7  23
BRANCH  10  25
ATOM     25  O   UNL     1      -1.508   0.444  22.068  0.00  0.00    +0.000 OA
ATOM     26  H   UNL     1      -1.188   0.540  21.155  0.00  0.00    +0.000 HD
ENDBRANCH  10  25
BRANCH   2  27
ATOM     27  O   UNL     1      -7.924  -0.556  21.253  0.00  0.00    +0.000 OA
BRANCH  27  29
ATOM     28  O   UNL     1      -9.566   0.216  19.847  0.00  0.00    +0.000 OA
ATOM     29  C   UNL     1      -9.096  -0.634  20.585  0.00  0.00    +0.000 C 
BRANCH  29  30
ATOM     30  C   UNL     1      -9.775  -1.915  20.909  0.00  0.00    +0.000 A 
ATOM     31  C   UNL     1      -9.195  -3.103  20.439  0.00  0.00    +0.000 A 
ATOM     32  C   UNL     1     -10.956  -1.954  21.669  0.00  0.00    +0.000 A 
ATOM     33  C   UNL     1     -11.560  -3.180  21.944  0.00  0.00    +0.000 A 
ATOM     34  C   UNL     1      -9.813  -4.316  20.719  0.00  0.00    +0.000 A 
ATOM     35  C   UNL     1     -10.992  -4.356  21.464  0.00  0.00    +0.000 A 
BRANCH  33  36
ATOM     36  O   UNL     1     -12.709  -3.237  22.679  0.00  0.00    +0.000 OA
ATOM     37  H   UNL     1     -12.516  -3.594  23.559  0.00  0.00    +0.000 HD
ENDBRANCH  33  36
BRANCH  34  38
ATOM     38  O   UNL     1      -9.296  -5.505  20.281  0.00  0.00    +0.000 OA
ATOM     39  H   UNL     1      -8.330  -5.491  20.411  0.00  0.00    +0.000 HD
ENDBRANCH  34  38
BRANCH  35  40
ATOM     40  O   UNL     1     -11.572  -5.568  21.721  0.00  0.00    +0.000 OA
ATOM     41  H   UNL     1     -10.881  -6.228  21.520  0.00  0.00    +0.000 HD
ENDBRANCH  35  40
ENDBRANCH  29  30
ENDBRANCH  27  29
ENDBRANCH   2  27
TORSDOF 12
ENDMDL
MODEL 5
REMARK VINA RESULT:      -5.7     19.720     24.054
REMARK  Name = 
REMARK  12 active torsions:
REMARK  status: ('A' for Active; 'I' for Inactive)
REMARK    1  A    between atoms: O_2  and  C_12
REMARK    2  A    between atoms: O_2  and  C_24
REMARK    3  A    between atoms: O_3  and  C_18
REMARK    4  A    between atoms: O_4  and  C_23
REMARK    5  A    between atoms: O_5  and  C_25
REMARK    6  A    between atoms: O_6  and  C_26
REMARK    7  A    between atoms: O_8  and  C_27
REMARK    8  A    between atoms: O_9  and  C_31
REMARK    9  A    between atoms: O_10  and  C_32
REMARK   10  A    between atoms: O_11  and  C_33
REMARK   11  A    between atoms: C_13  and  C_16
REMARK   12  A    between atoms: C_24  and  C_28
REMARK                            x       y       z     vdW  Elec       q    Type
REMARK                         _______ _______ _______ _____ _____    ______ ____
ROOT
ATOM      1  O   UNL     1      -3.003  -2.926   3.354  0.00  0.00    +0.000 OA
ATOM      2  C   UNL     1      -1.417  -3.282   1.493  0.00  0.00    +0.000 C 
ATOM      3  C   UNL     1      -2.880  -3.100   1.932  0.00  0.00    +0.000 C 
ATOM      4  C   UNL     1      -0.644  -2.013   1.852  0.00  0.00    +0.000 C 
ATOM      5  C   UNL     1      -1.007  -1.522   3.231  0.00  0.00    +0.000 A 
ATOM      6  C   UNL     1      -2.150  -1.996   3.887  0.00  0.00    +0.000 A 
ATOM      7  C   UNL     1      -0.218  -0.561   3.875  0.00  0.00    +0.000 A 
ATOM      8  C   UNL     1      -2.470  -1.554   5.173  0.00  0.00    +0.000 A 
ATOM      9  C   UNL     1      -0.535  -0.104   5.153  0.00  0.00    +0.000 A 
ATOM     10  C   UNL     1      -1.658  -0.610   5.794  0.00  0.00    +0.000 A 
ENDROOT
BRANCH   3  11
ATOM     11  C   UNL     1      -3.746  -4.277   1.503  0.00  0.00    +0.000 A 
ATOM     12  C   UNL     1      -4.280  -5.145   2.476  0.00  0.00    +0.000 A 
ATOM     13  C   UNL     1      -4.054  -4.499   0.148  0.00  0.00    +0.000 A 
ATOM     14  C   UNL     1      -4.872  -5.565  -0.212  0.00  0.00    +0.000 A 
ATOM     15  C   UNL     1      -5.097  -6.212   2.100  0.00  0.00    +0.000 A 
ATOM     16  C   UNL     1      -5.392  -6.421   0.757  0.00  0.00    +0.000 A 
BRANCH  14  17
ATOM     17  O   UNL     1      -5.199  -5.810  -1.519  0.00  0.00    +0.000 OA
ATOM     18  H   UNL     1      -4.716  -6.602  -1.812  0.00  0.00    +0.000 HD
ENDBRANCH  14  17
BRANCH  15  19
ATOM     19  O   UNL     1      -5.614  -7.056   3.040  0.00  0.00    +0.000 OA
ATOM     20  H   UNL     1      -5.578  -6.634   3.911  0.00  0.00    +0.000 HD
ENDBRANCH  15  19
BRANCH  16  21
ATOM     21  O   UNL     1      -6.193  -7.458   0.366  0.00  0.00    +0.000 OA
ATOM     22  H   UNL     1      -6.919  -7.036  -0.132  0.00  0.00    +0.000 HD
ENDBRANCH  16  21
ENDBRANCH   3  11
BRANCH   7  23
ATOM     23  O   UNL     1       0.880  -0.073   3.224  0.00  0.00    +0.000 OA
ATOM     24  H   UNL     1       1.610  -0.707   3.323  0.00  0.00    +0.000 HD
ENDBRANCH   7  23
BRANCH  10  25
ATOM     25  O   UNL     1      -1.938  -0.146   7.045  0.00  0.00    +0.000 OA
ATOM     26  H   UNL     1      -1.740   0.806   7.078  0.00  0.00    +0.000 HD
ENDBRANCH  10  25
BRANCH   2  27
ATOM     27  O   UNL     1      -0.832  -4.405   2.200  0.00  0.00    +0.000 OA
BRANCH  27  29
ATOM     28  O   UNL     1       1.314  -5.138   1.843  0.00  0.00    +0.000 OA
ATOM     29  C   UNL     1       0.131  -5.092   1.548  0.00  0.00    +0.000 C 
BRANCH  29  30
ATOM     30  C   UNL     1      -0.453  -5.774   0.365  0.00  0.00    +0.000 A 
ATOM     31  C   UNL     1      -0.115  -5.290  -0.908  0.00  0.00    +0.000 A 
ATOM     32  C   UNL     1      -1.313  -6.879   0.498  0.00  0.00    +0.000 A 
ATOM     33  C   UNL     1      -1.840  -7.484  -0.642  0.00  0.00    +0.000 A 
ATOM     34  C   UNL     1      -0.653  -5.903  -2.032  0.00  0.00    +0.000 A 
ATOM     35  C   UNL     1      -1.515  -6.992  -1.903  0.00  0.00    +0.000 A 
BRANCH  33  36
ATOM     36  O   UNL     1      -2.679  -8.556  -0.531  0.00  0.00    +0.000 OA
ATOM     37  H   UNL     1      -3.434  -8.443  -1.128  0.00  0.00    +0.000 HD
ENDBRANCH  33  36
BRANCH  34  38
ATOM     38  O   UNL     1      -0.362  -5.469  -3.297  0.00  0.00    +0.000 OA
ATOM     39  H   UNL     1      -1.183  -5.466  -3.821  0.00  0.00    +0.000 HD
ENDBRANCH  34  38
BRANCH  35  40
ATOM     40  O   UNL     1      -2.027  -7.571  -3.032  0.00  0.00    +0.000 OA
ATOM     41  H   UNL     1      -1.940  -6.891  -3.727  0.00  0.00    +0.000 HD
ENDBRANCH  35  40
ENDBRANCH  29  30
ENDBRANCH  27  29
ENDBRANCH   2  27
TORSDOF 12
ENDMDL
MODEL 6
REMARK VINA RESULT:      -5.6      3.300      4.903
REMARK  Name = 
REMARK  12 active torsions:
REMARK  status: ('A' for Active; 'I' for Inactive)
REMARK    1  A    between atoms: O_2  and  C_12
REMARK    2  A    between atoms: O_2  and  C_24
REMARK    3  A    between atoms: O_3  and  C_18
REMARK    4  A    between atoms: O_4  and  C_23
REMARK    5  A    between atoms: O_5  and  C_25
REMARK    6  A    between atoms: O_6  and  C_26
REMARK    7  A    between atoms: O_8  and  C_27
REMARK    8  A    between atoms: O_9  and  C_31
REMARK    9  A    between atoms: O_10  and  C_32
REMARK   10  A    between atoms: O_11  and  C_33
REMARK   11  A    between atoms: C_13  and  C_16
REMARK   12  A    between atoms: C_24  and  C_28
REMARK                            x       y       z     vdW  Elec       q    Type
REMARK                         _______ _______ _______ _____ _____    ______ ____
ROOT
ATOM      1  O   UNL     1      -9.795  -0.586  21.756  0.00  0.00    +0.000 OA
ATOM      2  C   UNL     1     -11.255  -0.176  23.707  0.00  0.00    +0.000 C 
ATOM      3  C   UNL     1     -10.003  -0.875  23.149  0.00  0.00    +0.000 C 
ATOM      4  C   UNL     1     -11.055   1.335  23.593  0.00  0.00    +0.000 C 
ATOM      5  C   UNL     1     -10.460   1.711  22.259  0.00  0.00    +0.000 A 
ATOM      6  C   UNL     1      -9.870   0.744  21.435  0.00  0.00    +0.000 A 
ATOM      7  C   UNL     1     -10.466   3.042  21.827  0.00  0.00    +0.000 A 
ATOM      8  C   UNL     1      -9.341   1.092  20.191  0.00  0.00    +0.000 A 
ATOM      9  C   UNL     1      -9.929   3.403  20.592  0.00  0.00    +0.000 A 
ATOM     10  C   UNL     1      -9.374   2.421  19.782  0.00  0.00    +0.000 A 
ENDROOT
BRANCH   3  11
ATOM     11  C   UNL     1     -10.074  -2.385  23.334  0.00  0.00    +0.000 A 
ATOM     12  C   UNL     1     -10.059  -3.230  22.207  0.00  0.00    +0.000 A 
ATOM     13  C   UNL     1     -10.119  -2.960  24.618  0.00  0.00    +0.000 A 
ATOM     14  C   UNL     1     -10.153  -4.344  24.758  0.00  0.00    +0.000 A 
ATOM     15  C   UNL     1     -10.097  -4.617  22.363  0.00  0.00    +0.000 A 
ATOM     16  C   UNL     1     -10.143  -5.171  23.637  0.00  0.00    +0.000 A 
BRANCH  14  17
ATOM     17  O   UNL     1     -10.192  -4.941  25.989  0.00  0.00    +0.000 OA
ATOM     18  H   UNL     1      -9.536  -5.659  26.002  0.00  0.00    +0.000 HD
ENDBRANCH  14  17
BRANCH  15  19
ATOM     19  O   UNL     1     -10.085  -5.438  21.272  0.00  0.00    +0.000 OA
ATOM     20  H   UNL     1     -10.428  -6.310  21.517  0.00  0.00    +0.000 HD
ENDBRANCH  15  19
BRANCH  16  21
ATOM     21  O   UNL     1     -10.176  -6.527  23.812  0.00  0.00    +0.000 OA
ATOM     22  H   UNL     1     -10.713  -6.860  23.067  0.00  0.00    +0.000 HD
ENDBRANCH  16  21
ENDBRANCH   3  11
BRANCH   7  23
ATOM     23  O   UNL     1     -11.012   3.993  22.642  0.00  0.00    +0.000 OA
ATOM     24  H   UNL     1     -10.398   4.744  22.704  0.00  0.00    +0.000 HD
ENDBRANCH   7  23
BRANCH  10  25
ATOM     25  O   UNL     1      -8.862   2.808  18.579  0.00  0.00    +0.000 OA
ATOM     26  H   UNL     1      -9.304   2.305  17.873  0.00  0.00    +0.000 HD
ENDBRANCH  10  25
BRANCH   2  27
ATOM     27  O   UNL     1     -12.415  -0.556  22.925  0.00  0.00    +0.000 OA
BRANCH  27  29
ATOM     28  O   UNL     1     -14.439   0.168  23.729  0.00  0.00    +0.000 OA
ATOM     29  C   UNL     1     -13.579  -0.687  23.598  0.00  0.00    +0.000 C 
BRANCH  29  30
ATOM     30  C   UNL     1     -13.658  -2.039  24.208  0.00  0.00    +0.000 A 
ATOM     31  C   UNL     1     -13.781  -2.124  25.604  0.00  0.00    +0.000 A 
ATOM     32  C   UNL     1     -13.621  -3.206  23.426  0.00  0.00    +0.000 A 
ATOM     33  C   UNL     1     -13.693  -4.453  24.044  0.00  0.00    +0.000 A 
ATOM     34  C   UNL     1     -13.849  -3.376  26.203  0.00  0.00    +0.000 A 
ATOM     35  C   UNL     1     -13.800  -4.537  25.430  0.00  0.00    +0.000 A 
BRANCH  33  36
ATOM     36  O   UNL     1     -13.656  -5.598  23.301  0.00  0.00    +0.000 OA
ATOM     37  H   UNL     1     -13.754  -6.367  23.881  0.00  0.00    +0.000 HD
ENDBRANCH  33  36
BRANCH  34  38
ATOM     38  O   UNL     1     -13.963  -3.519  27.558  0.00  0.00    +0.000 OA
ATOM     39  H   UNL     1     -14.582  -4.248  27.744  0.00  0.00    +0.000 HD
ENDBRANCH  34  38
BRANCH  35  40
ATOM     40  O   UNL     1     -13.869  -5.752  26.053  0.00  0.00    +0.000 OA
ATOM     41  H   UNL     1     -14.571  -5.653  26.725  0.00  0.00    +0.000 HD
ENDBRANCH  35  40
ENDBRANCH  29  30
ENDBRANCH  27  29
ENDBRANCH   2  27
TORSDOF 12
ENDMDL
MODEL 7
REMARK VINA RESULT:      -5.6     17.535     19.306
REMARK  Name = 
REMARK  12 active torsions:
REMARK  status: ('A' for Active; 'I' for Inactive)
REMARK    1  A    between atoms: O_2  and  C_12
REMARK    2  A    between atoms: O_2  and  C_24
REMARK    3  A    between atoms: O_3  and  C_18
REMARK    4  A    between atoms: O_4  and  C_23
REMARK    5  A    between atoms: O_5  and  C_25
REMARK    6  A    between atoms: O_6  and  C_26
REMARK    7  A    between atoms: O_8  and  C_27
REMARK    8  A    between atoms: O_9  and  C_31
REMARK    9  A    between atoms: O_10  and  C_32
REMARK   10  A    between atoms: O_11  and  C_33
REMARK   11  A    between atoms: C_13  and  C_16
REMARK   12  A    between atoms: C_24  and  C_28
REMARK                            x       y       z     vdW  Elec       q    Type
REMARK                         _______ _______ _______ _____ _____    ______ ____
ROOT
ATOM      1  O   UNL     1       3.525 -12.522  12.552  0.00  0.00    +0.000 OA
ATOM      2  C   UNL     1       4.883 -12.551  14.617  0.00  0.00    +0.000 C 
ATOM      3  C   UNL     1       4.553 -13.224  13.273  0.00  0.00    +0.000 C 
ATOM      4  C   UNL     1       5.418 -11.148  14.335  0.00  0.00    +0.000 C 
ATOM      5  C   UNL     1       4.603 -10.452  13.275  0.00  0.00    +0.000 A 
ATOM      6  C   UNL     1       3.722 -11.170  12.456  0.00  0.00    +0.000 A 
ATOM      7  C   UNL     1       4.727  -9.072  13.073  0.00  0.00    +0.000 A 
ATOM      8  C   UNL     1       2.952 -10.518  11.491  0.00  0.00    +0.000 A 
ATOM      9  C   UNL     1       3.972  -8.413  12.105  0.00  0.00    +0.000 A 
ATOM     10  C   UNL     1       3.086  -9.143  11.323  0.00  0.00    +0.000 A 
ENDROOT
BRANCH   3  11
ATOM     11  C   UNL     1       4.122 -14.672  13.461  0.00  0.00    +0.000 A 
ATOM     12  C   UNL     1       2.860 -15.093  12.997  0.00  0.00    +0.000 A 
ATOM     13  C   UNL     1       4.979 -15.615  14.060  0.00  0.00    +0.000 A 
ATOM     14  C   UNL     1       4.571 -16.938  14.191  0.00  0.00    +0.000 A 
ATOM     15  C   UNL     1       2.463 -16.424  13.139  0.00  0.00    +0.000 A 
ATOM     16  C   UNL     1       3.319 -17.344  13.734  0.00  0.00    +0.000 A 
BRANCH  14  17
ATOM     17  O   UNL     1       5.377 -17.886  14.763  0.00  0.00    +0.000 OA
ATOM     18  H   UNL     1       5.029 -18.090  15.647  0.00  0.00    +0.000 HD
ENDBRANCH  14  17
BRANCH  15  19
ATOM     19  O   UNL     1       1.239 -16.834  12.693  0.00  0.00    +0.000 OA
ATOM     20  H   UNL     1       0.612 -16.849  13.432  0.00  0.00    +0.000 HD
ENDBRANCH  15  19
BRANCH  16  21
ATOM     21  O   UNL     1       2.951 -18.654  13.879  0.00  0.00    +0.000 OA
ATOM     22  H   UNL     1       3.764 -19.161  13.694  0.00  0.00    +0.000 HD
ENDBRANCH  16  21
ENDBRANCH   3  11
BRANCH   7  23
ATOM     23  O   UNL     1       5.608  -8.373  13.850  0.00  0.00    +0.000 OA
ATOM     24  H   UNL     1       6.505  -8.505  13.501  0.00  0.00    +0.000 HD
ENDBRANCH   7  23
BRANCH  10  25
ATOM     25  O   UNL     1       2.360  -8.467  10.388  0.00  0.00    +0.000 OA
ATOM     26  H   UNL     1       1.871  -9.109   9.846  0.00  0.00    +0.000 HD
ENDBRANCH  10  25
BRANCH   2  27
ATOM     27  O   UNL     1       3.678 -12.443  15.416  0.00  0.00    +0.000 OA
BRANCH  27  29
ATOM     28  O   UNL     1       4.045 -11.737  17.569  0.00  0.00    +0.000 OA
ATOM     29  C   UNL     1       3.822 -12.613  16.749  0.00  0.00    +0.000 C 
BRANCH  29  30
ATOM     30  C   UNL     1       3.708 -14.054  17.088  0.00  0.00    +0.000 A 
ATOM     31  C   UNL     1       2.517 -14.716  16.750  0.00  0.00    +0.000 A 
ATOM     32  C   UNL     1       4.753 -14.751  17.718  0.00  0.00    +0.000 A 
ATOM     33  C   UNL     1       4.597 -16.102  18.021  0.00  0.00    +0.000 A 
ATOM     34  C   UNL     1       2.379 -16.063  17.063  0.00  0.00    +0.000 A 
ATOM     35  C   UNL     1       3.410 -16.754  17.699  0.00  0.00    +0.000 A 
BRANCH  33  36
ATOM     36  O   UNL     1       5.602 -16.795  18.635  0.00  0.00    +0.000 OA
ATOM     37  H   UNL     1       5.517 -17.738  18.434  0.00  0.00    +0.000 HD
ENDBRANCH  33  36
BRANCH  34  38
ATOM     38  O   UNL     1       1.238 -16.757  16.763  0.00  0.00    +0.000 OA
ATOM     39  H   UNL     1       0.543 -16.502  17.396  0.00  0.00    +0.000 HD
ENDBRANCH  34  38
BRANCH  35  40
ATOM     40  O   UNL     1       3.239 -18.079  17.992  0.00  0.00    +0.000 OA
ATOM     41  H   UNL     1       3.930 -18.285  18.650  0.00  0.00    +0.000 HD
ENDBRANCH  35  40
ENDBRANCH  29  30
ENDBRANCH  27  29
ENDBRANCH   2  27
TORSDOF 12
ENDMDL
MODEL 8
REMARK VINA RESULT:      -5.6      4.338      6.355
REMARK  Name = 
REMARK  12 active torsions:
REMARK  status: ('A' for Active; 'I' for Inactive)
REMARK    1  A    between atoms: O_2  and  C_12
REMARK    2  A    between atoms: O_2  and  C_24
REMARK    3  A    between atoms: O_3  and  C_18
REMARK    4  A    between atoms: O_4  and  C_23
REMARK    5  A    between atoms: O_5  and  C_25
REMARK    6  A    between atoms: O_6  and  C_26
REMARK    7  A    between atoms: O_8  and  C_27
REMARK    8  A    between atoms: O_9  and  C_31
REMARK    9  A    between atoms: O_10  and  C_32
REMARK   10  A    between atoms: O_11  and  C_33
REMARK   11  A    between atoms: C_13  and  C_16
REMARK   12  A    between atoms: C_24  and  C_28
REMARK                            x       y       z     vdW  Elec       q    Type
REMARK                         _______ _______ _______ _____ _____    ______ ____
ROOT
ATOM      1  O   UNL     1      -9.411   0.669  19.698  0.00  0.00    +0.000 OA
ATOM      2  C   UNL     1      -8.736   0.855  22.068  0.00  0.00    +0.000 C 
ATOM      3  C   UNL     1      -8.587   0.105  20.732  0.00  0.00    +0.000 C 
ATOM      4  C   UNL     1      -8.271   2.296  21.866  0.00  0.00    +0.000 C 
ATOM      5  C   UNL     1      -8.792   2.865  20.571  0.00  0.00    +0.000 A 
ATOM      6  C   UNL     1      -9.318   2.030  19.577  0.00  0.00    +0.000 A 
ATOM      7  C   UNL     1      -8.739   4.243  20.325  0.00  0.00    +0.000 A 
ATOM      8  C   UNL     1      -9.821   2.563  18.388  0.00  0.00    +0.000 A 
ATOM      9  C   UNL     1      -9.227   4.784  19.138  0.00  0.00    +0.000 A 
ATOM     10  C   UNL     1      -9.769   3.937  18.179  0.00  0.00    +0.000 A 
ENDROOT
BRANCH   3  11
ATOM     11  C   UNL     1      -8.920  -1.374  20.878  0.00  0.00    +0.000 A 
ATOM     12  C   UNL     1      -8.139  -2.187  21.723  0.00  0.00    +0.000 A 
ATOM     13  C   UNL     1     -10.021  -1.941  20.211  0.00  0.00    +0.000 A 
ATOM     14  C   UNL     1     -10.320  -3.289  20.387  0.00  0.00    +0.000 A 
ATOM     15  C   UNL     1      -8.449  -3.538  21.887  0.00  0.00    +0.000 A 
ATOM     16  C   UNL     1      -9.539  -4.087  21.219  0.00  0.00    +0.000 A 
BRANCH  14  17
ATOM     17  O   UNL     1     -11.385  -3.877  19.759  0.00  0.00    +0.000 OA
ATOM     18  H   UNL     1     -12.044  -3.188  19.564  0.00  0.00    +0.000 HD
ENDBRANCH  14  17
BRANCH  15  19
ATOM     19  O   UNL     1      -7.692  -4.330  22.702  0.00  0.00    +0.000 OA
ATOM     20  H   UNL     1      -7.315  -5.060  22.189  0.00  0.00    +0.000 HD
ENDBRANCH  15  19
BRANCH  16  21
ATOM     21  O   UNL     1      -9.862  -5.407  21.369  0.00  0.00    +0.000 OA
ATOM     22  H   UNL     1      -9.034  -5.833  21.663  0.00  0.00    +0.000 HD
ENDBRANCH  16  21
ENDBRANCH   3  11
BRANCH   7  23
ATOM     23  O   UNL     1      -8.198   5.057  21.280  0.00  0.00    +0.000 OA
ATOM     24  H   UNL     1      -7.383   4.647  21.616  0.00  0.00    +0.000 HD
ENDBRANCH   7  23
BRANCH  10  25
ATOM     25  O   UNL     1     -10.240   4.500  17.030  0.00  0.00    +0.000 OA
ATOM     26  H   UNL     1     -10.896   5.180  17.260  0.00  0.00    +0.000 HD
ENDBRANCH  10  25
BRANCH   2  27
ATOM     27  O   UNL     1     -10.129   0.862  22.469  0.00  0.00    +0.000 OA
BRANCH  27  29
ATOM     28  O   UNL     1      -9.607   0.035  24.546  0.00  0.00    +0.000 OA
ATOM     29  C   UNL     1     -10.412   0.321  23.674  0.00  0.00    +0.000 C 
BRANCH  29  30
ATOM     30  C   UNL     1     -11.872   0.077  23.786  0.00  0.00    +0.000 A 
ATOM     31  C   UNL     1     -12.363  -1.176  23.386  0.00  0.00    +0.000 A 
ATOM     32  C   UNL     1     -12.750   1.056  24.283  0.00  0.00    +0.000 A 
ATOM     33  C   UNL     1     -14.114   0.783  24.365  0.00  0.00    +0.000 A 
ATOM     34  C   UNL     1     -13.726  -1.429  23.472  0.00  0.00    +0.000 A 
ATOM     35  C   UNL     1     -14.600  -0.455  23.954  0.00  0.00    +0.000 A 
BRANCH  33  36
ATOM     36  O   UNL     1     -14.981   1.724  24.843  0.00  0.00    +0.000 OA
ATOM     37  H   UNL     1     -14.951   2.511  24.280  0.00  0.00    +0.000 HD
ENDBRANCH  33  36
BRANCH  34  38
ATOM     38  O   UNL     1     -14.260  -2.630  23.091  0.00  0.00    +0.000 OA
ATOM     39  H   UNL     1     -15.118  -2.745  23.537  0.00  0.00    +0.000 HD
ENDBRANCH  34  38
BRANCH  35  40
ATOM     40  O   UNL     1     -15.937  -0.738  24.024  0.00  0.00    +0.000 OA
ATOM     41  H   UNL     1     -16.339  -0.248  23.281  0.00  0.00    +0.000 HD
ENDBRANCH  35  40
ENDBRANCH  29  30
ENDBRANCH  27  29
ENDBRANCH   2  27
TORSDOF 12
ENDMDL
MODEL 9
REMARK VINA RESULT:      -5.5     17.537     19.302
REMARK  Name = 
REMARK  12 active torsions:
REMARK  status: ('A' for Active; 'I' for Inactive)
REMARK    1  A    between atoms: O_2  and  C_12
REMARK    2  A    between atoms: O_2  and  C_24
REMARK    3  A    between atoms: O_3  and  C_18
REMARK    4  A    between atoms: O_4  and  C_23
REMARK    5  A    between atoms: O_5  and  C_25
REMARK    6  A    between atoms: O_6  and  C_26
REMARK    7  A    between atoms: O_8  and  C_27
REMARK    8  A    between atoms: O_9  and  C_31
REMARK    9  A    between atoms: O_10  and  C_32
REMARK   10  A    between atoms: O_11  and  C_33
REMARK   11  A    between atoms: C_13  and  C_16
REMARK   12  A    between atoms: C_24  and  C_28
REMARK                            x       y       z     vdW  Elec       q    Type
REMARK                         _______ _______ _______ _____ _____    ______ ____
ROOT
ATOM      1  O   UNL     1       3.544 -12.511  12.537  0.00  0.00    +0.000 OA
ATOM      2  C   UNL     1       4.890 -12.531  14.609  0.00  0.00    +0.000 C 
ATOM      3  C   UNL     1       4.574 -13.204  13.262  0.00  0.00    +0.000 C 
ATOM      4  C   UNL     1       5.414 -11.122  14.334  0.00  0.00    +0.000 C 
ATOM      5  C   UNL     1       4.597 -10.431  13.271  0.00  0.00    +0.000 A 
ATOM      6  C   UNL     1       3.729 -11.156  12.445  0.00  0.00    +0.000 A 
ATOM      7  C   UNL     1       4.709  -9.050  13.072  0.00  0.00    +0.000 A 
ATOM      8  C   UNL     1       2.958 -10.509  11.477  0.00  0.00    +0.000 A 
ATOM      9  C   UNL     1       3.954  -8.396  12.101  0.00  0.00    +0.000 A 
ATOM     10  C   UNL     1       3.079  -9.133  11.313  0.00  0.00    +0.000 A 
ENDROOT
BRANCH   3  11
ATOM     11  C   UNL     1       4.157 -14.657  13.444  0.00  0.00    +0.000 A 
ATOM     12  C   UNL     1       5.028 -15.560  14.084  0.00  0.00    +0.000 A 
ATOM     13  C   UNL     1       2.896 -15.112  13.015  0.00  0.00    +0.000 A 
ATOM     14  C   UNL     1       2.530 -16.438  13.221  0.00  0.00    +0.000 A 
ATOM     15  C   UNL     1       4.647 -16.889  14.282  0.00  0.00    +0.000 A 
ATOM     16  C   UNL     1       3.400 -17.325  13.851  0.00  0.00    +0.000 A 
BRANCH  14  17
ATOM     17  O   UNL     1       1.310 -16.917  12.823  0.00  0.00    +0.000 OA
ATOM     18  H   UNL     1       0.774 -16.168  12.511  0.00  0.00    +0.000 HD
ENDBRANCH  14  17
BRANCH  15  19
ATOM     19  O   UNL     1       5.491 -17.768  14.900  0.00  0.00    +0.000 OA
ATOM     20  H   UNL     1       5.091 -18.650  14.910  0.00  0.00    +0.000 HD
ENDBRANCH  15  19
BRANCH  16  21
ATOM     21  O   UNL     1       3.006 -18.622  14.038  0.00  0.00    +0.000 OA
ATOM     22  H   UNL     1       3.470 -18.907  14.849  0.00  0.00    +0.000 HD
ENDBRANCH  16  21
ENDBRANCH   3  11
BRANCH   7  23
ATOM     23  O   UNL     1       5.579  -8.345  13.855  0.00  0.00    +0.000 OA
ATOM     24  H   UNL     1       5.566  -7.413  13.578  0.00  0.00    +0.000 HD
ENDBRANCH   7  23
BRANCH  10  25
ATOM     25  O   UNL     1       2.352  -8.462  10.375  0.00  0.00    +0.000 OA
ATOM     26  H   UNL     1       2.643  -7.535  10.357  0.00  0.00    +0.000 HD
ENDBRANCH  10  25
BRANCH   2  27
ATOM     27  O   UNL     1       3.680 -12.437  15.402  0.00  0.00    +0.000 OA
BRANCH  27  29
ATOM     28  O   UNL     1       4.082 -11.741  17.552  0.00  0.00    +0.000 OA
ATOM     29  C   UNL     1       3.819 -12.608  16.735  0.00  0.00    +0.000 C 
BRANCH  29  30
ATOM     30  C   UNL     1       3.639 -14.041  17.079  0.00  0.00    +0.000 A 
ATOM     31  C   UNL     1       4.685 -14.692  17.752  0.00  0.00    +0.000 A 
ATOM     32  C   UNL     1       2.462 -14.738  16.756  0.00  0.00    +0.000 A 
ATOM     33  C   UNL     1       2.341 -16.084  17.095  0.00  0.00    +0.000 A 
ATOM     34  C   UNL     1       4.548 -16.035  18.080  0.00  0.00    +0.000 A 
ATOM     35  C   UNL     1       3.385 -16.731  17.750  0.00  0.00    +0.000 A 
BRANCH  33  36
ATOM     36  O   UNL     1       1.205 -16.777  16.787  0.00  0.00    +0.000 OA
ATOM     37  H   UNL     1       1.084 -16.795  15.826  0.00  0.00    +0.000 HD
ENDBRANCH  33  36
BRANCH  34  38
ATOM     38  O   UNL     1       5.537 -16.721  18.730  0.00  0.00    +0.000 OA
ATOM     39  H   UNL     1       5.197 -17.012  19.596  0.00  0.00    +0.000 HD
ENDBRANCH  34  38
BRANCH  35  40
ATOM     40  O   UNL     1       3.285 -18.054  18.087  0.00  0.00    +0.000 OA
ATOM     41  H   UNL     1       3.770 -18.137  18.931  0.00  0.00    +0.000 HD
ENDBRANCH  35  40
ENDBRANCH  29  30
ENDBRANCH  27  29
ENDBRANCH   2  27
TORSDOF 12
ENDMDL
