MODEL 1
REMARK VINA RESULT:      -7.9      0.000      0.000
REMARK  Name = Estradiol.pdbqt.pdb
REMARK  2 active torsions:
REMARK  status: ('A' for Active; 'I' for Inactive)
REMARK    1  A    between atoms: C_5  and  O_19
REMARK    2  A    between atoms: C_18  and  O_21
REMARK                            x       y       z     vdW  Elec       q    Type
REMARK                         _______ _______ _______ _____ _____    ______ ____
ROOT
ATOM      1  C   UNL     1      -9.392  -4.410  20.382  0.00  0.00    +0.000 C 
ATOM      2  C   UNL     1      -9.863  -3.027  19.717  0.00  0.00    +0.000 C 
ATOM      3  C   UNL     1      -9.385  -1.730  20.221  0.00  0.00    +0.000 A 
ATOM      4  C   UNL     1      -8.256  -1.510  21.204  0.00  0.00    +0.000 A 
ATOM      5  C   UNL     1      -9.094  -5.294  19.153  0.00  0.00    +0.000 C 
ATOM      6  C   UNL     1      -8.210  -4.090  21.185  0.00  0.00    +0.000 C 
ATOM      7  C   UNL     1      -9.963  -3.256  18.307  0.00  0.00    +0.000 C 
ATOM      8  C   UNL     1      -7.678  -2.741  21.605  0.00  0.00    +0.000 C 
ATOM      9  C   UNL     1      -9.463  -4.633  17.951  0.00  0.00    +0.000 C 
ATOM     10  C   UNL     1      -9.934  -0.499  19.778  0.00  0.00    +0.000 A 
ATOM     11  C   UNL     1     -10.570  -4.996  21.204  0.00  0.00    +0.000 C 
ATOM     12  C   UNL     1      -7.803  -0.162  21.685  0.00  0.00    +0.000 A 
ATOM     13  C   UNL     1      -9.468   0.855  20.254  0.00  0.00    +0.000 A 
ATOM     14  C   UNL     1      -8.420   1.033  21.204  0.00  0.00    +0.000 A 
ATOM     15  C   UNL     1      -6.774  -0.044  22.619  0.00  0.00    +0.000 A 
ATOM     16  C   UNL     1      -8.023   2.288  21.643  0.00  0.00    +0.000 A 
ATOM     17  C   UNL     1      -6.370   1.214  23.065  0.00  0.00    +0.000 A 
ATOM     18  C   UNL     1      -6.995   2.363  22.576  0.00  0.00    +0.000 A 
ENDROOT
BRANCH   5  19
ATOM     19  O   UNL     1      -8.182  -6.327  19.177  0.00  0.00    +0.000 OA
ATOM     20  H   UNL     1      -8.497  -7.073  19.719  0.00  0.00    +0.000 HD
ENDBRANCH   5  19
BRANCH  18  21
ATOM     21  O   UNL     1      -6.609   3.598  23.012  0.00  0.00    +0.000 OA
ATOM     22  H   UNL     1      -7.138   3.826  23.796  0.00  0.00    +0.000 HD
ENDBRANCH  18  21
TORSDOF 2
ENDMDL
MODEL 2
REMARK VINA RESULT:      -6.7      1.420      6.829
REMARK  Name = Estradiol.pdbqt.pdb
REMARK  2 active torsions:
REMARK  status: ('A' for Active; 'I' for Inactive)
REMARK    1  A    between atoms: C_5  and  O_19
REMARK    2  A    between atoms: C_18  and  O_21
REMARK                            x       y       z     vdW  Elec       q    Type
REMARK                         _______ _______ _______ _____ _____    ______ ____
ROOT
ATOM      1  C   UNL     1      -8.665   3.027  21.435  0.00  0.00    +0.000 C 
ATOM      2  C   UNL     1      -7.608   1.948  21.981  0.00  0.00    +0.000 C 
ATOM      3  C   UNL     1      -7.791   0.507  21.747  0.00  0.00    +0.000 A 
ATOM      4  C   UNL     1      -8.787  -0.129  20.803  0.00  0.00    +0.000 A 
ATOM      5  C   UNL     1      -7.754   4.132  20.858  0.00  0.00    +0.000 C 
ATOM      6  C   UNL     1      -9.467   2.332  20.427  0.00  0.00    +0.000 C 
ATOM      7  C   UNL     1      -6.308   2.537  21.854  0.00  0.00    +0.000 C 
ATOM      8  C   UNL     1      -9.561   0.854  20.135  0.00  0.00    +0.000 C 
ATOM      9  C   UNL     1      -6.388   3.861  21.137  0.00  0.00    +0.000 C 
ATOM     10  C   UNL     1      -6.980  -0.470  22.381  0.00  0.00    +0.000 A 
ATOM     11  C   UNL     1      -9.489   3.568  22.632  0.00  0.00    +0.000 C 
ATOM     12  C   UNL     1      -8.933  -1.609  20.597  0.00  0.00    +0.000 A 
ATOM     13  C   UNL     1      -7.120  -1.956  22.162  0.00  0.00    +0.000 A 
ATOM     14  C   UNL     1      -8.088  -2.531  21.287  0.00  0.00    +0.000 A 
ATOM     15  C   UNL     1      -9.900  -2.120  19.731  0.00  0.00    +0.000 A 
ATOM     16  C   UNL     1      -8.212  -3.903  21.118  0.00  0.00    +0.000 A 
ATOM     17  C   UNL     1     -10.030  -3.497  19.557  0.00  0.00    +0.000 A 
ATOM     18  C   UNL     1      -9.190  -4.372  20.249  0.00  0.00    +0.000 A 
ENDROOT
BRANCH   5  19
ATOM     19  O   UNL     1      -8.147   4.967  19.835  0.00  0.00    +0.000 OA
ATOM     20  H   UNL     1      -9.030   4.732  19.497  0.00  0.00    +0.000 HD
ENDBRANCH   5  19
BRANCH  18  21
ATOM     21  O   UNL     1      -9.315  -5.722  20.087  0.00  0.00    +0.000 OA
ATOM     22  H   UNL     1     -10.022  -5.890  19.439  0.00  0.00    +0.000 HD
ENDBRANCH  18  21
TORSDOF 2
ENDMDL
MODEL 3
REMARK VINA RESULT:      -6.1      2.159      6.502
REMARK  Name = Estradiol.pdbqt.pdb
REMARK  2 active torsions:
REMARK  status: ('A' for Active; 'I' for Inactive)
REMARK    1  A    between atoms: C_5  and  O_19
REMARK    2  A    between atoms: C_18  and  O_21
REMARK                            x       y       z     vdW  Elec       q    Type
REMARK                         _______ _______ _______ _____ _____    ______ ____
ROOT
ATOM      1  C   UNL     1      -8.395   1.264  21.915  0.00  0.00    +0.000 C 
ATOM      2  C   UNL     1      -8.899   0.334  20.706  0.00  0.00    +0.000 C 
ATOM      3  C   UNL     1      -9.509  -0.982  20.952  0.00  0.00    +0.000 A 
ATOM      4  C   UNL     1      -9.966  -1.523  22.289  0.00  0.00    +0.000 A 
ATOM      5  C   UNL     1      -8.911   2.660  21.506  0.00  0.00    +0.000 C 
ATOM      6  C   UNL     1      -9.022   0.729  23.124  0.00  0.00    +0.000 C 
ATOM      7  C   UNL     1      -9.449   1.206  19.712  0.00  0.00    +0.000 C 
ATOM      8  C   UNL     1      -9.736  -0.586  23.327  0.00  0.00    +0.000 C 
ATOM      9  C   UNL     1      -9.489   2.628  20.209  0.00  0.00    +0.000 C 
ATOM     10  C   UNL     1      -9.782  -1.896  19.902  0.00  0.00    +0.000 A 
ATOM     11  C   UNL     1      -6.845   1.242  21.948  0.00  0.00    +0.000 C 
ATOM     12  C   UNL     1     -10.587  -2.876  22.487  0.00  0.00    +0.000 A 
ATOM     13  C   UNL     1     -10.418  -3.249  20.102  0.00  0.00    +0.000 A 
ATOM     14  C   UNL     1     -10.813  -3.747  21.378  0.00  0.00    +0.000 A 
ATOM     15  C   UNL     1     -10.953  -3.316  23.759  0.00  0.00    +0.000 A 
ATOM     16  C   UNL     1     -11.378  -5.005  21.541  0.00  0.00    +0.000 A 
ATOM     17  C   UNL     1     -11.520  -4.579  23.929  0.00  0.00    +0.000 A 
ATOM     18  C   UNL     1     -11.726  -5.407  22.825  0.00  0.00    +0.000 A 
ENDROOT
BRANCH   5  19
ATOM     19  O   UNL     1      -9.206   3.646  22.423  0.00  0.00    +0.000 OA
ATOM     20  H   UNL     1      -8.416   4.161  22.665  0.00  0.00    +0.000 HD
ENDBRANCH   5  19
BRANCH  18  21
ATOM     21  O   UNL     1     -12.276  -6.647  22.984  0.00  0.00    +0.000 OA
ATOM     22  H   UNL     1     -11.921  -7.038  23.802  0.00  0.00    +0.000 HD
ENDBRANCH  18  21
TORSDOF 2
ENDMDL
MODEL 4
REMARK VINA RESULT:      -5.8     17.901     20.011
REMARK  Name = Estradiol.pdbqt.pdb
REMARK  2 active torsions:
REMARK  status: ('A' for Active; 'I' for Inactive)
REMARK    1  A    between atoms: C_5  and  O_19
REMARK    2  A    between atoms: C_18  and  O_21
REMARK                            x       y       z     vdW  Elec       q    Type
REMARK                         _______ _______ _______ _____ _____    ______ ____
ROOT
ATOM      1  C   UNL     1     -15.577   8.626   5.825  0.00  0.00    +0.000 C 
ATOM      2  C   UNL     1     -14.588   7.449   6.290  0.00  0.00    +0.000 C 
ATOM      3  C   UNL     1     -13.574   6.892   5.381  0.00  0.00    +0.000 A 
ATOM      4  C   UNL     1     -13.153   7.469   4.047  0.00  0.00    +0.000 A 
ATOM      5  C   UNL     1     -15.566   9.578   7.040  0.00  0.00    +0.000 C 
ATOM      6  C   UNL     1     -14.983   9.197   4.616  0.00  0.00    +0.000 C 
ATOM      7  C   UNL     1     -14.262   7.697   7.663  0.00  0.00    +0.000 C 
ATOM      8  C   UNL     1     -13.868   8.657   3.753  0.00  0.00    +0.000 C 
ATOM      9  C   UNL     1     -14.831   9.016   8.118  0.00  0.00    +0.000 C 
ATOM     10  C   UNL     1     -12.826   5.731   5.703  0.00  0.00    +0.000 A 
ATOM     11  C   UNL     1     -16.993   8.031   5.610  0.00  0.00    +0.000 C 
ATOM     12  C   UNL     1     -12.108   6.863   3.155  0.00  0.00    +0.000 A 
ATOM     13  C   UNL     1     -11.768   5.131   4.810  0.00  0.00    +0.000 A 
ATOM     14  C   UNL     1     -11.410   5.680   3.544  0.00  0.00    +0.000 A 
ATOM     15  C   UNL     1     -11.798   7.439   1.923  0.00  0.00    +0.000 A 
ATOM     16  C   UNL     1     -10.447   5.098   2.730  0.00  0.00    +0.000 A 
ATOM     17  C   UNL     1     -10.832   6.859   1.100  0.00  0.00    +0.000 A 
ATOM     18  C   UNL     1     -10.170   5.701   1.508  0.00  0.00    +0.000 A 
ENDROOT
BRANCH   5  19
ATOM     19  O   UNL     1     -15.800  10.931   6.931  0.00  0.00    +0.000 OA
ATOM     20  H   UNL     1     -15.468  11.288   6.088  0.00  0.00    +0.000 HD
ENDBRANCH   5  19
BRANCH  18  21
ATOM     21  O   UNL     1      -9.226   5.125   0.706  0.00  0.00    +0.000 OA
ATOM     22  H   UNL     1      -8.673   4.540   1.254  0.00  0.00    +0.000 HD
ENDBRANCH  18  21
TORSDOF 2
ENDMDL
MODEL 5
REMARK VINA RESULT:      -5.8     16.863     18.994
REMARK  Name = Estradiol.pdbqt.pdb
REMARK  2 active torsions:
REMARK  status: ('A' for Active; 'I' for Inactive)
REMARK    1  A    between atoms: C_5  and  O_19
REMARK    2  A    between atoms: C_18  and  O_21
REMARK                            x       y       z     vdW  Elec       q    Type
REMARK                         _______ _______ _______ _____ _____    ______ ____
ROOT
ATOM      1  C   UNL     1     -21.880   0.851   9.707  0.00  0.00    +0.000 C 
ATOM      2  C   UNL     1     -22.074   0.003   8.357  0.00  0.00    +0.000 C 
ATOM      3  C   UNL     1     -22.036  -1.468   8.361  0.00  0.00    +0.000 A 
ATOM      4  C   UNL     1     -22.066  -2.363   9.581  0.00  0.00    +0.000 A 
ATOM      5  C   UNL     1     -22.982   1.925   9.593  0.00  0.00    +0.000 C 
ATOM      6  C   UNL     1     -22.080  -0.093  10.808  0.00  0.00    +0.000 C 
ATOM      7  C   UNL     1     -23.051   0.693   7.568  0.00  0.00    +0.000 C 
ATOM      8  C   UNL     1     -22.141  -1.601  10.774  0.00  0.00    +0.000 C 
ATOM      9  C   UNL     1     -23.634   1.853   8.333  0.00  0.00    +0.000 C 
ATOM     10  C   UNL     1     -22.011  -2.226   7.162  0.00  0.00    +0.000 A 
ATOM     11  C   UNL     1     -20.474   1.505   9.687  0.00  0.00    +0.000 C 
ATOM     12  C   UNL     1     -22.028  -3.863   9.531  0.00  0.00    +0.000 A 
ATOM     13  C   UNL     1     -21.986  -3.734   7.116  0.00  0.00    +0.000 A 
ATOM     14  C   UNL     1     -21.986  -4.554   8.282  0.00  0.00    +0.000 A 
ATOM     15  C   UNL     1     -22.027  -4.618  10.704  0.00  0.00    +0.000 A 
ATOM     16  C   UNL     1     -21.941  -5.940   8.215  0.00  0.00    +0.000 A 
ATOM     17  C   UNL     1     -21.981  -6.011  10.644  0.00  0.00    +0.000 A 
ATOM     18  C   UNL     1     -21.938  -6.655   9.406  0.00  0.00    +0.000 A 
ENDROOT
BRANCH   5  19
ATOM     19  O   UNL     1     -23.563   2.520  10.693  0.00  0.00    +0.000 OA
ATOM     20  H   UNL     1     -24.447   2.873  10.487  0.00  0.00    +0.000 HD
ENDBRANCH   5  19
BRANCH  18  21
ATOM     21  O   UNL     1     -21.889  -8.018   9.339  0.00  0.00    +0.000 OA
ATOM     22  H   UNL     1     -21.992  -8.284   8.408  0.00  0.00    +0.000 HD
ENDBRANCH  18  21
TORSDOF 2
ENDMDL
MODEL 6
REMARK VINA RESULT:      -5.8     17.099     18.010
REMARK  Name = Estradiol.pdbqt.pdb
REMARK  2 active torsions:
REMARK  status: ('A' for Active; 'I' for Inactive)
REMARK    1  A    between atoms: C_5  and  O_19
REMARK    2  A    between atoms: C_18  and  O_21
REMARK                            x       y       z     vdW  Elec       q    Type
REMARK                         _______ _______ _______ _____ _____    ______ ____
ROOT
ATOM      1  C   UNL     1       5.351  -9.892  12.781  0.00  0.00    +0.000 C 
ATOM      2  C   UNL     1       4.286 -11.087  12.654  0.00  0.00    +0.000 C 
ATOM      3  C   UNL     1       3.924 -11.920  13.811  0.00  0.00    +0.000 A 
ATOM      4  C   UNL     1       4.272 -11.645  15.258  0.00  0.00    +0.000 A 
ATOM      5  C   UNL     1       4.678  -8.752  11.989  0.00  0.00    +0.000 C 
ATOM      6  C   UNL     1       5.487  -9.622  14.213  0.00  0.00    +0.000 C 
ATOM      7  C   UNL     1       3.273 -10.647  11.742  0.00  0.00    +0.000 C 
ATOM      8  C   UNL     1       5.014 -10.444  15.388  0.00  0.00    +0.000 C 
ATOM      9  C   UNL     1       3.490  -9.206  11.356  0.00  0.00    +0.000 C 
ATOM     10  C   UNL     1       3.139 -13.094  13.681  0.00  0.00    +0.000 A 
ATOM     11  C   UNL     1       6.673 -10.327  12.095  0.00  0.00    +0.000 C 
ATOM     12  C   UNL     1       3.875 -12.527  16.406  0.00  0.00    +0.000 A 
ATOM     13  C   UNL     1       2.731 -13.972  14.839  0.00  0.00    +0.000 A 
ATOM     14  C   UNL     1       3.096 -13.704  16.190  0.00  0.00    +0.000 A 
ATOM     15  C   UNL     1       4.263 -12.221  17.711  0.00  0.00    +0.000 A 
ATOM     16  C   UNL     1       2.727 -14.539  17.237  0.00  0.00    +0.000 A 
ATOM     17  C   UNL     1       3.895 -13.055  18.767  0.00  0.00    +0.000 A 
ATOM     18  C   UNL     1       3.136 -14.200  18.522  0.00  0.00    +0.000 A 
ENDROOT
BRANCH   5  19
ATOM     19  O   UNL     1       4.913  -7.419  12.250  0.00  0.00    +0.000 OA
ATOM     20  H   UNL     1       4.083  -6.927  12.389  0.00  0.00    +0.000 HD
ENDBRANCH   5  19
BRANCH  18  21
ATOM     21  O   UNL     1       2.776 -15.024  19.550  0.00  0.00    +0.000 OA
ATOM     22  H   UNL     1       3.535 -15.594  19.766  0.00  0.00    +0.000 HD
ENDBRANCH  18  21
TORSDOF 2
ENDMDL
MODEL 7
REMARK VINA RESULT:      -5.7      4.512      7.667
REMARK  Name = Estradiol.pdbqt.pdb
REMARK  2 active torsions:
REMARK  status: ('A' for Active; 'I' for Inactive)
REMARK    1  A    between atoms: C_5  and  O_19
REMARK    2  A    between atoms: C_18  and  O_21
REMARK                            x       y       z     vdW  Elec       q    Type
REMARK                         _______ _______ _______ _____ _____    ______ ____
ROOT
ATOM      1  C   UNL     1     -10.854  -3.363  21.858  0.00  0.00    +0.000 C 
ATOM      2  C   UNL     1      -9.535  -3.928  22.579  0.00  0.00    +0.000 C 
ATOM      3  C   UNL     1      -9.617  -4.899  23.681  0.00  0.00    +0.000 A 
ATOM      4  C   UNL     1     -10.849  -5.665  24.112  0.00  0.00    +0.000 A 
ATOM      5  C   UNL     1     -10.476  -3.421  20.363  0.00  0.00    +0.000 C 
ATOM      6  C   UNL     1     -11.939  -4.271  22.233  0.00  0.00    +0.000 C 
ATOM      7  C   UNL     1      -8.538  -4.081  21.561  0.00  0.00    +0.000 C 
ATOM      8  C   UNL     1     -11.966  -5.335  23.304  0.00  0.00    +0.000 C 
ATOM      9  C   UNL     1      -9.118  -3.802  20.198  0.00  0.00    +0.000 C 
ATOM     10  C   UNL     1      -8.484  -5.261  24.454  0.00  0.00    +0.000 A 
ATOM     11  C   UNL     1     -11.079  -1.896  22.308  0.00  0.00    +0.000 C 
ATOM     12  C   UNL     1     -10.880  -6.649  25.245  0.00  0.00    +0.000 A 
ATOM     13  C   UNL     1      -8.517  -6.261  25.584  0.00  0.00    +0.000 A 
ATOM     14  C   UNL     1      -9.698  -6.948  25.989  0.00  0.00    +0.000 A 
ATOM     15  C   UNL     1     -12.066  -7.291  25.602  0.00  0.00    +0.000 A 
ATOM     16  C   UNL     1      -9.708  -7.847  27.046  0.00  0.00    +0.000 A 
ATOM     17  C   UNL     1     -12.083  -8.197  26.663  0.00  0.00    +0.000 A 
ATOM     18  C   UNL     1     -10.910  -8.464  27.372  0.00  0.00    +0.000 A 
ENDROOT
BRANCH   5  19
ATOM     19  O   UNL     1     -11.410  -3.562  19.360  0.00  0.00    +0.000 OA
ATOM     20  H   UNL     1     -11.306  -2.881  18.671  0.00  0.00    +0.000 HD
ENDBRANCH   5  19
BRANCH  18  21
ATOM     21  O   UNL     1     -10.919  -9.346  28.415  0.00  0.00    +0.000 OA
ATOM     22  H   UNL     1     -10.683 -10.227  28.074  0.00  0.00    +0.000 HD
ENDBRANCH  18  21
TORSDOF 2
ENDMDL
MODEL 8
REMARK VINA RESULT:      -5.7     19.585     21.219
REMARK  Name = Estradiol.pdbqt.pdb
REMARK  2 active torsions:
REMARK  status: ('A' for Active; 'I' for Inactive)
REMARK    1  A    between atoms: C_5  and  O_19
REMARK    2  A    between atoms: C_18  and  O_21
REMARK                            x       y       z     vdW  Elec       q    Type
REMARK                         _______ _______ _______ _____ _____    ______ ____
ROOT
ATOM      1  C   UNL     1     -10.546   8.128  -0.238  0.00  0.00    +0.000 C 
ATOM      2  C   UNL     1     -10.357   6.706   0.483  0.00  0.00    +0.000 C 
ATOM      3  C   UNL     1     -10.937   6.431   1.806  0.00  0.00    +0.000 A 
ATOM      4  C   UNL     1     -11.949   7.287   2.537  0.00  0.00    +0.000 A 
ATOM      5  C   UNL     1     -10.878   7.732  -1.691  0.00  0.00    +0.000 C 
ATOM      6  C   UNL     1     -11.645   8.793   0.464  0.00  0.00    +0.000 C 
ATOM      7  C   UNL     1     -10.410   5.709  -0.545  0.00  0.00    +0.000 C 
ATOM      8  C   UNL     1     -12.297   8.432   1.777  0.00  0.00    +0.000 C 
ATOM      9  C   UNL     1     -10.761   6.328  -1.874  0.00  0.00    +0.000 C 
ATOM     10  C   UNL     1     -10.623   5.259   2.541  0.00  0.00    +0.000 A 
ATOM     11  C   UNL     1      -9.202   8.901  -0.175  0.00  0.00    +0.000 C 
ATOM     12  C   UNL     1     -12.514   6.961   3.889  0.00  0.00    +0.000 A 
ATOM     13  C   UNL     1     -11.203   4.928   3.894  0.00  0.00    +0.000 A 
ATOM     14  C   UNL     1     -12.134   5.766   4.573  0.00  0.00    +0.000 A 
ATOM     15  C   UNL     1     -13.420   7.819   4.512  0.00  0.00    +0.000 A 
ATOM     16  C   UNL     1     -12.637   5.451   5.828  0.00  0.00    +0.000 A 
ATOM     17  C   UNL     1     -13.930   7.508   5.773  0.00  0.00    +0.000 A 
ATOM     18  C   UNL     1     -13.536   6.334   6.416  0.00  0.00    +0.000 A 
ENDROOT
BRANCH   5  19
ATOM     19  O   UNL     1     -11.630   8.526  -2.530  0.00  0.00    +0.000 OA
ATOM     20  H   UNL     1     -11.071   9.007  -3.167  0.00  0.00    +0.000 HD
ENDBRANCH   5  19
BRANCH  18  21
ATOM     21  O   UNL     1     -14.027   6.025   7.652  0.00  0.00    +0.000 OA
ATOM     22  H   UNL     1     -13.425   6.394   8.323  0.00  0.00    +0.000 HD
ENDBRANCH  18  21
TORSDOF 2
ENDMDL
MODEL 9
REMARK VINA RESULT:      -5.7     16.195     19.004
REMARK  Name = Estradiol.pdbqt.pdb
REMARK  2 active torsions:
REMARK  status: ('A' for Active; 'I' for Inactive)
REMARK    1  A    between atoms: C_5  and  O_19
REMARK    2  A    between atoms: C_18  and  O_21
REMARK                            x       y       z     vdW  Elec       q    Type
REMARK                         _______ _______ _______ _____ _____    ______ ____
ROOT
ATOM      1  C   UNL     1     -23.219  -5.618   6.793  0.00  0.00    +0.000 C 
ATOM      2  C   UNL     1     -21.937  -5.286   7.701  0.00  0.00    +0.000 C 
ATOM      3  C   UNL     1     -21.941  -5.520   9.153  0.00  0.00    +0.000 A 
ATOM      4  C   UNL     1     -22.981  -6.296   9.933  0.00  0.00    +0.000 A 
ATOM      5  C   UNL     1     -22.595  -6.315   5.566  0.00  0.00    +0.000 C 
ATOM      6  C   UNL     1     -24.072  -6.490   7.602  0.00  0.00    +0.000 C 
ATOM      7  C   UNL     1     -20.780  -5.620   6.924  0.00  0.00    +0.000 C 
ATOM      8  C   UNL     1     -23.995  -6.797   9.079  0.00  0.00    +0.000 C 
ATOM      9  C   UNL     1     -21.177  -6.280   5.628  0.00  0.00    +0.000 C 
ATOM     10  C   UNL     1     -20.898  -5.058   9.996  0.00  0.00    +0.000 A 
ATOM     11  C   UNL     1     -23.896  -4.285   6.380  0.00  0.00    +0.000 C 
ATOM     12  C   UNL     1     -22.939  -6.509  11.419  0.00  0.00    +0.000 A 
ATOM     13  C   UNL     1     -20.853  -5.286  11.487  0.00  0.00    +0.000 A 
ATOM     14  C   UNL     1     -21.861  -5.996  12.202  0.00  0.00    +0.000 A 
ATOM     15  C   UNL     1     -23.955  -7.209  12.070  0.00  0.00    +0.000 A 
ATOM     16  C   UNL     1     -21.808  -6.174  13.578  0.00  0.00    +0.000 A 
ATOM     17  C   UNL     1     -23.908  -7.392  13.452  0.00  0.00    +0.000 A 
ATOM     18  C   UNL     1     -22.841  -6.874  14.189  0.00  0.00    +0.000 A 
ENDROOT
BRANCH   5  19
ATOM     19  O   UNL     1     -23.279  -7.235   4.801  0.00  0.00    +0.000 OA
ATOM     20  H   UNL     1     -24.158  -6.907   4.541  0.00  0.00    +0.000 HD
ENDBRANCH   5  19
BRANCH  18  21
ATOM     21  O   UNL     1     -22.791  -7.045  15.543  0.00  0.00    +0.000 OA
ATOM     22  H   UNL     1     -22.307  -7.869  15.731  0.00  0.00    +0.000 HD
ENDBRANCH  18  21
TORSDOF 2
ENDMDL
