REMARK  Name = 
REMARK  11 active torsions:
REMARK  status: ('A' for Active; 'I' for Inactive)
REMARK    1  A    between atoms: O_1  and  C_16
REMARK    2  A    between atoms: O_1  and  C_22
REMARK    3  A    between atoms: O_6  and  C_24
REMARK    4  A    between atoms: O_8  and  C_26
REMARK    5  A    between atoms: O_11  and  C_36
REMARK    6  A    between atoms: O_11  and  C_41
REMARK    7  A    between atoms: O_12  and  C_37
REMARK    8  A    between atoms: O_12  and  C_42
REMARK    9  A    between atoms: O_13  and  C_39
REMARK   10  A    between atoms: C_17  and  C_23
REMARK   11  A    between atoms: C_35  and  C_40
REMARK                            x       y       z     vdW  Elec       q    Type
REMARK                         _______ _______ _______ _____ _____    ______ ____
ROOT
ATOM      1  O   UNL     1       0.269   3.155   1.211  0.00  0.00    +0.000 OA
ATOM      2  O   UNL     1       2.088   2.726   2.539  0.00  0.00    +0.000 OA
ATOM      3  O   UNL     1       0.296  -4.960  -1.003  0.00  0.00    +0.000 OA
ATOM      4  O   UNL     1       2.453  -4.876   0.073  0.00  0.00    +0.000 OA
ATOM      5  C   UNL     1       0.088   1.105   0.147  0.00  0.00    +0.000 C 
ATOM      6  C   UNL     1       0.934   0.919   1.392  0.00  0.00    +0.000 C 
ATOM      7  C   UNL     1      -0.678  -0.173  -0.170  0.00  0.00    +0.000 C 
ATOM      8  C   UNL     1       2.096  -0.036   1.122  0.00  0.00    +0.000 C 
ATOM      9  C   UNL     1       0.241  -1.391  -0.091  0.00  0.00    +0.000 A 
ATOM     10  C   UNL     1       1.524  -1.343   0.547  0.00  0.00    +0.000 A 
ATOM     11  C   UNL     1      -0.692   2.341   0.518  0.00  0.00    +0.000 C 
ATOM     12  C   UNL     1       1.219   2.340   1.775  0.00  0.00    +0.000 C 
ATOM     13  C   UNL     1      -0.215  -2.608  -0.633  0.00  0.00    +0.000 A 
ATOM     14  C   UNL     1       2.314  -2.508   0.626  0.00  0.00    +0.000 A 
ATOM     15  C   UNL     1       0.593  -3.720  -0.531  0.00  0.00    +0.000 A 
ATOM     16  C   UNL     1       1.820  -3.672   0.081  0.00  0.00    +0.000 A 
ATOM     17  C   UNL     1       1.481  -5.688  -0.618  0.00  0.00    +0.000 C 
ENDROOT
BRANCH   8  18
ATOM     18  C   UNL     1       3.228   0.549   0.274  0.00  0.00    +0.000 A 
ATOM     19  C   UNL     1       3.275   0.425  -1.126  0.00  0.00    +0.000 A 
ATOM     20  C   UNL     1       4.265   1.254   0.908  0.00  0.00    +0.000 A 
ATOM     21  C   UNL     1       5.295   1.833   0.166  0.00  0.00    +0.000 A 
ATOM     22  C   UNL     1       4.311   0.980  -1.891  0.00  0.00    +0.000 A 
ATOM     23  C   UNL     1       5.318   1.685  -1.231  0.00  0.00    +0.000 A 
BRANCH  21  24
ATOM     24  O   UNL     1       6.341   2.560   0.686  0.00  0.00    +0.000 OA
ATOM     25  C   UNL     1       6.219   2.955   2.050  0.00  0.00    +0.000 C 
ENDBRANCH  21  24
BRANCH  22  26
ATOM     26  O   UNL     1       4.167   0.747  -3.232  0.00  0.00    +0.000 OA
ATOM     27  C   UNL     1       5.198   1.193  -4.101  0.00  0.00    +0.000 C 
ENDBRANCH  22  26
BRANCH  23  28
ATOM     28  O   UNL     1       6.359   2.271  -1.907  0.00  0.00    +0.000 OA
ATOM     29  H   UNL     1       6.904   2.692  -1.214  0.00  0.00    +0.000 HD
ENDBRANCH  23  28
ENDBRANCH   8  18
BRANCH   7  30
ATOM     30  O   UNL     1      -1.701  -0.369   0.807  0.00  0.00    +0.000 OA
BRANCH  30  34
ATOM     31  O   UNL     1      -3.364   0.840  -0.306  0.00  0.00    +0.000 OA
ATOM     32  O   UNL     1      -7.035   0.614  -0.267  0.00  0.00    +0.000 OA
ATOM     33  O   UNL     1      -6.384   2.129  -1.960  0.00  0.00    +0.000 OA
ATOM     34  C   UNL     1      -3.015  -0.434   0.239  0.00  0.00    +0.000 C 
ATOM     35  C   UNL     1      -3.973  -0.866   1.373  0.00  0.00    +0.000 C 
ATOM     36  C   UNL     1      -5.708   0.586   0.270  0.00  0.00    +0.000 C 
ATOM     37  C   UNL     1      -5.439  -0.768   0.927  0.00  0.00    +0.000 C 
ATOM     38  C   UNL     1      -4.686   0.824  -0.838  0.00  0.00    +0.000 C 
ATOM     39  C   UNL     1      -5.032   2.151  -1.505  0.00  0.00    +0.000 C 
ATOM     40  C   UNL     1      -7.292   1.877  -0.888  0.00  0.00    +0.000 C 
ATOM     41  C   UNL     1      -8.697   1.838  -1.461  0.00  0.00    +0.000 C 
BRANCH  35  42
ATOM     42  O   UNL     1      -3.666  -2.216   1.760  0.00  0.00    +0.000 OA
ATOM     43  H   UNL     1      -2.740  -2.203   2.071  0.00  0.00    +0.000 HD
ENDBRANCH  35  42
BRANCH  37  44
ATOM     44  O   UNL     1      -6.312  -0.905   2.060  0.00  0.00    +0.000 OA
ATOM     45  H   UNL     1      -7.220  -0.839   1.708  0.00  0.00    +0.000 HD
ENDBRANCH  37  44
ENDBRANCH  30  34
ENDBRANCH   7  30
TORSDOF 8
