MODEL 1
REMARK VINA RESULT:      -6.5      0.000      0.000
REMARK  Name = 
REMARK  11 active torsions:
REMARK  status: ('A' for Active; 'I' for Inactive)
REMARK    1  A    between atoms: O_1  and  C_16
REMARK    2  A    between atoms: O_1  and  C_22
REMARK    3  A    between atoms: O_6  and  C_24
REMARK    4  A    between atoms: O_8  and  C_26
REMARK    5  A    between atoms: O_11  and  C_36
REMARK    6  A    between atoms: O_11  and  C_41
REMARK    7  A    between atoms: O_12  and  C_37
REMARK    8  A    between atoms: O_12  and  C_42
REMARK    9  A    between atoms: O_13  and  C_39
REMARK   10  A    between atoms: C_17  and  C_23
REMARK   11  A    between atoms: C_35  and  C_40
REMARK                            x       y       z     vdW  Elec       q    Type
REMARK                         _______ _______ _______ _____ _____    ______ ____
ROOT
ATOM      1  O   UNL     1      -6.214  -1.735  26.075  0.00  0.00    +0.000 OA
ATOM      2  O   UNL     1      -4.948  -0.664  24.491  0.00  0.00    +0.000 OA
ATOM      3  O   UNL     1     -11.439  -4.103  19.923  0.00  0.00    +0.000 OA
ATOM      4  O   UNL     1     -10.157  -2.471  18.694  0.00  0.00    +0.000 OA
ATOM      5  C   UNL     1      -8.017  -2.356  24.758  0.00  0.00    +0.000 C 
ATOM      6  C   UNL     1      -6.852  -2.031  23.843  0.00  0.00    +0.000 C 
ATOM      7  C   UNL     1      -8.907  -3.419  24.127  0.00  0.00    +0.000 C 
ATOM      8  C   UNL     1      -7.330  -1.283  22.599  0.00  0.00    +0.000 C 
ATOM      9  C   UNL     1      -9.203  -3.082  22.667  0.00  0.00    +0.000 A 
ATOM     10  C   UNL     1      -8.443  -2.111  21.935  0.00  0.00    +0.000 A 
ATOM     11  C   UNL     1      -7.287  -2.691  26.035  0.00  0.00    +0.000 C 
ATOM     12  C   UNL     1      -5.905  -1.359  24.791  0.00  0.00    +0.000 C 
ATOM     13  C   UNL     1     -10.235  -3.784  22.015  0.00  0.00    +0.000 A 
ATOM     14  C   UNL     1      -8.734  -1.869  20.577  0.00  0.00    +0.000 A 
ATOM     15  C   UNL     1     -10.482  -3.513  20.687  0.00  0.00    +0.000 A 
ATOM     16  C   UNL     1      -9.752  -2.584  19.988  0.00  0.00    +0.000 A 
ATOM     17  C   UNL     1     -11.229  -3.436  18.661  0.00  0.00    +0.000 C 
ENDROOT
BRANCH   8  18
ATOM     18  C   UNL     1      -7.728   0.176  22.838  0.00  0.00    +0.000 A 
ATOM     19  C   UNL     1      -8.891   0.545  23.538  0.00  0.00    +0.000 A 
ATOM     20  C   UNL     1      -6.899   1.201  22.352  0.00  0.00    +0.000 A 
ATOM     21  C   UNL     1      -7.208   2.542  22.580  0.00  0.00    +0.000 A 
ATOM     22  C   UNL     1      -9.234   1.886  23.762  0.00  0.00    +0.000 A 
ATOM     23  C   UNL     1      -8.381   2.879  23.277  0.00  0.00    +0.000 A 
BRANCH  21  24
ATOM     24  O   UNL     1      -6.454   3.616  22.169  0.00  0.00    +0.000 OA
ATOM     25  C   UNL     1      -5.926   3.547  20.846  0.00  0.00    +0.000 C 
ENDBRANCH  21  24
BRANCH  22  26
ATOM     26  O   UNL     1     -10.400   2.028  24.463  0.00  0.00    +0.000 OA
ATOM     27  C   UNL     1     -11.572   1.420  23.940  0.00  0.00    +0.000 C 
ENDBRANCH  22  26
BRANCH  23  28
ATOM     28  O   UNL     1      -8.637   4.214  23.466  0.00  0.00    +0.000 OA
ATOM     29  H   UNL     1      -8.993   4.526  22.611  0.00  0.00    +0.000 HD
ENDBRANCH  23  28
ENDBRANCH   8  18
BRANCH   7  30
ATOM     30  O   UNL     1      -8.224  -4.673  24.127  0.00  0.00    +0.000 OA
BRANCH  30  34
ATOM     31  O   UNL     1     -10.273  -5.231  25.106  0.00  0.00    +0.000 OA
ATOM     32  O   UNL     1     -11.216  -7.764  27.601  0.00  0.00    +0.000 OA
ATOM     33  O   UNL     1     -13.182  -6.773  26.741  0.00  0.00    +0.000 OA
ATOM     34  C   UNL     1      -9.007  -5.739  24.680  0.00  0.00    +0.000 C 
ATOM     35  C   UNL     1      -8.192  -6.333  25.852  0.00  0.00    +0.000 C 
ATOM     36  C   UNL     1     -10.398  -6.764  26.984  0.00  0.00    +0.000 C 
ATOM     37  C   UNL     1      -9.025  -7.347  26.648  0.00  0.00    +0.000 C 
ATOM     38  C   UNL     1     -11.060  -6.257  25.705  0.00  0.00    +0.000 C 
ATOM     39  C   UNL     1     -12.447  -5.746  26.078  0.00  0.00    +0.000 C 
ATOM     40  C   UNL     1     -12.505  -7.226  27.913  0.00  0.00    +0.000 C 
ATOM     41  C   UNL     1     -13.334  -8.334  28.537  0.00  0.00    +0.000 C 
BRANCH  35  42
ATOM     42  O   UNL     1      -7.012  -6.967  25.331  0.00  0.00    +0.000 OA
ATOM     43  H   UNL     1      -6.316  -6.836  26.004  0.00  0.00    +0.000 HD
ENDBRANCH  35  42
BRANCH  37  44
ATOM     44  O   UNL     1      -8.359  -7.679  27.877  0.00  0.00    +0.000 OA
ATOM     45  H   UNL     1      -7.470  -7.992  27.624  0.00  0.00    +0.000 HD
ENDBRANCH  37  44
ENDBRANCH  30  34
ENDBRANCH   7  30
TORSDOF 8
ENDMDL
MODEL 2
REMARK VINA RESULT:      -6.4     17.179     21.480
REMARK  Name = 
REMARK  11 active torsions:
REMARK  status: ('A' for Active; 'I' for Inactive)
REMARK    1  A    between atoms: O_1  and  C_16
REMARK    2  A    between atoms: O_1  and  C_22
REMARK    3  A    between atoms: O_6  and  C_24
REMARK    4  A    between atoms: O_8  and  C_26
REMARK    5  A    between atoms: O_11  and  C_36
REMARK    6  A    between atoms: O_11  and  C_41
REMARK    7  A    between atoms: O_12  and  C_37
REMARK    8  A    between atoms: O_12  and  C_42
REMARK    9  A    between atoms: O_13  and  C_39
REMARK   10  A    between atoms: C_17  and  C_23
REMARK   11  A    between atoms: C_35  and  C_40
REMARK                            x       y       z     vdW  Elec       q    Type
REMARK                         _______ _______ _______ _____ _____    ______ ____
ROOT
ATOM      1  O   UNL     1     -20.488  -4.314   9.024  0.00  0.00    +0.000 OA
ATOM      2  O   UNL     1     -19.612  -5.496   7.266  0.00  0.00    +0.000 OA
ATOM      3  O   UNL     1     -26.840  -9.825   9.227  0.00  0.00    +0.000 OA
ATOM      4  O   UNL     1     -25.886 -10.458   7.104  0.00  0.00    +0.000 OA
ATOM      5  C   UNL     1     -22.514  -5.417   9.247  0.00  0.00    +0.000 C 
ATOM      6  C   UNL     1     -21.577  -6.304   8.449  0.00  0.00    +0.000 C 
ATOM      7  C   UNL     1     -23.492  -6.265  10.049  0.00  0.00    +0.000 C 
ATOM      8  C   UNL     1     -22.326  -7.003   7.315  0.00  0.00    +0.000 C 
ATOM      9  C   UNL     1     -24.098  -7.365   9.179  0.00  0.00    +0.000 A 
ATOM     10  C   UNL     1     -23.534  -7.742   7.916  0.00  0.00    +0.000 A 
ATOM     11  C   UNL     1     -21.523  -4.559   9.992  0.00  0.00    +0.000 C 
ATOM     12  C   UNL     1     -20.467  -5.350   8.124  0.00  0.00    +0.000 C 
ATOM     13  C   UNL     1     -25.228  -8.053   9.662  0.00  0.00    +0.000 A 
ATOM     14  C   UNL     1     -24.111  -8.791   7.173  0.00  0.00    +0.000 A 
ATOM     15  C   UNL     1     -25.757  -9.072   8.900  0.00  0.00    +0.000 A 
ATOM     16  C   UNL     1     -25.214  -9.432   7.692  0.00  0.00    +0.000 A 
ATOM     17  C   UNL     1     -26.918 -10.701   8.083  0.00  0.00    +0.000 C 
ENDROOT
BRANCH   8  18
ATOM     18  C   UNL     1     -22.698  -6.102   6.135  0.00  0.00    +0.000 A 
ATOM     19  C   UNL     1     -23.453  -4.924   6.284  0.00  0.00    +0.000 A 
ATOM     20  C   UNL     1     -22.264  -6.448   4.845  0.00  0.00    +0.000 A 
ATOM     21  C   UNL     1     -22.553  -5.632   3.750  0.00  0.00    +0.000 A 
ATOM     22  C   UNL     1     -23.773  -4.100   5.196  0.00  0.00    +0.000 A 
ATOM     23  C   UNL     1     -23.315  -4.466   3.929  0.00  0.00    +0.000 A 
BRANCH  21  24
ATOM     24  O   UNL     1     -22.156  -5.868   2.454  0.00  0.00    +0.000 OA
ATOM     25  C   UNL     1     -21.237  -6.940   2.259  0.00  0.00    +0.000 C 
ENDBRANCH  21  24
BRANCH  22  26
ATOM     26  O   UNL     1     -24.511  -3.005   5.556  0.00  0.00    +0.000 OA
ATOM     27  C   UNL     1     -24.512  -2.622   6.923  0.00  0.00    +0.000 C 
ENDBRANCH  22  26
BRANCH  23  28
ATOM     28  O   UNL     1     -23.572  -3.707   2.815  0.00  0.00    +0.000 OA
ATOM     29  H   UNL     1     -23.049  -4.121   2.102  0.00  0.00    +0.000 HD
ENDBRANCH  23  28
ENDBRANCH   8  18
BRANCH   7  30
ATOM     30  O   UNL     1     -22.795  -6.921  11.110  0.00  0.00    +0.000 OA
BRANCH  30  34
ATOM     31  O   UNL     1     -24.548  -5.884  12.258  0.00  0.00    +0.000 OA
ATOM     32  O   UNL     1     -24.719  -4.212  15.529  0.00  0.00    +0.000 OA
ATOM     33  O   UNL     1     -26.909  -4.419  14.666  0.00  0.00    +0.000 OA
ATOM     34  C   UNL     1     -23.337  -6.627  12.403  0.00  0.00    +0.000 C 
ATOM     35  C   UNL     1     -22.255  -5.835  13.173  0.00  0.00    +0.000 C 
ATOM     36  C   UNL     1     -24.147  -4.592  14.272  0.00  0.00    +0.000 C 
ATOM     37  C   UNL     1     -22.806  -5.289  14.499  0.00  0.00    +0.000 C 
ATOM     38  C   UNL     1     -25.090  -5.534  13.528  0.00  0.00    +0.000 C 
ATOM     39  C   UNL     1     -26.431  -4.822  13.383  0.00  0.00    +0.000 C 
ATOM     40  C   UNL     1     -25.977  -3.562  15.325  0.00  0.00    +0.000 C 
ATOM     41  C   UNL     1     -26.546  -3.209  16.688  0.00  0.00    +0.000 C 
BRANCH  35  42
ATOM     42  O   UNL     1     -21.131  -6.695  13.425  0.00  0.00    +0.000 OA
ATOM     43  H   UNL     1     -21.035  -7.253  12.629  0.00  0.00    +0.000 HD
ENDBRANCH  35  42
BRANCH  37  44
ATOM     44  O   UNL     1     -21.888  -4.338  15.063  0.00  0.00    +0.000 OA
ATOM     45  H   UNL     1     -21.179  -4.225  14.402  0.00  0.00    +0.000 HD
ENDBRANCH  37  44
ENDBRANCH  30  34
ENDBRANCH   7  30
TORSDOF 8
ENDMDL
MODEL 3
REMARK VINA RESULT:      -6.4      2.937      4.718
REMARK  Name = 
REMARK  11 active torsions:
REMARK  status: ('A' for Active; 'I' for Inactive)
REMARK    1  A    between atoms: O_1  and  C_16
REMARK    2  A    between atoms: O_1  and  C_22
REMARK    3  A    between atoms: O_6  and  C_24
REMARK    4  A    between atoms: O_8  and  C_26
REMARK    5  A    between atoms: O_11  and  C_36
REMARK    6  A    between atoms: O_11  and  C_41
REMARK    7  A    between atoms: O_12  and  C_37
REMARK    8  A    between atoms: O_12  and  C_42
REMARK    9  A    between atoms: O_13  and  C_39
REMARK   10  A    between atoms: C_17  and  C_23
REMARK   11  A    between atoms: C_35  and  C_40
REMARK                            x       y       z     vdW  Elec       q    Type
REMARK                         _______ _______ _______ _____ _____    ______ ____
ROOT
ATOM      1  O   UNL     1      -8.216  -1.106  26.728  0.00  0.00    +0.000 OA
ATOM      2  O   UNL     1      -6.266  -2.171  26.164  0.00  0.00    +0.000 OA
ATOM      3  O   UNL     1     -11.392  -3.564  19.337  0.00  0.00    +0.000 OA
ATOM      4  O   UNL     1      -9.076  -4.097  18.925  0.00  0.00    +0.000 OA
ATOM      5  C   UNL     1      -9.361  -1.334  24.727  0.00  0.00    +0.000 C 
ATOM      6  C   UNL     1      -8.232  -2.345  24.743  0.00  0.00    +0.000 C 
ATOM      7  C   UNL     1     -10.535  -1.862  23.911  0.00  0.00    +0.000 C 
ATOM      8  C   UNL     1      -7.579  -2.455  23.366  0.00  0.00    +0.000 C 
ATOM      9  C   UNL     1     -10.055  -2.438  22.580  0.00  0.00    +0.000 A 
ATOM     10  C   UNL     1      -8.679  -2.754  22.333  0.00  0.00    +0.000 A 
ATOM     11  C   UNL     1      -9.555  -1.103  26.204  0.00  0.00    +0.000 C 
ATOM     12  C   UNL     1      -7.420  -1.868  25.910  0.00  0.00    +0.000 C 
ATOM     13  C   UNL     1     -11.013  -2.700  21.581  0.00  0.00    +0.000 A 
ATOM     14  C   UNL     1      -8.298  -3.321  21.099  0.00  0.00    +0.000 A 
ATOM     15  C   UNL     1     -10.593  -3.255  20.392  0.00  0.00    +0.000 A 
ATOM     16  C   UNL     1      -9.275  -3.558  20.158  0.00  0.00    +0.000 A 
ATOM     17  C   UNL     1     -10.423  -4.096  18.409  0.00  0.00    +0.000 C 
ENDROOT
BRANCH   8  18
ATOM     18  C   UNL     1      -6.694  -1.269  22.975  0.00  0.00    +0.000 A 
ATOM     19  C   UNL     1      -7.216  -0.013  22.618  0.00  0.00    +0.000 A 
ATOM     20  C   UNL     1      -5.298  -1.424  22.982  0.00  0.00    +0.000 A 
ATOM     21  C   UNL     1      -4.457  -0.356  22.667  0.00  0.00    +0.000 A 
ATOM     22  C   UNL     1      -6.392   1.070  22.277  0.00  0.00    +0.000 A 
ATOM     23  C   UNL     1      -5.009   0.885  22.307  0.00  0.00    +0.000 A 
BRANCH  21  24
ATOM     24  O   UNL     1      -3.082  -0.397  22.667  0.00  0.00    +0.000 OA
ATOM     25  C   UNL     1      -2.458  -0.689  23.915  0.00  0.00    +0.000 C 
ENDBRANCH  21  24
BRANCH  22  26
ATOM     26  O   UNL     1      -7.098   2.199  21.964  0.00  0.00    +0.000 OA
ATOM     27  C   UNL     1      -8.093   2.106  20.955  0.00  0.00    +0.000 C 
ENDBRANCH  22  26
BRANCH  23  28
ATOM     28  O   UNL     1      -4.133   1.896  22.002  0.00  0.00    +0.000 OA
ATOM     29  H   UNL     1      -3.992   2.370  22.845  0.00  0.00    +0.000 HD
ENDBRANCH  23  28
ENDBRANCH   8  18
BRANCH   7  30
ATOM     30  O   UNL     1     -11.161  -2.933  24.618  0.00  0.00    +0.000 OA
BRANCH  30  34
ATOM     31  O   UNL     1     -12.927  -1.414  24.412  0.00  0.00    +0.000 OA
ATOM     32  O   UNL     1     -16.072  -1.006  26.274  0.00  0.00    +0.000 OA
ATOM     33  O   UNL     1     -16.103   0.438  24.404  0.00  0.00    +0.000 OA
ATOM     34  C   UNL     1     -12.573  -2.749  24.779  0.00  0.00    +0.000 C 
ATOM     35  C   UNL     1     -12.899  -3.053  26.259  0.00  0.00    +0.000 C 
ATOM     36  C   UNL     1     -14.680  -1.283  26.085  0.00  0.00    +0.000 C 
ATOM     37  C   UNL     1     -14.353  -2.687  26.593  0.00  0.00    +0.000 C 
ATOM     38  C   UNL     1     -14.319  -1.182  24.605  0.00  0.00    +0.000 C 
ATOM     39  C   UNL     1     -14.722   0.210  24.128  0.00  0.00    +0.000 C 
ATOM     40  C   UNL     1     -16.387   0.305  25.796  0.00  0.00    +0.000 C 
ATOM     41  C   UNL     1     -17.874   0.530  25.997  0.00  0.00    +0.000 C 
BRANCH  35  42
ATOM     42  O   UNL     1     -12.673  -4.449  26.514  0.00  0.00    +0.000 OA
ATOM     43  H   UNL     1     -11.735  -4.526  26.778  0.00  0.00    +0.000 HD
ENDBRANCH  35  42
BRANCH  37  44
ATOM     44  O   UNL     1     -14.557  -2.715  28.015  0.00  0.00    +0.000 OA
ATOM     45  H   UNL     1     -15.465  -3.047  28.148  0.00  0.00    +0.000 HD
ENDBRANCH  37  44
ENDBRANCH  30  34
ENDBRANCH   7  30
TORSDOF 8
ENDMDL
MODEL 4
REMARK VINA RESULT:      -6.3     17.182     21.582
REMARK  Name = 
REMARK  11 active torsions:
REMARK  status: ('A' for Active; 'I' for Inactive)
REMARK    1  A    between atoms: O_1  and  C_16
REMARK    2  A    between atoms: O_1  and  C_22
REMARK    3  A    between atoms: O_6  and  C_24
REMARK    4  A    between atoms: O_8  and  C_26
REMARK    5  A    between atoms: O_11  and  C_36
REMARK    6  A    between atoms: O_11  and  C_41
REMARK    7  A    between atoms: O_12  and  C_37
REMARK    8  A    between atoms: O_12  and  C_42
REMARK    9  A    between atoms: O_13  and  C_39
REMARK   10  A    between atoms: C_17  and  C_23
REMARK   11  A    between atoms: C_35  and  C_40
REMARK                            x       y       z     vdW  Elec       q    Type
REMARK                         _______ _______ _______ _____ _____    ______ ____
ROOT
ATOM      1  O   UNL     1     -20.489  -4.207   8.842  0.00  0.00    +0.000 OA
ATOM      2  O   UNL     1     -19.628  -5.401   7.085  0.00  0.00    +0.000 OA
ATOM      3  O   UNL     1     -26.713  -9.847   9.292  0.00  0.00    +0.000 OA
ATOM      4  O   UNL     1     -25.795 -10.497   7.158  0.00  0.00    +0.000 OA
ATOM      5  C   UNL     1     -22.484  -5.348   9.132  0.00  0.00    +0.000 C 
ATOM      6  C   UNL     1     -21.547  -6.229   8.328  0.00  0.00    +0.000 C 
ATOM      7  C   UNL     1     -23.425  -6.202   9.972  0.00  0.00    +0.000 C 
ATOM      8  C   UNL     1     -22.306  -6.965   7.224  0.00  0.00    +0.000 C 
ATOM      9  C   UNL     1     -24.027  -7.330   9.136  0.00  0.00    +0.000 A 
ATOM     10  C   UNL     1     -23.484  -7.718   7.867  0.00  0.00    +0.000 A 
ATOM     11  C   UNL     1     -21.495  -4.456   9.838  0.00  0.00    +0.000 C 
ATOM     12  C   UNL     1     -20.466  -5.258   7.960  0.00  0.00    +0.000 C 
ATOM     13  C   UNL     1     -25.130  -8.033   9.658  0.00  0.00    +0.000 A 
ATOM     14  C   UNL     1     -24.055  -8.793   7.156  0.00  0.00    +0.000 A 
ATOM     15  C   UNL     1     -25.654  -9.077   8.926  0.00  0.00    +0.000 A 
ATOM     16  C   UNL     1     -25.132  -9.446   7.712  0.00  0.00    +0.000 A 
ATOM     17  C   UNL     1     -26.798 -10.745   8.165  0.00  0.00    +0.000 C 
ENDROOT
BRANCH   8  18
ATOM     18  C   UNL     1     -22.726  -6.093   6.038  0.00  0.00    +0.000 A 
ATOM     19  C   UNL     1     -22.219  -6.276   4.739  0.00  0.00    +0.000 A 
ATOM     20  C   UNL     1     -23.668  -5.070   6.239  0.00  0.00    +0.000 A 
ATOM     21  C   UNL     1     -24.103  -4.278   5.176  0.00  0.00    +0.000 A 
ATOM     22  C   UNL     1     -22.624  -5.479   3.659  0.00  0.00    +0.000 A 
ATOM     23  C   UNL     1     -23.571  -4.480   3.891  0.00  0.00    +0.000 A 
BRANCH  21  24
ATOM     24  O   UNL     1     -25.035  -3.269   5.262  0.00  0.00    +0.000 OA
ATOM     25  C   UNL     1     -24.675  -2.144   6.059  0.00  0.00    +0.000 C 
ENDBRANCH  21  24
BRANCH  22  26
ATOM     26  O   UNL     1     -22.013  -5.822   2.484  0.00  0.00    +0.000 OA
ATOM     27  C   UNL     1     -21.206  -6.991   2.469  0.00  0.00    +0.000 C 
ENDBRANCH  22  26
BRANCH  23  28
ATOM     28  O   UNL     1     -24.032  -3.667   2.886  0.00  0.00    +0.000 OA
ATOM     29  H   UNL     1     -23.388  -2.934   2.841  0.00  0.00    +0.000 HD
ENDBRANCH  23  28
ENDBRANCH   8  18
BRANCH   7  30
ATOM     30  O   UNL     1     -22.690  -6.823  11.027  0.00  0.00    +0.000 OA
BRANCH  30  34
ATOM     31  O   UNL     1     -24.483  -5.869  12.185  0.00  0.00    +0.000 OA
ATOM     32  O   UNL     1     -24.726  -4.264  15.485  0.00  0.00    +0.000 OA
ATOM     33  O   UNL     1     -26.904  -4.532  14.607  0.00  0.00    +0.000 OA
ATOM     34  C   UNL     1     -23.247  -6.572  12.323  0.00  0.00    +0.000 C 
ATOM     35  C   UNL     1     -22.197  -5.757  13.112  0.00  0.00    +0.000 C 
ATOM     36  C   UNL     1     -24.136  -4.601  14.224  0.00  0.00    +0.000 C 
ATOM     37  C   UNL     1     -22.772  -5.255  14.445  0.00  0.00    +0.000 C 
ATOM     38  C   UNL     1     -25.042  -5.561  13.459  0.00  0.00    +0.000 C 
ATOM     39  C   UNL     1     -26.406  -4.894  13.320  0.00  0.00    +0.000 C 
ATOM     40  C   UNL     1     -26.005  -3.655  15.287  0.00  0.00    +0.000 C 
ATOM     41  C   UNL     1     -26.592  -3.347  16.652  0.00  0.00    +0.000 C 
BRANCH  35  42
ATOM     42  O   UNL     1     -21.044  -6.581  13.354  0.00  0.00    +0.000 OA
ATOM     43  H   UNL     1     -20.474  -6.485  12.567  0.00  0.00    +0.000 HD
ENDBRANCH  35  42
BRANCH  37  44
ATOM     44  O   UNL     1     -21.891  -4.283  15.030  0.00  0.00    +0.000 OA
ATOM     45  H   UNL     1     -20.998  -4.677  14.998  0.00  0.00    +0.000 HD
ENDBRANCH  37  44
ENDBRANCH  30  34
ENDBRANCH   7  30
TORSDOF 8
ENDMDL
MODEL 5
REMARK VINA RESULT:      -6.2     19.401     21.193
REMARK  Name = 
REMARK  11 active torsions:
REMARK  status: ('A' for Active; 'I' for Inactive)
REMARK    1  A    between atoms: O_1  and  C_16
REMARK    2  A    between atoms: O_1  and  C_22
REMARK    3  A    between atoms: O_6  and  C_24
REMARK    4  A    between atoms: O_8  and  C_26
REMARK    5  A    between atoms: O_11  and  C_36
REMARK    6  A    between atoms: O_11  and  C_41
REMARK    7  A    between atoms: O_12  and  C_37
REMARK    8  A    between atoms: O_12  and  C_42
REMARK    9  A    between atoms: O_13  and  C_39
REMARK   10  A    between atoms: C_17  and  C_23
REMARK   11  A    between atoms: C_35  and  C_40
REMARK                            x       y       z     vdW  Elec       q    Type
REMARK                         _______ _______ _______ _____ _____    ______ ____
ROOT
ATOM      1  O   UNL     1       8.151 -15.389  14.061  0.00  0.00    +0.000 OA
ATOM      2  O   UNL     1       9.541 -14.327  12.578  0.00  0.00    +0.000 OA
ATOM      3  O   UNL     1       2.083 -10.008  11.828  0.00  0.00    +0.000 OA
ATOM      4  O   UNL     1       3.953  -8.885  10.800  0.00  0.00    +0.000 OA
ATOM      5  C   UNL     1       6.322 -13.972  13.943  0.00  0.00    +0.000 C 
ATOM      6  C   UNL     1       7.188 -13.729  12.722  0.00  0.00    +0.000 C 
ATOM      7  C   UNL     1       4.858 -13.704  13.617  0.00  0.00    +0.000 C 
ATOM      8  C   UNL     1       7.251 -12.239  12.388  0.00  0.00    +0.000 C 
ATOM      9  C   UNL     1       4.702 -12.383  12.866  0.00  0.00    +0.000 A 
ATOM     10  C   UNL     1       5.812 -11.712  12.255  0.00  0.00    +0.000 A 
ATOM     11  C   UNL     1       6.735 -15.376  14.307  0.00  0.00    +0.000 C 
ATOM     12  C   UNL     1       8.444 -14.456  13.097  0.00  0.00    +0.000 C 
ATOM     13  C   UNL     1       3.411 -11.833  12.743  0.00  0.00    +0.000 A 
ATOM     14  C   UNL     1       5.604 -10.515  11.541  0.00  0.00    +0.000 A 
ATOM     15  C   UNL     1       3.258 -10.661  12.034  0.00  0.00    +0.000 A 
ATOM     16  C   UNL     1       4.322 -10.021  11.450  0.00  0.00    +0.000 A 
ATOM     17  C   UNL     1       2.531  -8.882  11.046  0.00  0.00    +0.000 C 
ENDROOT
BRANCH   8  18
ATOM     18  C   UNL     1       8.113 -11.402  13.336  0.00  0.00    +0.000 A 
ATOM     19  C   UNL     1       9.370 -10.887  12.971  0.00  0.00    +0.000 A 
ATOM     20  C   UNL     1       7.634 -11.116  14.625  0.00  0.00    +0.000 A 
ATOM     21  C   UNL     1       8.374 -10.325  15.505  0.00  0.00    +0.000 A 
ATOM     22  C   UNL     1      10.142 -10.108  13.845  0.00  0.00    +0.000 A 
ATOM     23  C   UNL     1       9.630  -9.832  15.114  0.00  0.00    +0.000 A 
BRANCH  21  24
ATOM     24  O   UNL     1       7.986  -9.969  16.776  0.00  0.00    +0.000 OA
ATOM     25  C   UNL     1       7.149 -10.896  17.464  0.00  0.00    +0.000 C 
ENDBRANCH  21  24
BRANCH  22  26
ATOM     26  O   UNL     1      11.329  -9.707  13.295  0.00  0.00    +0.000 OA
ATOM     27  C   UNL     1      11.437  -9.695  11.879  0.00  0.00    +0.000 C 
ENDBRANCH  22  26
BRANCH  23  28
ATOM     28  O   UNL     1      10.315  -9.066  16.023  0.00  0.00    +0.000 OA
ATOM     29  H   UNL     1      11.254  -9.149  15.766  0.00  0.00    +0.000 HD
ENDBRANCH  23  28
ENDBRANCH   8  18
BRANCH   7  30
ATOM     30  O   UNL     1       4.369 -14.727  12.749  0.00  0.00    +0.000 OA
BRANCH  30  34
ATOM     31  O   UNL     1       3.614 -16.108  14.478  0.00  0.00    +0.000 OA
ATOM     32  O   UNL     1       1.032 -18.723  14.609  0.00  0.00    +0.000 OA
ATOM     33  O   UNL     1       1.801 -18.303  16.804  0.00  0.00    +0.000 OA
ATOM     34  C   UNL     1       3.236 -15.422  13.283  0.00  0.00    +0.000 C 
ATOM     35  C   UNL     1       2.746 -16.393  12.183  0.00  0.00    +0.000 C 
ATOM     36  C   UNL     1       2.102 -17.957  14.047  0.00  0.00    +0.000 C 
ATOM     37  C   UNL     1       1.661 -17.337  12.721  0.00  0.00    +0.000 C 
ATOM     38  C   UNL     1       2.520 -16.850  15.011  0.00  0.00    +0.000 C 
ATOM     39  C   UNL     1       2.889 -17.509  16.336  0.00  0.00    +0.000 C 
ATOM     40  C   UNL     1       1.436 -19.303  15.853  0.00  0.00    +0.000 C 
ATOM     41  C   UNL     1       0.257 -20.077  16.413  0.00  0.00    +0.000 C 
BRANCH  35  42
ATOM     42  O   UNL     1       2.230 -15.631  11.079  0.00  0.00    +0.000 OA
ATOM     43  H   UNL     1       2.294 -14.693  11.345  0.00  0.00    +0.000 HD
ENDBRANCH  35  42
BRANCH  37  44
ATOM     44  O   UNL     1       1.417 -18.397  11.783  0.00  0.00    +0.000 OA
ATOM     45  H   UNL     1       1.005 -19.119  12.295  0.00  0.00    +0.000 HD
ENDBRANCH  37  44
ENDBRANCH  30  34
ENDBRANCH   7  30
TORSDOF 8
ENDMDL
MODEL 6
REMARK VINA RESULT:      -6.1     18.210     21.767
REMARK  Name = 
REMARK  11 active torsions:
REMARK  status: ('A' for Active; 'I' for Inactive)
REMARK    1  A    between atoms: O_1  and  C_16
REMARK    2  A    between atoms: O_1  and  C_22
REMARK    3  A    between atoms: O_6  and  C_24
REMARK    4  A    between atoms: O_8  and  C_26
REMARK    5  A    between atoms: O_11  and  C_36
REMARK    6  A    between atoms: O_11  and  C_41
REMARK    7  A    between atoms: O_12  and  C_37
REMARK    8  A    between atoms: O_12  and  C_42
REMARK    9  A    between atoms: O_13  and  C_39
REMARK   10  A    between atoms: C_17  and  C_23
REMARK   11  A    between atoms: C_35  and  C_40
REMARK                            x       y       z     vdW  Elec       q    Type
REMARK                         _______ _______ _______ _____ _____    ______ ____
ROOT
ATOM      1  O   UNL     1     -20.508  -3.768   7.277  0.00  0.00    +0.000 OA
ATOM      2  O   UNL     1     -19.499  -5.633   8.150  0.00  0.00    +0.000 OA
ATOM      3  O   UNL     1     -25.419  -3.543  14.102  0.00  0.00    +0.000 OA
ATOM      4  O   UNL     1     -24.482  -5.745  14.408  0.00  0.00    +0.000 OA
ATOM      5  C   UNL     1     -22.212  -3.502   8.824  0.00  0.00    +0.000 C 
ATOM      6  C   UNL     1     -21.151  -4.396   9.437  0.00  0.00    +0.000 C 
ATOM      7  C   UNL     1     -22.920  -2.699   9.907  0.00  0.00    +0.000 C 
ATOM      8  C   UNL     1     -21.792  -5.527  10.241  0.00  0.00    +0.000 C 
ATOM      9  C   UNL     1     -23.315  -3.596  11.079  0.00  0.00    +0.000 A 
ATOM     10  C   UNL     1     -22.760  -4.906  11.262  0.00  0.00    +0.000 A 
ATOM     11  C   UNL     1     -21.397  -2.763   7.793  0.00  0.00    +0.000 C 
ATOM     12  C   UNL     1     -20.309  -4.725   8.241  0.00  0.00    +0.000 C 
ATOM     13  C   UNL     1     -24.226  -3.094  12.027  0.00  0.00    +0.000 A 
ATOM     14  C   UNL     1     -23.130  -5.675  12.383  0.00  0.00    +0.000 A 
ATOM     15  C   UNL     1     -24.557  -3.884  13.107  0.00  0.00    +0.000 A 
ATOM     16  C   UNL     1     -24.024  -5.136  13.281  0.00  0.00    +0.000 A 
ATOM     17  C   UNL     1     -25.368  -4.729  14.923  0.00  0.00    +0.000 C 
ENDROOT
BRANCH   8  18
ATOM     18  C   UNL     1     -22.433  -6.633   9.400  0.00  0.00    +0.000 A 
ATOM     19  C   UNL     1     -22.516  -6.575   7.998  0.00  0.00    +0.000 A 
ATOM     20  C   UNL     1     -22.954  -7.769  10.044  0.00  0.00    +0.000 A 
ATOM     21  C   UNL     1     -23.513  -8.815   9.309  0.00  0.00    +0.000 A 
ATOM     22  C   UNL     1     -23.093  -7.604   7.239  0.00  0.00    +0.000 A 
ATOM     23  C   UNL     1     -23.589  -8.723   7.909  0.00  0.00    +0.000 A 
BRANCH  21  24
ATOM     24  O   UNL     1     -24.028  -9.975   9.840  0.00  0.00    +0.000 OA
ATOM     25  C   UNL     1     -24.910  -9.825  10.949  0.00  0.00    +0.000 C 
ENDBRANCH  21  24
BRANCH  22  26
ATOM     26  O   UNL     1     -23.072  -7.351   5.895  0.00  0.00    +0.000 OA
ATOM     27  C   UNL     1     -22.357  -6.211   5.441  0.00  0.00    +0.000 C 
ENDBRANCH  22  26
BRANCH  23  28
ATOM     28  O   UNL     1     -24.155  -9.780   7.241  0.00  0.00    +0.000 OA
ATOM     29  H   UNL     1     -23.881  -9.665   6.310  0.00  0.00    +0.000 HD
ENDBRANCH  23  28
ENDBRANCH   8  18
BRANCH   7  30
ATOM     30  O   UNL     1     -22.027  -1.714  10.429  0.00  0.00    +0.000 OA
BRANCH  30  34
ATOM     31  O   UNL     1     -23.254  -0.254   9.076  0.00  0.00    +0.000 OA
ATOM     32  O   UNL     1     -23.041   3.376   8.522  0.00  0.00    +0.000 OA
ATOM     33  O   UNL     1     -24.975   2.553   7.442  0.00  0.00    +0.000 OA
ATOM     34  C   UNL     1     -22.528  -0.378  10.301  0.00  0.00    +0.000 C 
ATOM     35  C   UNL     1     -21.304   0.566  10.352  0.00  0.00    +0.000 C 
ATOM     36  C   UNL     1     -22.557   2.047   8.747  0.00  0.00    +0.000 C 
ATOM     37  C   UNL     1     -21.705   2.010  10.016  0.00  0.00    +0.000 C 
ATOM     38  C   UNL     1     -23.726   1.078   8.893  0.00  0.00    +0.000 C 
ATOM     39  C   UNL     1     -24.581   1.196   7.636  0.00  0.00    +0.000 C 
ATOM     40  C   UNL     1     -23.843   3.417   7.338  0.00  0.00    +0.000 C 
ATOM     41  C   UNL     1     -24.350   4.837   7.167  0.00  0.00    +0.000 C 
BRANCH  35  42
ATOM     42  O   UNL     1     -20.721   0.510  11.664  0.00  0.00    +0.000 OA
ATOM     43  H   UNL     1     -20.053   1.223  11.693  0.00  0.00    +0.000 HD
ENDBRANCH  35  42
BRANCH  37  44
ATOM     44  O   UNL     1     -20.532   2.812   9.800  0.00  0.00    +0.000 OA
ATOM     45  H   UNL     1     -20.619   3.580  10.396  0.00  0.00    +0.000 HD
ENDBRANCH  37  44
ENDBRANCH  30  34
ENDBRANCH   7  30
TORSDOF 8
ENDMDL
MODEL 7
REMARK VINA RESULT:      -5.9     18.667     20.922
REMARK  Name = 
REMARK  11 active torsions:
REMARK  status: ('A' for Active; 'I' for Inactive)
REMARK    1  A    between atoms: O_1  and  C_16
REMARK    2  A    between atoms: O_1  and  C_22
REMARK    3  A    between atoms: O_6  and  C_24
REMARK    4  A    between atoms: O_8  and  C_26
REMARK    5  A    between atoms: O_11  and  C_36
REMARK    6  A    between atoms: O_11  and  C_41
REMARK    7  A    between atoms: O_12  and  C_37
REMARK    8  A    between atoms: O_12  and  C_42
REMARK    9  A    between atoms: O_13  and  C_39
REMARK   10  A    between atoms: C_17  and  C_23
REMARK   11  A    between atoms: C_35  and  C_40
REMARK                            x       y       z     vdW  Elec       q    Type
REMARK                         _______ _______ _______ _____ _____    ______ ____
ROOT
ATOM      1  O   UNL     1       4.469 -12.767  11.879  0.00  0.00    +0.000 OA
ATOM      2  O   UNL     1       3.832 -10.736  12.732  0.00  0.00    +0.000 OA
ATOM      3  O   UNL     1       2.481 -16.214  19.290  0.00  0.00    +0.000 OA
ATOM      4  O   UNL     1       2.407 -13.893  19.944  0.00  0.00    +0.000 OA
ATOM      5  C   UNL     1       4.310 -14.049  13.802  0.00  0.00    +0.000 C 
ATOM      6  C   UNL     1       3.511 -12.778  14.014  0.00  0.00    +0.000 C 
ATOM      7  C   UNL     1       3.701 -15.198  14.596  0.00  0.00    +0.000 C 
ATOM      8  C   UNL     1       3.693 -12.252  15.438  0.00  0.00    +0.000 C 
ATOM      9  C   UNL     1       3.391 -14.764  16.028  0.00  0.00    +0.000 A 
ATOM     10  C   UNL     1       3.347 -13.386  16.419  0.00  0.00    +0.000 A 
ATOM     11  C   UNL     1       4.313 -14.133  12.297  0.00  0.00    +0.000 C 
ATOM     12  C   UNL     1       3.965 -11.943  12.855  0.00  0.00    +0.000 C 
ATOM     13  C   UNL     1       3.101 -15.761  16.979  0.00  0.00    +0.000 A 
ATOM     14  C   UNL     1       3.016 -13.041  17.745  0.00  0.00    +0.000 A 
ATOM     15  C   UNL     1       2.783 -15.375  18.264  0.00  0.00    +0.000 A 
ATOM     16  C   UNL     1       2.740 -14.055  18.635  0.00  0.00    +0.000 A 
ATOM     17  C   UNL     1       2.246 -15.267  20.354  0.00  0.00    +0.000 C 
ENDROOT
BRANCH   8  18
ATOM     18  C   UNL     1       5.052 -11.608  15.719  0.00  0.00    +0.000 A 
ATOM     19  C   UNL     1       6.238 -12.352  15.844  0.00  0.00    +0.000 A 
ATOM     20  C   UNL     1       5.134 -10.211  15.848  0.00  0.00    +0.000 A 
ATOM     21  C   UNL     1       6.361  -9.583  16.068  0.00  0.00    +0.000 A 
ATOM     22  C   UNL     1       7.479 -11.746  16.086  0.00  0.00    +0.000 A 
ATOM     23  C   UNL     1       7.528 -10.356  16.196  0.00  0.00    +0.000 A 
BRANCH  21  24
ATOM     24  O   UNL     1       6.552  -8.226  16.186  0.00  0.00    +0.000 OA
ATOM     25  C   UNL     1       5.434  -7.468  16.640  0.00  0.00    +0.000 C 
ENDBRANCH  21  24
BRANCH  22  26
ATOM     26  O   UNL     1       8.506 -12.647  16.171  0.00  0.00    +0.000 OA
ATOM     27  C   UNL     1       8.186 -14.030  16.105  0.00  0.00    +0.000 C 
ENDBRANCH  22  26
BRANCH  23  28
ATOM     28  O   UNL     1       8.704  -9.684  16.418  0.00  0.00    +0.000 OA
ATOM     29  H   UNL     1       8.750  -9.016  15.706  0.00  0.00    +0.000 HD
ENDBRANCH  23  28
ENDBRANCH   8  18
BRANCH   7  30
ATOM     30  O   UNL     1       2.457 -15.576  14.005  0.00  0.00    +0.000 OA
BRANCH  30  34
ATOM     31  O   UNL     1       3.662 -17.578  13.933  0.00  0.00    +0.000 OA
ATOM     32  O   UNL     1       3.662 -20.385  11.556  0.00  0.00    +0.000 OA
ATOM     33  O   UNL     1       4.982 -20.972  13.426  0.00  0.00    +0.000 OA
ATOM     34  C   UNL     1       2.422 -16.951  13.602  0.00  0.00    +0.000 C 
ATOM     35  C   UNL     1       2.148 -16.966  12.081  0.00  0.00    +0.000 C 
ATOM     36  C   UNL     1       3.601 -19.019  11.981  0.00  0.00    +0.000 C 
ATOM     37  C   UNL     1       2.295 -18.382  11.505  0.00  0.00    +0.000 C 
ATOM     38  C   UNL     1       3.680 -18.937  13.503  0.00  0.00    +0.000 C 
ATOM     39  C   UNL     1       4.962 -19.640  13.936  0.00  0.00    +0.000 C 
ATOM     40  C   UNL     1       4.879 -20.989  12.003  0.00  0.00    +0.000 C 
ATOM     41  C   UNL     1       4.875 -22.438  11.549  0.00  0.00    +0.000 C 
BRANCH  35  42
ATOM     42  O   UNL     1       0.821 -16.471  11.836  0.00  0.00    +0.000 OA
ATOM     43  H   UNL     1       0.331 -16.590  12.672  0.00  0.00    +0.000 HD
ENDBRANCH  35  42
BRANCH  37  44
ATOM     44  O   UNL     1       2.310 -18.334  10.069  0.00  0.00    +0.000 OA
ATOM     45  H   UNL     1       1.564 -18.891   9.775  0.00  0.00    +0.000 HD
ENDBRANCH  37  44
ENDBRANCH  30  34
ENDBRANCH   7  30
TORSDOF 8
ENDMDL
MODEL 8
REMARK VINA RESULT:      -5.9     17.755     21.454
REMARK  Name = 
REMARK  11 active torsions:
REMARK  status: ('A' for Active; 'I' for Inactive)
REMARK    1  A    between atoms: O_1  and  C_16
REMARK    2  A    between atoms: O_1  and  C_22
REMARK    3  A    between atoms: O_6  and  C_24
REMARK    4  A    between atoms: O_8  and  C_26
REMARK    5  A    between atoms: O_11  and  C_36
REMARK    6  A    between atoms: O_11  and  C_41
REMARK    7  A    between atoms: O_12  and  C_37
REMARK    8  A    between atoms: O_12  and  C_42
REMARK    9  A    between atoms: O_13  and  C_39
REMARK   10  A    between atoms: C_17  and  C_23
REMARK   11  A    between atoms: C_35  and  C_40
REMARK                            x       y       z     vdW  Elec       q    Type
REMARK                         _______ _______ _______ _____ _____    ______ ____
ROOT
ATOM      1  O   UNL     1     -20.623  -3.709   7.327  0.00  0.00    +0.000 OA
ATOM      2  O   UNL     1     -19.510  -5.575   8.057  0.00  0.00    +0.000 OA
ATOM      3  O   UNL     1     -24.827  -3.682  14.613  0.00  0.00    +0.000 OA
ATOM      4  O   UNL     1     -23.839  -5.876  14.779  0.00  0.00    +0.000 OA
ATOM      5  C   UNL     1     -22.167  -3.496   9.042  0.00  0.00    +0.000 C 
ATOM      6  C   UNL     1     -21.039  -4.387   9.528  0.00  0.00    +0.000 C 
ATOM      7  C   UNL     1     -22.772  -2.724  10.207  0.00  0.00    +0.000 C 
ATOM      8  C   UNL     1     -21.582  -5.541  10.369  0.00  0.00    +0.000 C 
ATOM      9  C   UNL     1     -23.037  -3.649  11.393  0.00  0.00    +0.000 A 
ATOM     10  C   UNL     1     -22.451  -4.953  11.494  0.00  0.00    +0.000 A 
ATOM     11  C   UNL     1     -21.468  -2.726   7.950  0.00  0.00    +0.000 C 
ATOM     12  C   UNL     1     -20.317  -4.681   8.247  0.00  0.00    +0.000 C 
ATOM     13  C   UNL     1     -23.855  -3.177  12.438  0.00  0.00    +0.000 A 
ATOM     14  C   UNL     1     -22.697  -5.749  12.631  0.00  0.00    +0.000 A 
ATOM     15  C   UNL     1     -24.066  -3.992  13.530  0.00  0.00    +0.000 A 
ATOM     16  C   UNL     1     -23.503  -5.240  13.624  0.00  0.00    +0.000 A 
ATOM     17  C   UNL     1     -24.680  -4.883  15.400  0.00  0.00    +0.000 C 
ENDROOT
BRANCH   8  18
ATOM     18  C   UNL     1     -22.291  -6.641   9.574  0.00  0.00    +0.000 A 
ATOM     19  C   UNL     1     -22.930  -7.733  10.186  0.00  0.00    +0.000 A 
ATOM     20  C   UNL     1     -22.323  -6.560   8.171  0.00  0.00    +0.000 A 
ATOM     21  C   UNL     1     -22.991  -7.523   7.414  0.00  0.00    +0.000 A 
ATOM     22  C   UNL     1     -23.589  -8.725   9.445  0.00  0.00    +0.000 A 
ATOM     23  C   UNL     1     -23.614  -8.607   8.055  0.00  0.00    +0.000 A 
BRANCH  21  24
ATOM     24  O   UNL     1     -23.100  -7.523   6.042  0.00  0.00    +0.000 OA
ATOM     25  C   UNL     1     -22.818  -6.290   5.386  0.00  0.00    +0.000 C 
ENDBRANCH  21  24
BRANCH  22  26
ATOM     26  O   UNL     1     -24.146  -9.697  10.231  0.00  0.00    +0.000 OA
ATOM     27  C   UNL     1     -24.843  -9.291  11.400  0.00  0.00    +0.000 C 
ENDBRANCH  22  26
BRANCH  23  28
ATOM     28  O   UNL     1     -24.249  -9.526   7.257  0.00  0.00    +0.000 OA
ATOM     29  H   UNL     1     -24.385 -10.305   7.831  0.00  0.00    +0.000 HD
ENDBRANCH  23  28
ENDBRANCH   8  18
BRANCH   7  30
ATOM     30  O   UNL     1     -21.843  -1.737  10.657  0.00  0.00    +0.000 OA
BRANCH  30  34
ATOM     31  O   UNL     1     -23.100  -0.284   9.324  0.00  0.00    +0.000 OA
ATOM     32  O   UNL     1     -22.881   3.338   8.722  0.00  0.00    +0.000 OA
ATOM     33  O   UNL     1     -24.852   2.516   7.708  0.00  0.00    +0.000 OA
ATOM     34  C   UNL     1     -22.339  -0.398  10.528  0.00  0.00    +0.000 C 
ATOM     35  C   UNL     1     -21.109   0.538  10.532  0.00  0.00    +0.000 C 
ATOM     36  C   UNL     1     -22.399   2.009   8.949  0.00  0.00    +0.000 C 
ATOM     37  C   UNL     1     -21.510   1.981  10.192  0.00  0.00    +0.000 C 
ATOM     38  C   UNL     1     -23.569   1.049   9.140  0.00  0.00    +0.000 C 
ATOM     39  C   UNL     1     -24.460   1.159   7.907  0.00  0.00    +0.000 C 
ATOM     40  C   UNL     1     -23.718   3.371   7.562  0.00  0.00    +0.000 C 
ATOM     41  C   UNL     1     -24.220   4.793   7.389  0.00  0.00    +0.000 C 
BRANCH  35  42
ATOM     42  O   UNL     1     -20.488   0.493  11.828  0.00  0.00    +0.000 OA
ATOM     43  H   UNL     1     -21.002   1.101  12.394  0.00  0.00    +0.000 HD
ENDBRANCH  35  42
BRANCH  37  44
ATOM     44  O   UNL     1     -20.340   2.773   9.933  0.00  0.00    +0.000 OA
ATOM     45  H   UNL     1     -19.720   2.187   9.459  0.00  0.00    +0.000 HD
ENDBRANCH  37  44
ENDBRANCH  30  34
ENDBRANCH   7  30
TORSDOF 8
ENDMDL
MODEL 9
REMARK VINA RESULT:      -5.9     18.475     20.227
REMARK  Name = 
REMARK  11 active torsions:
REMARK  status: ('A' for Active; 'I' for Inactive)
REMARK    1  A    between atoms: O_1  and  C_16
REMARK    2  A    between atoms: O_1  and  C_22
REMARK    3  A    between atoms: O_6  and  C_24
REMARK    4  A    between atoms: O_8  and  C_26
REMARK    5  A    between atoms: O_11  and  C_36
REMARK    6  A    between atoms: O_11  and  C_41
REMARK    7  A    between atoms: O_12  and  C_37
REMARK    8  A    between atoms: O_12  and  C_42
REMARK    9  A    between atoms: O_13  and  C_39
REMARK   10  A    between atoms: C_17  and  C_23
REMARK   11  A    between atoms: C_35  and  C_40
REMARK                            x       y       z     vdW  Elec       q    Type
REMARK                         _______ _______ _______ _____ _____    ______ ____
ROOT
ATOM      1  O   UNL     1       7.215 -14.621  16.513  0.00  0.00    +0.000 OA
ATOM      2  O   UNL     1       8.965 -13.340  15.770  0.00  0.00    +0.000 OA
ATOM      3  O   UNL     1       2.228 -10.434  11.188  0.00  0.00    +0.000 OA
ATOM      4  O   UNL     1       4.165  -9.002  11.064  0.00  0.00    +0.000 OA
ATOM      5  C   UNL     1       5.476 -13.556  15.413  0.00  0.00    +0.000 C 
ATOM      6  C   UNL     1       6.774 -13.172  14.729  0.00  0.00    +0.000 C 
ATOM      7  C   UNL     1       4.328 -13.557  14.411  0.00  0.00    +0.000 C 
ATOM      8  C   UNL     1       6.761 -11.698  14.327  0.00  0.00    +0.000 C 
ATOM      9  C   UNL     1       4.353 -12.291  13.556  0.00  0.00    +0.000 A 
ATOM     10  C   UNL     1       5.502 -11.438  13.482  0.00  0.00    +0.000 A 
ATOM     11  C   UNL     1       5.872 -14.859  16.059  0.00  0.00    +0.000 C 
ATOM     12  C   UNL     1       7.789 -13.659  15.719  0.00  0.00    +0.000 C 
ATOM     13  C   UNL     1       3.214 -11.983  12.787  0.00  0.00    +0.000 A 
ATOM     14  C   UNL     1       5.484 -10.304  12.645  0.00  0.00    +0.000 A 
ATOM     15  C   UNL     1       3.243 -10.863  11.984  0.00  0.00    +0.000 A 
ATOM     16  C   UNL     1       4.345 -10.049  11.913  0.00  0.00    +0.000 A 
ATOM     17  C   UNL     1       2.819  -9.251  10.608  0.00  0.00    +0.000 C 
ENDROOT
BRANCH   8  18
ATOM     18  C   UNL     1       6.921 -10.711  15.486  0.00  0.00    +0.000 A 
ATOM     19  C   UNL     1       5.916 -10.490  16.444  0.00  0.00    +0.000 A 
ATOM     20  C   UNL     1       8.124  -9.998  15.618  0.00  0.00    +0.000 A 
ATOM     21  C   UNL     1       8.322  -9.117  16.681  0.00  0.00    +0.000 A 
ATOM     22  C   UNL     1       6.083  -9.594  17.510  0.00  0.00    +0.000 A 
ATOM     23  C   UNL     1       7.295  -8.912  17.618  0.00  0.00    +0.000 A 
BRANCH  21  24
ATOM     24  O   UNL     1       9.467  -8.390  16.913  0.00  0.00    +0.000 OA
ATOM     25  C   UNL     1      10.685  -9.128  16.957  0.00  0.00    +0.000 C 
ENDBRANCH  21  24
BRANCH  22  26
ATOM     26  O   UNL     1       4.987  -9.529  18.328  0.00  0.00    +0.000 OA
ATOM     27  C   UNL     1       4.870 -10.493  19.364  0.00  0.00    +0.000 C 
ENDBRANCH  22  26
BRANCH  23  28
ATOM     28  O   UNL     1       7.544  -8.029  18.640  0.00  0.00    +0.000 OA
ATOM     29  H   UNL     1       7.414  -7.145  18.245  0.00  0.00    +0.000 HD
ENDBRANCH  23  28
ENDBRANCH   8  18
BRANCH   7  30
ATOM     30  O   UNL     1       4.481 -14.658  13.515  0.00  0.00    +0.000 OA
BRANCH  30  34
ATOM     31  O   UNL     1       3.503 -16.613  14.346  0.00  0.00    +0.000 OA
ATOM     32  O   UNL     1       1.185 -19.049  12.856  0.00  0.00    +0.000 OA
ATOM     33  O   UNL     1       1.439 -19.547  15.152  0.00  0.00    +0.000 OA
ATOM     34  C   UNL     1       3.325 -15.504  13.463  0.00  0.00    +0.000 C 
ATOM     35  C   UNL     1       3.161 -15.950  11.992  0.00  0.00    +0.000 C 
ATOM     36  C   UNL     1       2.280 -18.127  12.896  0.00  0.00    +0.000 C 
ATOM     37  C   UNL     1       2.074 -17.025  11.857  0.00  0.00    +0.000 C 
ATOM     38  C   UNL     1       2.390 -17.500  14.284  0.00  0.00    +0.000 C 
ATOM     39  C   UNL     1       2.529 -18.637  15.291  0.00  0.00    +0.000 C 
ATOM     40  C   UNL     1       1.369 -20.080  13.830  0.00  0.00    +0.000 C 
ATOM     41  C   UNL     1       0.169 -21.008  13.760  0.00  0.00    +0.000 C 
BRANCH  35  42
ATOM     42  O   UNL     1       2.825 -14.806  11.188  0.00  0.00    +0.000 OA
ATOM     43  H   UNL     1       3.556 -14.169  11.307  0.00  0.00    +0.000 HD
ENDBRANCH  35  42
BRANCH  37  44
ATOM     44  O   UNL     1       2.123 -17.619  10.549  0.00  0.00    +0.000 OA
ATOM     45  H   UNL     1       1.433 -17.170  10.025  0.00  0.00    +0.000 HD
ENDBRANCH  37  44
ENDBRANCH  30  34
ENDBRANCH   7  30
TORSDOF 8
ENDMDL
