MODEL 1
REMARK VINA RESULT:      -6.7      0.000      0.000
REMARK  Name = Foretinib.pdbqt.pdb
REMARK  11 active torsions:
REMARK  status: ('A' for Active; 'I' for Inactive)
REMARK    1  A    between atoms: C_2  and  N_31
REMARK    2  A    between atoms: C_7  and  O_8
REMARK    3  A    between atoms: O_8  and  C_9
REMARK    4  A    between atoms: C_17  and  O_19
REMARK    5  A    between atoms: C_18  and  O_29
REMARK    6  A    between atoms: O_19  and  C_20
REMARK    7  A    between atoms: C_21  and  C_22
REMARK    8  A    between atoms: C_22  and  N_23
REMARK    9  A    between atoms: C_32  and  C_35
REMARK   10  A    between atoms: C_35  and  C_38
REMARK   11  A    between atoms: N_40  and  C_42
REMARK                            x       y       z     vdW  Elec       q    Type
REMARK                         _______ _______ _______ _____ _____    ______ ____
ROOT
ATOM      1  F   UNL     1     -16.194  -0.113  26.722  0.00  0.00    +0.000 F 
ATOM      2  C   UNL     1     -13.746  -1.556  24.465  0.00  0.00    +0.000 A 
ATOM      3  C   UNL     1     -14.409  -1.205  25.642  0.00  0.00    +0.000 A 
ATOM      4  C   UNL     1     -14.274  -1.162  23.233  0.00  0.00    +0.000 A 
ATOM      5  C   UNL     1     -15.589  -0.471  25.580  0.00  0.00    +0.000 A 
ATOM      6  C   UNL     1     -15.456  -0.425  23.172  0.00  0.00    +0.000 A 
ATOM      7  C   UNL     1     -16.128  -0.100  24.348  0.00  0.00    +0.000 A 
ENDROOT
BRANCH   2   8
ATOM      8  N   UNL     1     -12.549  -2.296  24.455  0.00  0.00    +0.000 N 
ATOM      9  C   UNL     1     -12.407  -3.589  23.979  0.00  0.00    +0.000 C 
ATOM     10  O   UNL     1     -13.298  -4.293  23.520  0.00  0.00    +0.000 OA
ATOM     11  H   UNL     1     -11.735  -1.852  24.870  0.00  0.00    +0.000 HD
BRANCH   9  12
ATOM     12  C   UNL     1     -11.022  -4.152  24.110  0.00  0.00    +0.000 C 
ATOM     13  C   UNL     1     -10.845  -5.329  24.953  0.00  0.00    +0.000 C 
ATOM     14  C   UNL     1     -10.353  -3.999  25.397  0.00  0.00    +0.000 C 
BRANCH  12  15
ATOM     15  C   UNL     1     -10.191  -4.068  22.865  0.00  0.00    +0.000 C 
ATOM     16  O   UNL     1      -9.054  -3.617  22.943  0.00  0.00    +0.000 OA
ATOM     17  N   UNL     1     -10.796  -4.574  21.727  0.00  0.00    +0.000 N 
ATOM     18  H   UNL     1     -11.726  -4.971  21.819  0.00  0.00    +0.000 HD
BRANCH  17  19
ATOM     19  C   UNL     1     -10.216  -4.620  20.446  0.00  0.00    +0.000 A 
ATOM     20  C   UNL     1      -9.177  -5.529  20.236  0.00  0.00    +0.000 A 
ATOM     21  C   UNL     1      -8.562  -5.622  18.989  0.00  0.00    +0.000 A 
ATOM     22  C   UNL     1      -8.995  -4.800  17.954  0.00  0.00    +0.000 A 
ATOM     23  F   UNL     1      -8.408  -4.889  16.754  0.00  0.00    +0.000 F 
ATOM     24  C   UNL     1     -10.030  -3.892  18.145  0.00  0.00    +0.000 A 
ATOM     25  C   UNL     1     -10.638  -3.804  19.394  0.00  0.00    +0.000 A 
ENDBRANCH  17  19
ENDBRANCH  12  15
ENDBRANCH   9  12
ENDBRANCH   2   8
BRANCH   7  26
ATOM     26  O   UNL     1     -17.251   0.682  24.231  0.00  0.00    +0.000 OA
BRANCH  26  27
ATOM     27  C   UNL     1     -17.108   1.904  23.604  0.00  0.00    +0.000 A 
ATOM     28  C   UNL     1     -17.759   2.098  22.376  0.00  0.00    +0.000 A 
ATOM     29  C   UNL     1     -17.656   3.362  21.771  0.00  0.00    +0.000 A 
ATOM     30  C   UNL     1     -18.492   1.081  21.743  0.00  0.00    +0.000 A 
ATOM     31  N   UNL     1     -16.973   4.373  22.332  0.00  0.00    +0.000 NA
ATOM     32  C   UNL     1     -18.291   3.557  20.554  0.00  0.00    +0.000 A 
ATOM     33  C   UNL     1     -16.371   4.150  23.522  0.00  0.00    +0.000 A 
ATOM     34  C   UNL     1     -16.413   2.950  24.201  0.00  0.00    +0.000 A 
ATOM     35  C   UNL     1     -19.025   2.548  19.918  0.00  0.00    +0.000 A 
ATOM     36  C   UNL     1     -19.127   1.292  20.518  0.00  0.00    +0.000 A 
BRANCH  36  37
ATOM     37  O   UNL     1     -19.852   0.333  19.851  0.00  0.00    +0.000 OA
ATOM     38  C   UNL     1     -21.134   0.080  20.358  0.00  0.00    +0.000 C 
ENDBRANCH  36  37
BRANCH  35  39
ATOM     39  O   UNL     1     -19.657   2.723  18.709  0.00  0.00    +0.000 OA
BRANCH  39  40
ATOM     40  C   UNL     1     -19.028   3.528  17.857  0.00  0.00    +0.000 C 
ATOM     41  C   UNL     1     -18.295   4.442  16.868  0.00  0.00    +0.000 C 
BRANCH  41  42
ATOM     42  C   UNL     1     -17.563   5.351  15.875  0.00  0.00    +0.000 C 
BRANCH  42  43
ATOM     43  N   UNL     1     -16.868   6.214  14.931  0.00  0.00    +0.000 N 
ATOM     44  C   UNL     1     -16.488   7.452  15.677  0.00  0.00    +0.000 C 
ATOM     45  C   UNL     1     -15.068   7.937  16.115  0.00  0.00    +0.000 C 
ATOM     46  O   UNL     1     -13.816   7.446  15.988  0.00  0.00    +0.000 OA
ATOM     47  C   UNL     1     -14.157   6.326  15.319  0.00  0.00    +0.000 C 
ATOM     48  C   UNL     1     -15.479   5.680  14.802  0.00  0.00    +0.000 C 
ENDBRANCH  42  43
ENDBRANCH  41  42
ENDBRANCH  39  40
ENDBRANCH  35  39
ENDBRANCH  26  27
ENDBRANCH   7  26
TORSDOF 11
ENDMDL
MODEL 2
REMARK VINA RESULT:      -6.6      3.219      3.959
REMARK  Name = Foretinib.pdbqt.pdb
REMARK  11 active torsions:
REMARK  status: ('A' for Active; 'I' for Inactive)
REMARK    1  A    between atoms: C_2  and  N_31
REMARK    2  A    between atoms: C_7  and  O_8
REMARK    3  A    between atoms: O_8  and  C_9
REMARK    4  A    between atoms: C_17  and  O_19
REMARK    5  A    between atoms: C_18  and  O_29
REMARK    6  A    between atoms: O_19  and  C_20
REMARK    7  A    between atoms: C_21  and  C_22
REMARK    8  A    between atoms: C_22  and  N_23
REMARK    9  A    between atoms: C_32  and  C_35
REMARK   10  A    between atoms: C_35  and  C_38
REMARK   11  A    between atoms: N_40  and  C_42
REMARK                            x       y       z     vdW  Elec       q    Type
REMARK                         _______ _______ _______ _____ _____    ______ ____
ROOT
ATOM      1  F   UNL     1     -18.242  -0.050  21.377  0.00  0.00    +0.000 F 
ATOM      2  C   UNL     1     -15.284  -0.388  23.451  0.00  0.00    +0.000 A 
ATOM      3  C   UNL     1     -16.222  -0.620  22.445  0.00  0.00    +0.000 A 
ATOM      4  C   UNL     1     -15.474   0.675  24.338  0.00  0.00    +0.000 A 
ATOM      5  C   UNL     1     -17.333   0.209  22.329  0.00  0.00    +0.000 A 
ATOM      6  C   UNL     1     -16.588   1.503  24.222  0.00  0.00    +0.000 A 
ATOM      7  C   UNL     1     -17.508   1.285  23.200  0.00  0.00    +0.000 A 
ENDROOT
BRANCH   2   8
ATOM      8  N   UNL     1     -14.139  -1.187  23.626  0.00  0.00    +0.000 N 
ATOM      9  C   UNL     1     -12.829  -0.752  23.504  0.00  0.00    +0.000 C 
ATOM     10  O   UNL     1     -12.467   0.378  23.202  0.00  0.00    +0.000 OA
ATOM     11  H   UNL     1     -14.295  -2.172  23.818  0.00  0.00    +0.000 HD
BRANCH   9  12
ATOM     12  C   UNL     1     -11.796  -1.819  23.719  0.00  0.00    +0.000 C 
ATOM     13  C   UNL     1     -11.688  -2.400  25.052  0.00  0.00    +0.000 C 
ATOM     14  C   UNL     1     -10.640  -1.479  24.540  0.00  0.00    +0.000 C 
BRANCH  12  15
ATOM     15  C   UNL     1     -11.590  -2.737  22.551  0.00  0.00    +0.000 C 
ATOM     16  O   UNL     1     -12.442  -3.584  22.308  0.00  0.00    +0.000 OA
ATOM     17  N   UNL     1     -10.444  -2.492  21.814  0.00  0.00    +0.000 N 
ATOM     18  H   UNL     1      -9.853  -1.717  22.099  0.00  0.00    +0.000 HD
BRANCH  17  19
ATOM     19  C   UNL     1     -10.040  -3.205  20.671  0.00  0.00    +0.000 A 
ATOM     20  C   UNL     1     -10.526  -2.778  19.433  0.00  0.00    +0.000 A 
ATOM     21  C   UNL     1     -10.163  -3.444  18.265  0.00  0.00    +0.000 A 
ATOM     22  C   UNL     1      -9.309  -4.538  18.343  0.00  0.00    +0.000 A 
ATOM     23  F   UNL     1      -8.955  -5.178  17.221  0.00  0.00    +0.000 F 
ATOM     24  C   UNL     1      -8.813  -4.975  19.566  0.00  0.00    +0.000 A 
ATOM     25  C   UNL     1      -9.183  -4.305  20.729  0.00  0.00    +0.000 A 
ENDBRANCH  17  19
ENDBRANCH  12  15
ENDBRANCH   9  12
ENDBRANCH   2   8
BRANCH   7  26
ATOM     26  O   UNL     1     -18.619   2.092  23.173  0.00  0.00    +0.000 OA
BRANCH  26  27
ATOM     27  C   UNL     1     -18.696   3.027  22.160  0.00  0.00    +0.000 A 
ATOM     28  C   UNL     1     -19.803   2.978  21.298  0.00  0.00    +0.000 A 
ATOM     29  C   UNL     1     -19.904   3.967  20.304  0.00  0.00    +0.000 A 
ATOM     30  C   UNL     1     -20.789   1.984  21.393  0.00  0.00    +0.000 A 
ATOM     31  N   UNL     1     -18.994   4.944  20.169  0.00  0.00    +0.000 NA
ATOM     32  C   UNL     1     -20.991   3.919  19.445  0.00  0.00    +0.000 A 
ATOM     33  C   UNL     1     -17.950   4.964  21.027  0.00  0.00    +0.000 A 
ATOM     34  C   UNL     1     -17.758   4.046  22.038  0.00  0.00    +0.000 A 
ATOM     35  C   UNL     1     -21.980   2.931  19.536  0.00  0.00    +0.000 A 
ATOM     36  C   UNL     1     -21.879   1.948  20.522  0.00  0.00    +0.000 A 
BRANCH  36  37
ATOM     37  O   UNL     1     -22.870   0.997  20.565  0.00  0.00    +0.000 OA
ATOM     38  C   UNL     1     -22.519  -0.268  20.073  0.00  0.00    +0.000 C 
ENDBRANCH  36  37
BRANCH  35  39
ATOM     39  O   UNL     1     -23.062   2.866  18.689  0.00  0.00    +0.000 OA
BRANCH  39  40
ATOM     40  C   UNL     1     -22.770   2.973  17.395  0.00  0.00    +0.000 C 
ATOM     41  C   UNL     1     -22.446   3.109  15.903  0.00  0.00    +0.000 C 
BRANCH  41  42
ATOM     42  C   UNL     1     -22.121   3.252  14.412  0.00  0.00    +0.000 C 
BRANCH  42  43
ATOM     43  N   UNL     1     -21.814   3.389  12.996  0.00  0.00    +0.000 N 
ATOM     44  C   UNL     1     -20.331   3.544  12.890  0.00  0.00    +0.000 C 
ATOM     45  C   UNL     1     -19.278   2.539  12.320  0.00  0.00    +0.000 C 
ATOM     46  O   UNL     1     -19.340   1.299  11.786  0.00  0.00    +0.000 OA
ATOM     47  C   UNL     1     -20.677   1.156  11.887  0.00  0.00    +0.000 C 
ATOM     48  C   UNL     1     -21.867   2.017  12.409  0.00  0.00    +0.000 C 
ENDBRANCH  42  43
ENDBRANCH  41  42
ENDBRANCH  39  40
ENDBRANCH  35  39
ENDBRANCH  26  27
ENDBRANCH   7  26
TORSDOF 11
ENDMDL
MODEL 3
REMARK VINA RESULT:      -6.6      2.425      3.590
REMARK  Name = Foretinib.pdbqt.pdb
REMARK  11 active torsions:
REMARK  status: ('A' for Active; 'I' for Inactive)
REMARK    1  A    between atoms: C_2  and  N_31
REMARK    2  A    between atoms: C_7  and  O_8
REMARK    3  A    between atoms: O_8  and  C_9
REMARK    4  A    between atoms: C_17  and  O_19
REMARK    5  A    between atoms: C_18  and  O_29
REMARK    6  A    between atoms: O_19  and  C_20
REMARK    7  A    between atoms: C_21  and  C_22
REMARK    8  A    between atoms: C_22  and  N_23
REMARK    9  A    between atoms: C_32  and  C_35
REMARK   10  A    between atoms: C_35  and  C_38
REMARK   11  A    between atoms: N_40  and  C_42
REMARK                            x       y       z     vdW  Elec       q    Type
REMARK                         _______ _______ _______ _____ _____    ______ ____
ROOT
ATOM      1  F   UNL     1     -12.860   1.348  23.737  0.00  0.00    +0.000 F 
ATOM      2  C   UNL     1     -12.485  -2.225  24.242  0.00  0.00    +0.000 A 
ATOM      3  C   UNL     1     -12.239  -0.922  23.809  0.00  0.00    +0.000 A 
ATOM      4  C   UNL     1     -13.592  -2.484  25.053  0.00  0.00    +0.000 A 
ATOM      5  C   UNL     1     -13.093   0.108  24.191  0.00  0.00    +0.000 A 
ATOM      6  C   UNL     1     -14.448  -1.452  25.434  0.00  0.00    +0.000 A 
ATOM      7  C   UNL     1     -14.184  -0.148  25.021  0.00  0.00    +0.000 A 
ENDROOT
BRANCH   2   8
ATOM      8  N   UNL     1     -11.663  -3.313  23.893  0.00  0.00    +0.000 N 
ATOM      9  C   UNL     1     -10.296  -3.387  24.100  0.00  0.00    +0.000 C 
ATOM     10  O   UNL     1      -9.590  -2.514  24.591  0.00  0.00    +0.000 OA
ATOM     11  H   UNL     1     -12.112  -4.088  23.413  0.00  0.00    +0.000 HD
BRANCH   9  12
ATOM     12  C   UNL     1      -9.658  -4.654  23.610  0.00  0.00    +0.000 C 
ATOM     13  C   UNL     1      -9.547  -5.765  24.548  0.00  0.00    +0.000 C 
ATOM     14  C   UNL     1      -8.343  -4.994  24.141  0.00  0.00    +0.000 C 
BRANCH  12  15
ATOM     15  C   UNL     1      -9.953  -4.991  22.179  0.00  0.00    +0.000 C 
ATOM     16  O   UNL     1     -10.997  -5.574  21.912  0.00  0.00    +0.000 OA
ATOM     17  N   UNL     1      -9.005  -4.548  21.271  0.00  0.00    +0.000 N 
ATOM     18  H   UNL     1      -8.212  -4.026  21.629  0.00  0.00    +0.000 HD
BRANCH  17  19
ATOM     19  C   UNL     1      -9.063  -4.729  19.877  0.00  0.00    +0.000 A 
ATOM     20  C   UNL     1      -8.327  -5.780  19.327  0.00  0.00    +0.000 A 
ATOM     21  C   UNL     1      -8.344  -6.011  17.954  0.00  0.00    +0.000 A 
ATOM     22  C   UNL     1      -9.103  -5.182  17.134  0.00  0.00    +0.000 A 
ATOM     23  F   UNL     1      -9.122  -5.403  15.813  0.00  0.00    +0.000 F 
ATOM     24  C   UNL     1      -9.843  -4.132  17.664  0.00  0.00    +0.000 A 
ATOM     25  C   UNL     1      -9.820  -3.909  19.038  0.00  0.00    +0.000 A 
ENDBRANCH  17  19
ENDBRANCH  12  15
ENDBRANCH   9  12
ENDBRANCH   2   8
BRANCH   7  26
ATOM     26  O   UNL     1     -15.096   0.817  25.373  0.00  0.00    +0.000 OA
BRANCH  26  27
ATOM     27  C   UNL     1     -16.081   1.119  24.453  0.00  0.00    +0.000 A 
ATOM     28  C   UNL     1     -16.120   2.421  23.930  0.00  0.00    +0.000 A 
ATOM     29  C   UNL     1     -17.089   2.706  22.953  0.00  0.00    +0.000 A 
ATOM     30  C   UNL     1     -15.240   3.430  24.353  0.00  0.00    +0.000 A 
ATOM     31  N   UNL     1     -17.953   1.780  22.507  0.00  0.00    +0.000 NA
ATOM     32  C   UNL     1     -17.137   3.993  22.438  0.00  0.00    +0.000 A 
ATOM     33  C   UNL     1     -17.874   0.534  23.026  0.00  0.00    +0.000 A 
ATOM     34  C   UNL     1     -16.960   0.149  23.985  0.00  0.00    +0.000 A 
ATOM     35  C   UNL     1     -16.261   5.003  22.854  0.00  0.00    +0.000 A 
ATOM     36  C   UNL     1     -15.299   4.720  23.825  0.00  0.00    +0.000 A 
BRANCH  36  37
ATOM     37  O   UNL     1     -14.468   5.747  24.204  0.00  0.00    +0.000 OA
ATOM     38  C   UNL     1     -13.170   5.372  24.576  0.00  0.00    +0.000 C 
ENDBRANCH  36  37
BRANCH  35  39
ATOM     39  O   UNL     1     -16.298   6.285  22.357  0.00  0.00    +0.000 OA
BRANCH  39  40
ATOM     40  C   UNL     1     -16.080   6.388  21.048  0.00  0.00    +0.000 C 
ATOM     41  C   UNL     1     -15.832   6.489  19.539  0.00  0.00    +0.000 C 
BRANCH  41  42
ATOM     42  C   UNL     1     -15.589   6.587  18.029  0.00  0.00    +0.000 C 
BRANCH  42  43
ATOM     43  N   UNL     1     -15.361   6.679  16.594  0.00  0.00    +0.000 N 
ATOM     44  C   UNL     1     -15.474   5.292  16.049  0.00  0.00    +0.000 C 
ATOM     45  C   UNL     1     -16.591   4.684  15.140  0.00  0.00    +0.000 C 
ATOM     46  O   UNL     1     -17.732   5.156  14.593  0.00  0.00    +0.000 OA
ATOM     47  C   UNL     1     -17.634   6.406  15.088  0.00  0.00    +0.000 C 
ATOM     48  C   UNL     1     -16.628   7.187  15.988  0.00  0.00    +0.000 C 
ENDBRANCH  42  43
ENDBRANCH  41  42
ENDBRANCH  39  40
ENDBRANCH  35  39
ENDBRANCH  26  27
ENDBRANCH   7  26
TORSDOF 11
ENDMDL
MODEL 4
REMARK VINA RESULT:      -6.5      7.365     11.731
REMARK  Name = Foretinib.pdbqt.pdb
REMARK  11 active torsions:
REMARK  status: ('A' for Active; 'I' for Inactive)
REMARK    1  A    between atoms: C_2  and  N_31
REMARK    2  A    between atoms: C_7  and  O_8
REMARK    3  A    between atoms: O_8  and  C_9
REMARK    4  A    between atoms: C_17  and  O_19
REMARK    5  A    between atoms: C_18  and  O_29
REMARK    6  A    between atoms: O_19  and  C_20
REMARK    7  A    between atoms: C_21  and  C_22
REMARK    8  A    between atoms: C_22  and  N_23
REMARK    9  A    between atoms: C_32  and  C_35
REMARK   10  A    between atoms: C_35  and  C_38
REMARK   11  A    between atoms: N_40  and  C_42
REMARK                            x       y       z     vdW  Elec       q    Type
REMARK                         _______ _______ _______ _____ _____    ______ ____
ROOT
ATOM      1  F   UNL     1      -9.875  -8.750  25.752  0.00  0.00    +0.000 F 
ATOM      2  C   UNL     1     -10.741  -5.292  25.076  0.00  0.00    +0.000 A 
ATOM      3  C   UNL     1     -10.085  -6.522  25.020  0.00  0.00    +0.000 A 
ATOM      4  C   UNL     1     -11.846  -5.138  25.916  0.00  0.00    +0.000 A 
ATOM      5  C   UNL     1     -10.539  -7.585  25.794  0.00  0.00    +0.000 A 
ATOM      6  C   UNL     1     -12.299  -6.203  26.693  0.00  0.00    +0.000 A 
ATOM      7  C   UNL     1     -11.658  -7.438  26.614  0.00  0.00    +0.000 A 
ENDROOT
BRANCH   2   8
ATOM      8  N   UNL     1     -10.335  -4.176  24.321  0.00  0.00    +0.000 N 
ATOM      9  C   UNL     1     -11.015  -3.650  23.234  0.00  0.00    +0.000 C 
ATOM     10  O   UNL     1     -12.051  -4.087  22.749  0.00  0.00    +0.000 OA
ATOM     11  H   UNL     1      -9.449  -3.750  24.577  0.00  0.00    +0.000 HD
BRANCH   9  12
ATOM     12  C   UNL     1     -10.347  -2.468  22.595  0.00  0.00    +0.000 C 
ATOM     13  C   UNL     1      -9.688  -1.505  23.470  0.00  0.00    +0.000 C 
ATOM     14  C   UNL     1     -10.964  -1.161  22.790  0.00  0.00    +0.000 C 
BRANCH  12  15
ATOM     15  C   UNL     1      -9.697  -2.754  21.274  0.00  0.00    +0.000 C 
ATOM     16  O   UNL     1      -8.872  -1.959  20.838  0.00  0.00    +0.000 OA
ATOM     17  N   UNL     1     -10.070  -3.952  20.690  0.00  0.00    +0.000 N 
ATOM     18  H   UNL     1     -10.725  -4.543  21.193  0.00  0.00    +0.000 HD
BRANCH  17  19
ATOM     19  C   UNL     1      -9.589  -4.447  19.464  0.00  0.00    +0.000 A 
ATOM     20  C   UNL     1      -8.584  -5.415  19.503  0.00  0.00    +0.000 A 
ATOM     21  C   UNL     1      -8.067  -5.944  18.323  0.00  0.00    +0.000 A 
ATOM     22  C   UNL     1      -8.564  -5.498  17.103  0.00  0.00    +0.000 A 
ATOM     23  F   UNL     1      -8.070  -6.006  15.966  0.00  0.00    +0.000 F 
ATOM     24  C   UNL     1      -9.566  -4.537  17.044  0.00  0.00    +0.000 A 
ATOM     25  C   UNL     1     -10.077  -4.013  18.229  0.00  0.00    +0.000 A 
ENDBRANCH  17  19
ENDBRANCH  12  15
ENDBRANCH   9  12
ENDBRANCH   2   8
BRANCH   7  26
ATOM     26  O   UNL     1     -12.107  -8.431  27.449  0.00  0.00    +0.000 OA
BRANCH  26  27
ATOM     27  C   UNL     1     -13.131  -9.233  26.983  0.00  0.00    +0.000 A 
ATOM     28  C   UNL     1     -14.315  -9.296  27.734  0.00  0.00    +0.000 A 
ATOM     29  C   UNL     1     -15.373 -10.068  27.226  0.00  0.00    +0.000 A 
ATOM     30  C   UNL     1     -14.466  -8.628  28.960  0.00  0.00    +0.000 A 
ATOM     31  N   UNL     1     -15.287 -10.724  26.058  0.00  0.00    +0.000 NA
ATOM     32  C   UNL     1     -16.543 -10.140  27.968  0.00  0.00    +0.000 A 
ATOM     33  C   UNL     1     -14.135 -10.627  25.358  0.00  0.00    +0.000 A 
ATOM     34  C   UNL     1     -13.039  -9.894  25.763  0.00  0.00    +0.000 A 
ATOM     35  C   UNL     1     -16.701  -9.475  29.190  0.00  0.00    +0.000 A 
ATOM     36  C   UNL     1     -15.649  -8.709  29.695  0.00  0.00    +0.000 A 
BRANCH  36  37
ATOM     37  O   UNL     1     -15.852  -8.082  30.902  0.00  0.00    +0.000 OA
ATOM     38  C   UNL     1     -14.698  -7.599  31.535  0.00  0.00    +0.000 C 
ENDBRANCH  36  37
BRANCH  35  39
ATOM     39  O   UNL     1     -17.852  -9.540  29.940  0.00  0.00    +0.000 OA
BRANCH  39  40
ATOM     40  C   UNL     1     -18.930  -9.015  29.363  0.00  0.00    +0.000 C 
ATOM     41  C   UNL     1     -20.181  -8.425  28.701  0.00  0.00    +0.000 C 
BRANCH  41  42
ATOM     42  C   UNL     1     -21.435  -7.839  28.044  0.00  0.00    +0.000 C 
BRANCH  42  43
ATOM     43  N   UNL     1     -22.626  -7.282  27.419  0.00  0.00    +0.000 N 
ATOM     44  C   UNL     1     -22.302  -5.869  27.056  0.00  0.00    +0.000 C 
ATOM     45  C   UNL     1     -22.099  -5.243  25.638  0.00  0.00    +0.000 C 
ATOM     46  O   UNL     1     -22.137  -5.721  24.374  0.00  0.00    +0.000 OA
ATOM     47  C   UNL     1     -22.423  -6.997  24.701  0.00  0.00    +0.000 C 
ATOM     48  C   UNL     1     -22.659  -7.799  26.018  0.00  0.00    +0.000 C 
ENDBRANCH  42  43
ENDBRANCH  41  42
ENDBRANCH  39  40
ENDBRANCH  35  39
ENDBRANCH  26  27
ENDBRANCH   7  26
TORSDOF 11
ENDMDL
MODEL 5
REMARK VINA RESULT:      -6.5     15.142     20.618
REMARK  Name = Foretinib.pdbqt.pdb
REMARK  11 active torsions:
REMARK  status: ('A' for Active; 'I' for Inactive)
REMARK    1  A    between atoms: C_2  and  N_31
REMARK    2  A    between atoms: C_7  and  O_8
REMARK    3  A    between atoms: O_8  and  C_9
REMARK    4  A    between atoms: C_17  and  O_19
REMARK    5  A    between atoms: C_18  and  O_29
REMARK    6  A    between atoms: O_19  and  C_20
REMARK    7  A    between atoms: C_21  and  C_22
REMARK    8  A    between atoms: C_22  and  N_23
REMARK    9  A    between atoms: C_32  and  C_35
REMARK   10  A    between atoms: C_35  and  C_38
REMARK   11  A    between atoms: N_40  and  C_42
REMARK                            x       y       z     vdW  Elec       q    Type
REMARK                         _______ _______ _______ _____ _____    ______ ____
ROOT
ATOM      1  F   UNL     1      -6.671   8.150   9.320  0.00  0.00    +0.000 F 
ATOM      2  C   UNL     1      -8.638   5.896   7.266  0.00  0.00    +0.000 A 
ATOM      3  C   UNL     1      -8.297   6.963   8.099  0.00  0.00    +0.000 A 
ATOM      4  C   UNL     1      -7.645   5.011   6.840  0.00  0.00    +0.000 A 
ATOM      5  C   UNL     1      -6.974   7.139   8.492  0.00  0.00    +0.000 A 
ATOM      6  C   UNL     1      -6.321   5.187   7.236  0.00  0.00    +0.000 A 
ATOM      7  C   UNL     1      -5.980   6.269   8.045  0.00  0.00    +0.000 A 
ENDROOT
BRANCH   2   8
ATOM      8  N   UNL     1      -9.955   5.658   6.832  0.00  0.00    +0.000 N 
ATOM      9  C   UNL     1     -10.846   6.627   6.400  0.00  0.00    +0.000 C 
ATOM     10  O   UNL     1     -10.638   7.833   6.355  0.00  0.00    +0.000 OA
ATOM     11  H   UNL     1     -10.285   4.699   6.879  0.00  0.00    +0.000 HD
BRANCH   9  12
ATOM     12  C   UNL     1     -12.198   6.102   6.014  0.00  0.00    +0.000 C 
ATOM     13  C   UNL     1     -12.306   4.687   5.676  0.00  0.00    +0.000 C 
ATOM     14  C   UNL     1     -12.400   5.727   4.619  0.00  0.00    +0.000 C 
BRANCH  12  15
ATOM     15  C   UNL     1     -13.346   6.720   6.755  0.00  0.00    +0.000 C 
ATOM     16  O   UNL     1     -13.916   6.061   7.617  0.00  0.00    +0.000 OA
ATOM     17  N   UNL     1     -13.619   8.034   6.412  0.00  0.00    +0.000 N 
ATOM     18  H   UNL     1     -13.026   8.476   5.716  0.00  0.00    +0.000 HD
BRANCH  17  19
ATOM     19  C   UNL     1     -14.633   8.830   6.974  0.00  0.00    +0.000 A 
ATOM     20  C   UNL     1     -14.345   9.508   8.160  0.00  0.00    +0.000 A 
ATOM     21  C   UNL     1     -15.308  10.312   8.765  0.00  0.00    +0.000 A 
ATOM     22  C   UNL     1     -16.560  10.435   8.174  0.00  0.00    +0.000 A 
ATOM     23  F   UNL     1     -17.488  11.209   8.753  0.00  0.00    +0.000 F 
ATOM     24  C   UNL     1     -16.865   9.769   6.992  0.00  0.00    +0.000 A 
ATOM     25  C   UNL     1     -15.896   8.966   6.395  0.00  0.00    +0.000 A 
ENDBRANCH  17  19
ENDBRANCH  12  15
ENDBRANCH   9  12
ENDBRANCH   2   8
BRANCH   7  26
ATOM     26  O   UNL     1      -4.673   6.356   8.457  0.00  0.00    +0.000 OA
BRANCH  26  27
ATOM     27  C   UNL     1      -4.157   5.282   9.154  0.00  0.00    +0.000 A 
ATOM     28  C   UNL     1      -3.086   4.576   8.584  0.00  0.00    +0.000 A 
ATOM     29  C   UNL     1      -2.529   3.520   9.325  0.00  0.00    +0.000 A 
ATOM     30  C   UNL     1      -2.568   4.886   7.317  0.00  0.00    +0.000 A 
ATOM     31  N   UNL     1      -2.979   3.182  10.544  0.00  0.00    +0.000 NA
ATOM     32  C   UNL     1      -1.475   2.814   8.764  0.00  0.00    +0.000 A 
ATOM     33  C   UNL     1      -4.004   3.894  11.063  0.00  0.00    +0.000 A 
ATOM     34  C   UNL     1      -4.619   4.950  10.423  0.00  0.00    +0.000 A 
ATOM     35  C   UNL     1      -0.953   3.120   7.501  0.00  0.00    +0.000 A 
ATOM     36  C   UNL     1      -1.506   4.168   6.765  0.00  0.00    +0.000 A 
BRANCH  36  37
ATOM     37  O   UNL     1      -0.964   4.423   5.528  0.00  0.00    +0.000 OA
ATOM     38  C   UNL     1      -1.538   5.488   4.821  0.00  0.00    +0.000 C 
ENDBRANCH  36  37
BRANCH  35  39
ATOM     39  O   UNL     1       0.089   2.427   6.928  0.00  0.00    +0.000 OA
BRANCH  39  40
ATOM     40  C   UNL     1      -0.258   1.306   6.302  0.00  0.00    +0.000 C 
ATOM     41  C   UNL     1      -0.666   0.009   5.594  0.00  0.00    +0.000 C 
BRANCH  41  42
ATOM     42  C   UNL     1      -1.080  -1.288   4.890  0.00  0.00    +0.000 C 
BRANCH  42  43
ATOM     43  N   UNL     1      -1.475  -2.519   4.220  0.00  0.00    +0.000 N 
ATOM     44  C   UNL     1      -2.814  -2.265   3.606  0.00  0.00    +0.000 C 
ATOM     45  C   UNL     1      -3.190  -2.128   2.094  0.00  0.00    +0.000 C 
ATOM     46  O   UNL     1      -2.498  -2.180   0.935  0.00  0.00    +0.000 OA
ATOM     47  C   UNL     1      -1.288  -2.403   1.488  0.00  0.00    +0.000 C 
ATOM     48  C   UNL     1      -0.721  -2.568   2.931  0.00  0.00    +0.000 C 
ENDBRANCH  42  43
ENDBRANCH  41  42
ENDBRANCH  39  40
ENDBRANCH  35  39
ENDBRANCH  26  27
ENDBRANCH   7  26
TORSDOF 11
ENDMDL
MODEL 6
REMARK VINA RESULT:      -6.5      9.030     17.312
REMARK  Name = Foretinib.pdbqt.pdb
REMARK  11 active torsions:
REMARK  status: ('A' for Active; 'I' for Inactive)
REMARK    1  A    between atoms: C_2  and  N_31
REMARK    2  A    between atoms: C_7  and  O_8
REMARK    3  A    between atoms: O_8  and  C_9
REMARK    4  A    between atoms: C_17  and  O_19
REMARK    5  A    between atoms: C_18  and  O_29
REMARK    6  A    between atoms: O_19  and  C_20
REMARK    7  A    between atoms: C_21  and  C_22
REMARK    8  A    between atoms: C_22  and  N_23
REMARK    9  A    between atoms: C_32  and  C_35
REMARK   10  A    between atoms: C_35  and  C_38
REMARK   11  A    between atoms: N_40  and  C_42
REMARK                            x       y       z     vdW  Elec       q    Type
REMARK                         _______ _______ _______ _____ _____    ______ ____
ROOT
ATOM      1  F   UNL     1      -7.059  -4.631  29.829  0.00  0.00    +0.000 F 
ATOM      2  C   UNL     1      -8.552  -5.592  26.664  0.00  0.00    +0.000 A 
ATOM      3  C   UNL     1      -8.237  -4.847  27.801  0.00  0.00    +0.000 A 
ATOM      4  C   UNL     1      -7.949  -6.836  26.468  0.00  0.00    +0.000 A 
ATOM      5  C   UNL     1      -7.324  -5.345  28.726  0.00  0.00    +0.000 A 
ATOM      6  C   UNL     1      -7.036  -7.335  27.395  0.00  0.00    +0.000 A 
ATOM      7  C   UNL     1      -6.704  -6.577  28.515  0.00  0.00    +0.000 A 
ENDROOT
BRANCH   2   8
ATOM      8  N   UNL     1      -9.466  -5.149  25.691  0.00  0.00    +0.000 N 
ATOM      9  C   UNL     1      -9.134  -4.682  24.430  0.00  0.00    +0.000 C 
ATOM     10  O   UNL     1      -8.003  -4.559  23.978  0.00  0.00    +0.000 OA
ATOM     11  H   UNL     1     -10.446  -5.135  25.958  0.00  0.00    +0.000 HD
BRANCH   9  12
ATOM     12  C   UNL     1     -10.306  -4.249  23.597  0.00  0.00    +0.000 C 
ATOM     13  C   UNL     1     -10.810  -2.894  23.788  0.00  0.00    +0.000 C 
ATOM     14  C   UNL     1     -11.582  -4.065  24.278  0.00  0.00    +0.000 C 
BRANCH  12  15
ATOM     15  C   UNL     1     -10.320  -4.797  22.202  0.00  0.00    +0.000 C 
ATOM     16  O   UNL     1     -11.074  -5.728  21.941  0.00  0.00    +0.000 OA
ATOM     17  N   UNL     1      -9.490  -4.139  21.310  0.00  0.00    +0.000 N 
ATOM     18  H   UNL     1      -8.960  -3.344  21.653  0.00  0.00    +0.000 HD
BRANCH  17  19
ATOM     19  C   UNL     1      -9.341  -4.456  19.948  0.00  0.00    +0.000 A 
ATOM     20  C   UNL     1      -8.490  -5.512  19.616  0.00  0.00    +0.000 A 
ATOM     21  C   UNL     1      -8.300  -5.874  18.285  0.00  0.00    +0.000 A 
ATOM     22  C   UNL     1      -8.968  -5.172  17.288  0.00  0.00    +0.000 A 
ATOM     23  F   UNL     1      -8.790  -5.520  16.006  0.00  0.00    +0.000 F 
ATOM     24  C   UNL     1      -9.821  -4.120  17.599  0.00  0.00    +0.000 A 
ATOM     25  C   UNL     1     -10.004  -3.764  18.933  0.00  0.00    +0.000 A 
ENDBRANCH  17  19
ENDBRANCH  12  15
ENDBRANCH   9  12
ENDBRANCH   2   8
BRANCH   7  26
ATOM     26  O   UNL     1      -5.848  -7.146  29.426  0.00  0.00    +0.000 OA
BRANCH  26  27
ATOM     27  C   UNL     1      -4.494  -7.008  29.192  0.00  0.00    +0.000 A 
ATOM     28  C   UNL     1      -3.655  -8.088  29.508  0.00  0.00    +0.000 A 
ATOM     29  C   UNL     1      -2.286  -7.962  29.215  0.00  0.00    +0.000 A 
ATOM     30  C   UNL     1      -4.134  -9.265  30.104  0.00  0.00    +0.000 A 
ATOM     31  N   UNL     1      -1.773  -6.863  28.641  0.00  0.00    +0.000 NA
ATOM     32  C   UNL     1      -1.452  -9.023  29.532  0.00  0.00    +0.000 A 
ATOM     33  C   UNL     1      -2.616  -5.850  28.340  0.00  0.00    +0.000 A 
ATOM     34  C   UNL     1      -3.974  -5.872  28.582  0.00  0.00    +0.000 A 
ATOM     35  C   UNL     1      -1.923 -10.202  30.125  0.00  0.00    +0.000 A 
ATOM     36  C   UNL     1      -3.283 -10.326  30.417  0.00  0.00    +0.000 A 
BRANCH  36  37
ATOM     37  O   UNL     1      -3.695 -11.498  31.005  0.00  0.00    +0.000 OA
ATOM     38  C   UNL     1      -4.193 -11.380  32.310  0.00  0.00    +0.000 C 
ENDBRANCH  36  37
BRANCH  35  39
ATOM     39  O   UNL     1      -1.109 -11.261  30.450  0.00  0.00    +0.000 OA
BRANCH  39  40
ATOM     40  C   UNL     1      -0.014 -11.379  29.702  0.00  0.00    +0.000 C 
ATOM     41  C   UNL     1       1.256 -11.519  28.856  0.00  0.00    +0.000 C 
BRANCH  41  42
ATOM     42  C   UNL     1       2.527 -11.664  28.012  0.00  0.00    +0.000 C 
BRANCH  42  43
ATOM     43  N   UNL     1       3.734 -11.804  27.210  0.00  0.00    +0.000 N 
ATOM     44  C   UNL     1       3.293 -12.135  25.821  0.00  0.00    +0.000 C 
ATOM     45  C   UNL     1       3.362 -11.252  24.533  0.00  0.00    +0.000 C 
ATOM     46  O   UNL     1       3.796 -10.002  24.261  0.00  0.00    +0.000 OA
ATOM     47  C   UNL     1       4.189  -9.699  25.515  0.00  0.00    +0.000 C 
ATOM     48  C   UNL     1       4.205 -10.421  26.897  0.00  0.00    +0.000 C 
ENDBRANCH  42  43
ENDBRANCH  41  42
ENDBRANCH  39  40
ENDBRANCH  35  39
ENDBRANCH  26  27
ENDBRANCH   7  26
TORSDOF 11
ENDMDL
MODEL 7
REMARK VINA RESULT:      -6.4      8.749     15.429
REMARK  Name = Foretinib.pdbqt.pdb
REMARK  11 active torsions:
REMARK  status: ('A' for Active; 'I' for Inactive)
REMARK    1  A    between atoms: C_2  and  N_31
REMARK    2  A    between atoms: C_7  and  O_8
REMARK    3  A    between atoms: O_8  and  C_9
REMARK    4  A    between atoms: C_17  and  O_19
REMARK    5  A    between atoms: C_18  and  O_29
REMARK    6  A    between atoms: O_19  and  C_20
REMARK    7  A    between atoms: C_21  and  C_22
REMARK    8  A    between atoms: C_22  and  N_23
REMARK    9  A    between atoms: C_32  and  C_35
REMARK   10  A    between atoms: C_35  and  C_38
REMARK   11  A    between atoms: N_40  and  C_42
REMARK                            x       y       z     vdW  Elec       q    Type
REMARK                         _______ _______ _______ _____ _____    ______ ____
ROOT
ATOM      1  F   UNL     1      -9.963  -9.681  25.814  0.00  0.00    +0.000 F 
ATOM      2  C   UNL     1      -8.369  -6.426  25.972  0.00  0.00    +0.000 A 
ATOM      3  C   UNL     1      -9.090  -7.518  25.490  0.00  0.00    +0.000 A 
ATOM      4  C   UNL     1      -7.854  -6.458  27.270  0.00  0.00    +0.000 A 
ATOM      5  C   UNL     1      -9.296  -8.626  26.305  0.00  0.00    +0.000 A 
ATOM      6  C   UNL     1      -8.060  -7.570  28.085  0.00  0.00    +0.000 A 
ATOM      7  C   UNL     1      -8.804  -8.647  27.610  0.00  0.00    +0.000 A 
ENDROOT
BRANCH   2   8
ATOM      8  N   UNL     1      -8.122  -5.274  25.201  0.00  0.00    +0.000 N 
ATOM      9  C   UNL     1      -9.046  -4.638  24.389  0.00  0.00    +0.000 C 
ATOM     10  O   UNL     1     -10.203  -4.989  24.196  0.00  0.00    +0.000 OA
ATOM     11  H   UNL     1      -7.174  -4.909  25.216  0.00  0.00    +0.000 HD
BRANCH   9  12
ATOM     12  C   UNL     1      -8.513  -3.441  23.657  0.00  0.00    +0.000 C 
ATOM     13  C   UNL     1      -7.652  -2.523  24.394  0.00  0.00    +0.000 C 
ATOM     14  C   UNL     1      -9.040  -2.134  24.032  0.00  0.00    +0.000 C 
BRANCH  12  15
ATOM     15  C   UNL     1      -8.182  -3.684  22.215  0.00  0.00    +0.000 C 
ATOM     16  O   UNL     1      -7.054  -3.418  21.815  0.00  0.00    +0.000 OA
ATOM     17  N   UNL     1      -9.204  -4.250  21.471  0.00  0.00    +0.000 N 
ATOM     18  H   UNL     1     -10.073  -4.470  21.949  0.00  0.00    +0.000 HD
BRANCH  17  19
ATOM     19  C   UNL     1      -9.133  -4.583  20.107  0.00  0.00    +0.000 A 
ATOM     20  C   UNL     1      -9.854  -3.796  19.207  0.00  0.00    +0.000 A 
ATOM     21  C   UNL     1      -9.824  -4.075  17.843  0.00  0.00    +0.000 A 
ATOM     22  C   UNL     1      -9.066  -5.147  17.385  0.00  0.00    +0.000 A 
ATOM     23  F   UNL     1      -9.034  -5.417  16.073  0.00  0.00    +0.000 F 
ATOM     24  C   UNL     1      -8.339  -5.940  18.265  0.00  0.00    +0.000 A 
ATOM     25  C   UNL     1      -8.376  -5.654  19.628  0.00  0.00    +0.000 A 
ENDBRANCH  17  19
ENDBRANCH  12  15
ENDBRANCH   9  12
ENDBRANCH   2   8
BRANCH   7  26
ATOM     26  O   UNL     1      -8.919  -9.740  28.433  0.00  0.00    +0.000 OA
BRANCH  26  27
ATOM     27  C   UNL     1     -10.196 -10.161  28.748  0.00  0.00    +0.000 A 
ATOM     28  C   UNL     1     -10.530 -11.502  28.503  0.00  0.00    +0.000 A 
ATOM     29  C   UNL     1     -11.813 -11.937  28.878  0.00  0.00    +0.000 A 
ATOM     30  C   UNL     1      -9.639 -12.402  27.897  0.00  0.00    +0.000 A 
ATOM     31  N   UNL     1     -12.704 -11.123  29.465  0.00  0.00    +0.000 NA
ATOM     32  C   UNL     1     -12.151 -13.259  28.631  0.00  0.00    +0.000 A 
ATOM     33  C   UNL     1     -12.339  -9.842  29.697  0.00  0.00    +0.000 A 
ATOM     34  C   UNL     1     -11.107  -9.315  29.372  0.00  0.00    +0.000 A 
ATOM     35  C   UNL     1     -11.266 -14.163  28.029  0.00  0.00    +0.000 A 
ATOM     36  C   UNL     1      -9.993 -13.730  27.655  0.00  0.00    +0.000 A 
BRANCH  36  37
ATOM     37  O   UNL     1      -9.164 -14.652  27.061  0.00  0.00    +0.000 OA
ATOM     38  C   UNL     1      -7.810 -14.567  27.412  0.00  0.00    +0.000 C 
ENDBRANCH  36  37
BRANCH  35  39
ATOM     39  O   UNL     1     -11.587 -15.475  27.772  0.00  0.00    +0.000 OA
BRANCH  39  40
ATOM     40  C   UNL     1     -12.228 -15.684  26.625  0.00  0.00    +0.000 C 
ATOM     41  C   UNL     1     -12.965 -15.941  25.306  0.00  0.00    +0.000 C 
BRANCH  41  42
ATOM     42  C   UNL     1     -13.706 -16.203  23.990  0.00  0.00    +0.000 C 
BRANCH  42  43
ATOM     43  N   UNL     1     -14.412 -16.453  22.741  0.00  0.00    +0.000 N 
ATOM     44  C   UNL     1     -13.412 -17.028  21.790  0.00  0.00    +0.000 C 
ATOM     45  C   UNL     1     -13.315 -18.485  21.232  0.00  0.00    +0.000 C 
ATOM     46  O   UNL     1     -14.029 -19.619  21.406  0.00  0.00    +0.000 OA
ATOM     47  C   UNL     1     -14.927 -19.103  22.269  0.00  0.00    +0.000 C 
ATOM     48  C   UNL     1     -15.188 -17.715  22.930  0.00  0.00    +0.000 C 
ENDBRANCH  42  43
ENDBRANCH  41  42
ENDBRANCH  39  40
ENDBRANCH  35  39
ENDBRANCH  26  27
ENDBRANCH   7  26
TORSDOF 11
ENDMDL
MODEL 8
REMARK VINA RESULT:      -6.3      7.239     15.278
REMARK  Name = Foretinib.pdbqt.pdb
REMARK  11 active torsions:
REMARK  status: ('A' for Active; 'I' for Inactive)
REMARK    1  A    between atoms: C_2  and  N_31
REMARK    2  A    between atoms: C_7  and  O_8
REMARK    3  A    between atoms: O_8  and  C_9
REMARK    4  A    between atoms: C_17  and  O_19
REMARK    5  A    between atoms: C_18  and  O_29
REMARK    6  A    between atoms: O_19  and  C_20
REMARK    7  A    between atoms: C_21  and  C_22
REMARK    8  A    between atoms: C_22  and  N_23
REMARK    9  A    between atoms: C_32  and  C_35
REMARK   10  A    between atoms: C_35  and  C_38
REMARK   11  A    between atoms: N_40  and  C_42
REMARK                            x       y       z     vdW  Elec       q    Type
REMARK                         _______ _______ _______ _____ _____    ______ ____
ROOT
ATOM      1  F   UNL     1     -13.827  -5.665  26.066  0.00  0.00    +0.000 F 
ATOM      2  C   UNL     1     -10.839  -5.089  24.089  0.00  0.00    +0.000 A 
ATOM      3  C   UNL     1     -12.147  -4.983  24.562  0.00  0.00    +0.000 A 
ATOM      4  C   UNL     1      -9.953  -5.975  24.705  0.00  0.00    +0.000 A 
ATOM      5  C   UNL     1     -12.556  -5.755  25.645  0.00  0.00    +0.000 A 
ATOM      6  C   UNL     1     -10.364  -6.749  25.789  0.00  0.00    +0.000 A 
ATOM      7  C   UNL     1     -11.662  -6.620  26.276  0.00  0.00    +0.000 A 
ENDROOT
BRANCH   2   8
ATOM      8  N   UNL     1     -10.360  -4.340  22.998  0.00  0.00    +0.000 N 
ATOM      9  C   UNL     1     -10.775  -4.478  21.684  0.00  0.00    +0.000 C 
ATOM     10  O   UNL     1     -11.596  -5.284  21.265  0.00  0.00    +0.000 OA
ATOM     11  H   UNL     1      -9.620  -3.672  23.193  0.00  0.00    +0.000 HD
BRANCH   9  12
ATOM     12  C   UNL     1     -10.082  -3.568  20.712  0.00  0.00    +0.000 C 
ATOM     13  C   UNL     1     -10.240  -3.847  19.289  0.00  0.00    +0.000 C 
ATOM     14  C   UNL     1      -8.947  -4.111  19.974  0.00  0.00    +0.000 C 
BRANCH  12  15
ATOM     15  C   UNL     1     -10.031  -2.128  21.128  0.00  0.00    +0.000 C 
ATOM     16  O   UNL     1     -10.807  -1.735  21.992  0.00  0.00    +0.000 OA
ATOM     17  N   UNL     1      -9.046  -1.379  20.509  0.00  0.00    +0.000 N 
ATOM     18  H   UNL     1      -8.434  -1.850  19.849  0.00  0.00    +0.000 HD
BRANCH  17  19
ATOM     19  C   UNL     1      -8.791  -0.015  20.740  0.00  0.00    +0.000 A 
ATOM     20  C   UNL     1      -9.575   0.917  20.057  0.00  0.00    +0.000 A 
ATOM     21  C   UNL     1      -9.371   2.283  20.243  0.00  0.00    +0.000 A 
ATOM     22  C   UNL     1      -8.378   2.708  21.119  0.00  0.00    +0.000 A 
ATOM     23  F   UNL     1      -8.181   4.021  21.302  0.00  0.00    +0.000 F 
ATOM     24  C   UNL     1      -7.590   1.795  21.809  0.00  0.00    +0.000 A 
ATOM     25  C   UNL     1      -7.800   0.432  21.616  0.00  0.00    +0.000 A 
ENDBRANCH  17  19
ENDBRANCH  12  15
ENDBRANCH   9  12
ENDBRANCH   2   8
BRANCH   7  26
ATOM     26  O   UNL     1     -12.031  -7.454  27.303  0.00  0.00    +0.000 OA
BRANCH  26  27
ATOM     27  C   UNL     1     -12.171  -8.796  27.009  0.00  0.00    +0.000 A 
ATOM     28  C   UNL     1     -11.296  -9.703  27.627  0.00  0.00    +0.000 A 
ATOM     29  C   UNL     1     -11.480 -11.072  27.367  0.00  0.00    +0.000 A 
ATOM     30  C   UNL     1     -10.257  -9.289  28.475  0.00  0.00    +0.000 A 
ATOM     31  N   UNL     1     -12.458 -11.526  26.568  0.00  0.00    +0.000 NA
ATOM     32  C   UNL     1     -10.613 -11.972  27.968  0.00  0.00    +0.000 A 
ATOM     33  C   UNL     1     -13.288 -10.621  26.002  0.00  0.00    +0.000 A 
ATOM     34  C   UNL     1     -13.198  -9.258  26.194  0.00  0.00    +0.000 A 
ATOM     35  C   UNL     1      -9.576 -11.566  28.818  0.00  0.00    +0.000 A 
ATOM     36  C   UNL     1      -9.393 -10.206  29.075  0.00  0.00    +0.000 A 
BRANCH  36  37
ATOM     37  O   UNL     1      -8.357  -9.858  29.909  0.00  0.00    +0.000 OA
ATOM     38  C   UNL     1      -7.477  -8.888  29.411  0.00  0.00    +0.000 C 
ENDBRANCH  36  37
BRANCH  35  39
ATOM     39  O   UNL     1      -8.705 -12.445  29.418  0.00  0.00    +0.000 OA
BRANCH  39  40
ATOM     40  C   UNL     1      -8.305 -13.454  28.649  0.00  0.00    +0.000 C 
ATOM     41  C   UNL     1      -7.860 -14.624  27.765  0.00  0.00    +0.000 C 
BRANCH  41  42
ATOM     42  C   UNL     1      -7.421 -15.794  26.877  0.00  0.00    +0.000 C 
BRANCH  42  43
ATOM     43  N   UNL     1      -7.005 -16.905  26.034  0.00  0.00    +0.000 N 
ATOM     44  C   UNL     1      -8.226 -17.725  25.768  0.00  0.00    +0.000 C 
ATOM     45  C   UNL     1      -9.017 -17.900  24.431  0.00  0.00    +0.000 C 
ATOM     46  O   UNL     1      -8.885 -17.411  23.178  0.00  0.00    +0.000 OA
ATOM     47  C   UNL     1      -7.787 -16.667  23.418  0.00  0.00    +0.000 C 
ATOM     48  C   UNL     1      -6.874 -16.368  24.646  0.00  0.00    +0.000 C 
ENDBRANCH  42  43
ENDBRANCH  41  42
ENDBRANCH  39  40
ENDBRANCH  35  39
ENDBRANCH  26  27
ENDBRANCH   7  26
TORSDOF 11
ENDMDL
MODEL 9
REMARK VINA RESULT:      -6.3      3.618      5.700
REMARK  Name = Foretinib.pdbqt.pdb
REMARK  11 active torsions:
REMARK  status: ('A' for Active; 'I' for Inactive)
REMARK    1  A    between atoms: C_2  and  N_31
REMARK    2  A    between atoms: C_7  and  O_8
REMARK    3  A    between atoms: O_8  and  C_9
REMARK    4  A    between atoms: C_17  and  O_19
REMARK    5  A    between atoms: C_18  and  O_29
REMARK    6  A    between atoms: O_19  and  C_20
REMARK    7  A    between atoms: C_21  and  C_22
REMARK    8  A    between atoms: C_22  and  N_23
REMARK    9  A    between atoms: C_32  and  C_35
REMARK   10  A    between atoms: C_35  and  C_38
REMARK   11  A    between atoms: N_40  and  C_42
REMARK                            x       y       z     vdW  Elec       q    Type
REMARK                         _______ _______ _______ _____ _____    ______ ____
ROOT
ATOM      1  F   UNL     1     -15.879   2.617  25.112  0.00  0.00    +0.000 F 
ATOM      2  C   UNL     1     -15.132  -0.610  23.632  0.00  0.00    +0.000 A 
ATOM      3  C   UNL     1     -15.080   0.492  24.485  0.00  0.00    +0.000 A 
ATOM      4  C   UNL     1     -16.071  -0.639  22.599  0.00  0.00    +0.000 A 
ATOM      5  C   UNL     1     -15.966   1.550  24.304  0.00  0.00    +0.000 A 
ATOM      6  C   UNL     1     -16.957   0.422  22.417  0.00  0.00    +0.000 A 
ATOM      7  C   UNL     1     -16.920   1.509  23.287  0.00  0.00    +0.000 A 
ENDROOT
BRANCH   2   8
ATOM      8  N   UNL     1     -14.267  -1.713  23.758  0.00  0.00    +0.000 N 
ATOM      9  C   UNL     1     -12.932  -1.733  23.388  0.00  0.00    +0.000 C 
ATOM     10  O   UNL     1     -12.309  -0.812  22.875  0.00  0.00    +0.000 OA
ATOM     11  H   UNL     1     -14.673  -2.574  24.113  0.00  0.00    +0.000 HD
BRANCH   9  12
ATOM     12  C   UNL     1     -12.244  -3.049  23.608  0.00  0.00    +0.000 C 
ATOM     13  C   UNL     1     -13.060  -4.177  24.044  0.00  0.00    +0.000 C 
ATOM     14  C   UNL     1     -12.115  -3.518  24.983  0.00  0.00    +0.000 C 
BRANCH  12  15
ATOM     15  C   UNL     1     -11.126  -3.340  22.652  0.00  0.00    +0.000 C 
ATOM     16  O   UNL     1      -9.970  -3.221  23.042  0.00  0.00    +0.000 OA
ATOM     17  N   UNL     1     -11.529  -3.777  21.402  0.00  0.00    +0.000 N 
ATOM     18  H   UNL     1     -12.525  -3.883  21.234  0.00  0.00    +0.000 HD
BRANCH  17  19
ATOM     19  C   UNL     1     -10.671  -4.125  20.343  0.00  0.00    +0.000 A 
ATOM     20  C   UNL     1      -9.683  -5.079  20.594  0.00  0.00    +0.000 A 
ATOM     21  C   UNL     1      -8.803  -5.466  19.587  0.00  0.00    +0.000 A 
ATOM     22  C   UNL     1      -8.919  -4.892  18.325  0.00  0.00    +0.000 A 
ATOM     23  F   UNL     1      -8.075  -5.263  17.354  0.00  0.00    +0.000 F 
ATOM     24  C   UNL     1      -9.898  -3.942  18.056  0.00  0.00    +0.000 A 
ATOM     25  C   UNL     1     -10.773  -3.561  19.070  0.00  0.00    +0.000 A 
ENDBRANCH  17  19
ENDBRANCH  12  15
ENDBRANCH   9  12
ENDBRANCH   2   8
BRANCH   7  26
ATOM     26  O   UNL     1     -17.772   2.553  23.022  0.00  0.00    +0.000 OA
BRANCH  26  27
ATOM     27  C   UNL     1     -19.127   2.301  23.112  0.00  0.00    +0.000 A 
ATOM     28  C   UNL     1     -19.884   2.326  21.931  0.00  0.00    +0.000 A 
ATOM     29  C   UNL     1     -21.251   2.013  22.022  0.00  0.00    +0.000 A 
ATOM     30  C   UNL     1     -19.327   2.656  20.685  0.00  0.00    +0.000 A 
ATOM     31  N   UNL     1     -21.837   1.686  23.185  0.00  0.00    +0.000 NA
ATOM     32  C   UNL     1     -22.006   2.044  20.859  0.00  0.00    +0.000 A 
ATOM     33  C   UNL     1     -21.070   1.661  24.298  0.00  0.00    +0.000 A 
ATOM     34  C   UNL     1     -19.721   1.946  24.318  0.00  0.00    +0.000 A 
ATOM     35  C   UNL     1     -21.456   2.370  19.613  0.00  0.00    +0.000 A 
ATOM     36  C   UNL     1     -20.099   2.681  19.523  0.00  0.00    +0.000 A 
BRANCH  36  37
ATOM     37  O   UNL     1     -19.609   3.002  18.279  0.00  0.00    +0.000 OA
ATOM     38  C   UNL     1     -18.344   3.605  18.262  0.00  0.00    +0.000 C 
ENDBRANCH  36  37
BRANCH  35  39
ATOM     39  O   UNL     1     -22.192   2.409  18.452  0.00  0.00    +0.000 OA
BRANCH  39  40
ATOM     40  C   UNL     1     -22.646   1.230  18.033  0.00  0.00    +0.000 C 
ATOM     41  C   UNL     1     -23.178  -0.119  17.538  0.00  0.00    +0.000 C 
BRANCH  41  42
ATOM     42  C   UNL     1     -23.708  -1.466  17.036  0.00  0.00    +0.000 C 
BRANCH  42  43
ATOM     43  N   UNL     1     -24.213  -2.747  16.561  0.00  0.00    +0.000 N 
ATOM     44  C   UNL     1     -25.373  -2.448  15.667  0.00  0.00    +0.000 C 
ATOM     45  C   UNL     1     -25.481  -2.605  14.115  0.00  0.00    +0.000 C 
ATOM     46  O   UNL     1     -24.641  -3.018  13.141  0.00  0.00    +0.000 OA
ATOM     47  C   UNL     1     -23.591  -3.282  13.946  0.00  0.00    +0.000 C 
ATOM     48  C   UNL     1     -23.292  -3.196  15.474  0.00  0.00    +0.000 C 
ENDBRANCH  42  43
ENDBRANCH  41  42
ENDBRANCH  39  40
ENDBRANCH  35  39
ENDBRANCH  26  27
ENDBRANCH   7  26
TORSDOF 11
ENDMDL
