MODEL 1
REMARK VINA RESULT:      -6.0      0.000      0.000
REMARK  Name = Fulvestrant.pdbqt.pdb
REMARK  12 active torsions:
REMARK  status: ('A' for Active; 'I' for Inactive)
REMARK    1  A    between atoms: C_6  and  O_40
REMARK    2  A    between atoms: C_8  and  C_19
REMARK    3  A    between atoms: C_18  and  O_42
REMARK    4  A    between atoms: C_20  and  C_21
REMARK    5  A    between atoms: C_22  and  C_23
REMARK    6  A    between atoms: C_23  and  C_24
REMARK    7  A    between atoms: C_25  and  C_26
REMARK    8  A    between atoms: C_27  and  S_28
REMARK    9  A    between atoms: S_28  and  C_30
REMARK   10  A    between atoms: C_30  and  C_31
REMARK   11  A    between atoms: C_32  and  C_33
REMARK   12  A    between atoms: C_33  and  C_36
REMARK                            x       y       z     vdW  Elec       q    Type
REMARK                         _______ _______ _______ _____ _____    ______ ____
ROOT
ATOM      1  C   UNL     1      -6.881   1.992  21.994  0.00  0.00    +0.000 C 
ATOM      2  C   UNL     1      -5.399   2.046  22.605  0.00  0.00    +0.000 C 
ATOM      3  C   UNL     1      -7.564   0.723  21.580  0.00  0.00    +0.000 A 
ATOM      4  C   UNL     1      -7.075  -0.653  22.079  0.00  0.00    +0.000 A 
ATOM      5  C   UNL     1      -5.127   0.704  23.107  0.00  0.00    +0.000 C 
ATOM      6  C   UNL     1      -5.526   3.106  23.722  0.00  0.00    +0.000 C 
ATOM      7  C   UNL     1      -7.634   3.019  22.650  0.00  0.00    +0.000 C 
ATOM      8  C   UNL     1      -8.754   0.725  20.688  0.00  0.00    +0.000 A 
ATOM      9  C   UNL     1      -5.897  -0.563  22.857  0.00  0.00    +0.000 C 
ATOM     10  C   UNL     1      -6.821   3.691  23.726  0.00  0.00    +0.000 C 
ATOM     11  C   UNL     1      -4.423   2.527  21.501  0.00  0.00    +0.000 C 
ATOM     12  C   UNL     1      -7.743  -1.939  21.731  0.00  0.00    +0.000 A 
ATOM     13  C   UNL     1      -9.243  -0.588  20.488  0.00  0.00    +0.000 A 
ATOM     14  C   UNL     1      -8.884  -1.898  20.895  0.00  0.00    +0.000 A 
ATOM     15  C   UNL     1      -7.292  -3.174  22.190  0.00  0.00    +0.000 A 
ATOM     16  C   UNL     1      -9.566  -3.045  20.520  0.00  0.00    +0.000 A 
ATOM     17  C   UNL     1      -7.969  -4.339  21.820  0.00  0.00    +0.000 A 
ATOM     18  C   UNL     1      -9.091  -4.264  20.994  0.00  0.00    +0.000 A 
ENDROOT
BRANCH   8  19
ATOM     19  C   UNL     1      -9.209   1.869  19.989  0.00  0.00    +0.000 C 
ATOM     20  C   UNL     1      -9.709   3.094  19.217  0.00  0.00    +0.000 C 
BRANCH  20  21
ATOM     21  C   UNL     1     -10.217   4.301  18.424  0.00  0.00    +0.000 C 
ATOM     22  C   UNL     1     -10.711   5.497  17.603  0.00  0.00    +0.000 C 
BRANCH  22  23
ATOM     23  C   UNL     1     -11.186   6.681  16.757  0.00  0.00    +0.000 C 
BRANCH  23  24
ATOM     24  C   UNL     1     -11.681   7.844  15.890  0.00  0.00    +0.000 C 
ATOM     25  C   UNL     1     -12.162   8.990  14.996  0.00  0.00    +0.000 C 
BRANCH  25  26
ATOM     26  C   UNL     1     -12.626  10.123  14.074  0.00  0.00    +0.000 C 
ATOM     27  C   UNL     1     -13.117  11.263  13.176  0.00  0.00    +0.000 C 
BRANCH  27  28
ATOM     28  S   UNL     1     -13.709  12.576  12.165  0.00  0.00    +0.000 S 
ATOM     29  O   UNL     1     -12.328  12.899  11.676  0.00  0.00    +0.000 OA
BRANCH  28  30
ATOM     30  C   UNL     1     -14.020  11.527  10.785  0.00  0.00    +0.000 C 
BRANCH  30  31
ATOM     31  C   UNL     1     -14.304  10.631   9.574  0.00  0.00    +0.000 C 
ATOM     32  C   UNL     1     -14.590   9.751   8.353  0.00  0.00    +0.000 C 
BRANCH  32  33
ATOM     33  C   UNL     1     -14.866   8.918   7.179  0.00  0.00    +0.000 C 
ATOM     34  F   UNL     1     -14.477   9.610   6.072  0.00  0.00    +0.000 F 
ATOM     35  F   UNL     1     -16.218   8.778   7.077  0.00  0.00    +0.000 F 
BRANCH  33  36
ATOM     36  C   UNL     1     -14.182   7.548   7.234  0.00  0.00    +0.000 C 
ATOM     37  F   UNL     1     -12.844   7.639   7.018  0.00  0.00    +0.000 F 
ATOM     38  F   UNL     1     -14.673   6.692   6.305  0.00  0.00    +0.000 F 
ATOM     39  F   UNL     1     -14.344   6.952   8.443  0.00  0.00    +0.000 F 
ENDBRANCH  33  36
ENDBRANCH  32  33
ENDBRANCH  30  31
ENDBRANCH  28  30
ENDBRANCH  27  28
ENDBRANCH  25  26
ENDBRANCH  23  24
ENDBRANCH  22  23
ENDBRANCH  20  21
ENDBRANCH   8  19
BRANCH   6  40
ATOM     40  O   UNL     1      -4.709   3.121  24.833  0.00  0.00    +0.000 OA
ATOM     41  H   UNL     1      -3.780   3.294  24.596  0.00  0.00    +0.000 HD
ENDBRANCH   6  40
BRANCH  18  42
ATOM     42  O   UNL     1      -9.720  -5.430  20.658  0.00  0.00    +0.000 OA
ATOM     43  H   UNL     1      -9.834  -5.450  19.692  0.00  0.00    +0.000 HD
ENDBRANCH  18  42
TORSDOF 12
ENDMDL
MODEL 2
REMARK VINA RESULT:      -5.9     12.018     17.741
REMARK  Name = Fulvestrant.pdbqt.pdb
REMARK  12 active torsions:
REMARK  status: ('A' for Active; 'I' for Inactive)
REMARK    1  A    between atoms: C_6  and  O_40
REMARK    2  A    between atoms: C_8  and  C_19
REMARK    3  A    between atoms: C_18  and  O_42
REMARK    4  A    between atoms: C_20  and  C_21
REMARK    5  A    between atoms: C_22  and  C_23
REMARK    6  A    between atoms: C_23  and  C_24
REMARK    7  A    between atoms: C_25  and  C_26
REMARK    8  A    between atoms: C_27  and  S_28
REMARK    9  A    between atoms: S_28  and  C_30
REMARK   10  A    between atoms: C_30  and  C_31
REMARK   11  A    between atoms: C_32  and  C_33
REMARK   12  A    between atoms: C_33  and  C_36
REMARK                            x       y       z     vdW  Elec       q    Type
REMARK                         _______ _______ _______ _____ _____    ______ ____
ROOT
ATOM      1  C   UNL     1     -21.752  -3.467   8.933  0.00  0.00    +0.000 C 
ATOM      2  C   UNL     1     -21.181  -4.935   8.632  0.00  0.00    +0.000 C 
ATOM      3  C   UNL     1     -22.639  -2.710   7.992  0.00  0.00    +0.000 A 
ATOM      4  C   UNL     1     -23.403  -3.424   6.857  0.00  0.00    +0.000 A 
ATOM      5  C   UNL     1     -22.058  -5.501   7.612  0.00  0.00    +0.000 C 
ATOM      6  C   UNL     1     -21.298  -5.639  10.002  0.00  0.00    +0.000 C 
ATOM      7  C   UNL     1     -22.000  -3.404  10.343  0.00  0.00    +0.000 C 
ATOM      8  C   UNL     1     -22.843  -1.242   8.112  0.00  0.00    +0.000 A 
ATOM      9  C   UNL     1     -23.089  -4.801   6.772  0.00  0.00    +0.000 C 
ATOM     10  C   UNL     1     -21.748  -4.735  11.002  0.00  0.00    +0.000 C 
ATOM     11  C   UNL     1     -19.696  -4.813   8.203  0.00  0.00    +0.000 C 
ATOM     12  C   UNL     1     -24.328  -2.725   5.921  0.00  0.00    +0.000 A 
ATOM     13  C   UNL     1     -23.761  -0.773   7.141  0.00  0.00    +0.000 A 
ATOM     14  C   UNL     1     -24.514  -1.331   6.077  0.00  0.00    +0.000 A 
ATOM     15  C   UNL     1     -25.014  -3.382   4.902  0.00  0.00    +0.000 A 
ATOM     16  C   UNL     1     -25.353  -0.601   5.250  0.00  0.00    +0.000 A 
ATOM     17  C   UNL     1     -25.863  -2.660   4.062  0.00  0.00    +0.000 A 
ATOM     18  C   UNL     1     -26.024  -1.285   4.241  0.00  0.00    +0.000 A 
ENDROOT
BRANCH   8  19
ATOM     19  C   UNL     1     -22.075  -0.410   8.961  0.00  0.00    +0.000 C 
ATOM     20  C   UNL     1     -21.235   0.473   9.890  0.00  0.00    +0.000 C 
BRANCH  20  21
ATOM     21  C   UNL     1     -20.386   1.332  10.831  0.00  0.00    +0.000 C 
ATOM     22  C   UNL     1     -19.552   2.178  11.798  0.00  0.00    +0.000 C 
BRANCH  22  23
ATOM     23  C   UNL     1     -18.736   3.011  12.791  0.00  0.00    +0.000 C 
BRANCH  23  24
ATOM     24  C   UNL     1     -17.937   3.828  13.812  0.00  0.00    +0.000 C 
ATOM     25  C   UNL     1     -17.117   4.657  14.805  0.00  0.00    +0.000 C 
BRANCH  25  26
ATOM     26  C   UNL     1     -16.274   5.493  15.773  0.00  0.00    +0.000 C 
ATOM     27  C   UNL     1     -15.461   6.351  16.748  0.00  0.00    +0.000 C 
BRANCH  27  28
ATOM     28  S   UNL     1     -14.555   7.358  17.872  0.00  0.00    +0.000 S 
ATOM     29  O   UNL     1     -15.069   6.598  19.058  0.00  0.00    +0.000 OA
BRANCH  28  30
ATOM     30  C   UNL     1     -13.108   6.358  17.778  0.00  0.00    +0.000 C 
BRANCH  30  31
ATOM     31  C   UNL     1     -11.841   5.498  17.718  0.00  0.00    +0.000 C 
ATOM     32  C   UNL     1     -10.563   4.654  17.652  0.00  0.00    +0.000 C 
BRANCH  32  33
ATOM     33  C   UNL     1      -9.337   3.854  17.586  0.00  0.00    +0.000 C 
ATOM     34  F   UNL     1      -8.343   4.650  17.102  0.00  0.00    +0.000 F 
ATOM     35  F   UNL     1      -9.525   2.881  16.650  0.00  0.00    +0.000 F 
BRANCH  33  36
ATOM     36  C   UNL     1      -8.938   3.243  18.933  0.00  0.00    +0.000 C 
ATOM     37  F   UNL     1      -7.595   3.274  19.128  0.00  0.00    +0.000 F 
ATOM     38  F   UNL     1      -9.323   1.947  19.041  0.00  0.00    +0.000 F 
ATOM     39  F   UNL     1      -9.501   3.908  19.974  0.00  0.00    +0.000 F 
ENDBRANCH  33  36
ENDBRANCH  32  33
ENDBRANCH  30  31
ENDBRANCH  28  30
ENDBRANCH  27  28
ENDBRANCH  25  26
ENDBRANCH  23  24
ENDBRANCH  22  23
ENDBRANCH  20  21
ENDBRANCH   8  19
BRANCH   6  40
ATOM     40  O   UNL     1     -21.432  -7.005  10.131  0.00  0.00    +0.000 OA
ATOM     41  H   UNL     1     -22.310  -7.311   9.840  0.00  0.00    +0.000 HD
ENDBRANCH   6  40
BRANCH  18  42
ATOM     42  O   UNL     1     -26.864  -0.621   3.394  0.00  0.00    +0.000 OA
ATOM     43  H   UNL     1     -27.491  -1.264   3.016  0.00  0.00    +0.000 HD
ENDBRANCH  18  42
TORSDOF 12
ENDMDL
MODEL 3
REMARK VINA RESULT:      -5.8     21.071     23.474
REMARK  Name = Fulvestrant.pdbqt.pdb
REMARK  12 active torsions:
REMARK  status: ('A' for Active; 'I' for Inactive)
REMARK    1  A    between atoms: C_6  and  O_40
REMARK    2  A    between atoms: C_8  and  C_19
REMARK    3  A    between atoms: C_18  and  O_42
REMARK    4  A    between atoms: C_20  and  C_21
REMARK    5  A    between atoms: C_22  and  C_23
REMARK    6  A    between atoms: C_23  and  C_24
REMARK    7  A    between atoms: C_25  and  C_26
REMARK    8  A    between atoms: C_27  and  S_28
REMARK    9  A    between atoms: S_28  and  C_30
REMARK   10  A    between atoms: C_30  and  C_31
REMARK   11  A    between atoms: C_32  and  C_33
REMARK   12  A    between atoms: C_33  and  C_36
REMARK                            x       y       z     vdW  Elec       q    Type
REMARK                         _______ _______ _______ _____ _____    ______ ____
ROOT
ATOM      1  C   UNL     1      -7.860 -19.786  20.419  0.00  0.00    +0.000 C 
ATOM      2  C   UNL     1      -8.050 -21.261  19.817  0.00  0.00    +0.000 C 
ATOM      3  C   UNL     1      -8.979 -18.801  20.575  0.00  0.00    +0.000 A 
ATOM      4  C   UNL     1     -10.455 -19.251  20.555  0.00  0.00    +0.000 A 
ATOM      5  C   UNL     1      -9.470 -21.566  19.953  0.00  0.00    +0.000 C 
ATOM      6  C   UNL     1      -7.146 -22.123  20.726  0.00  0.00    +0.000 C 
ATOM      7  C   UNL     1      -6.858 -19.885  21.438  0.00  0.00    +0.000 C 
ATOM      8  C   UNL     1      -8.727 -17.349  20.773  0.00  0.00    +0.000 A 
ATOM      9  C   UNL     1     -10.600 -20.632  20.286  0.00  0.00    +0.000 C 
ATOM     10  C   UNL     1      -6.431 -21.314  21.650  0.00  0.00    +0.000 C 
ATOM     11  C   UNL     1      -7.529 -21.272  18.357  0.00  0.00    +0.000 C 
ATOM     12  C   UNL     1     -11.602 -18.319  20.747  0.00  0.00    +0.000 A 
ATOM     13  C   UNL     1      -9.940 -16.639  20.944  0.00  0.00    +0.000 A 
ATOM     14  C   UNL     1     -11.325 -16.946  20.952  0.00  0.00    +0.000 A 
ATOM     15  C   UNL     1     -12.930 -18.738  20.729  0.00  0.00    +0.000 A 
ATOM     16  C   UNL     1     -12.329 -16.009  21.136  0.00  0.00    +0.000 A 
ATOM     17  C   UNL     1     -13.953 -17.806  20.914  0.00  0.00    +0.000 A 
ATOM     18  C   UNL     1     -13.645 -16.459  21.114  0.00  0.00    +0.000 A 
ENDROOT
BRANCH   8  19
ATOM     19  C   UNL     1      -7.456 -16.745  20.620  0.00  0.00    +0.000 C 
ATOM     20  C   UNL     1      -6.071 -16.110  20.461  0.00  0.00    +0.000 C 
BRANCH  20  21
ATOM     21  C   UNL     1      -4.675 -15.500  20.313  0.00  0.00    +0.000 C 
ATOM     22  C   UNL     1      -3.281 -14.889  20.133  0.00  0.00    +0.000 C 
BRANCH  22  23
ATOM     23  C   UNL     1      -1.891 -14.282  19.919  0.00  0.00    +0.000 C 
BRANCH  23  24
ATOM     24  C   UNL     1      -0.497 -13.671  19.741  0.00  0.00    +0.000 C 
ATOM     25  C   UNL     1       0.902 -13.083  19.536  0.00  0.00    +0.000 C 
BRANCH  25  26
ATOM     26  C   UNL     1       2.308 -12.519  19.306  0.00  0.00    +0.000 C 
ATOM     27  C   UNL     1       3.705 -11.950  19.040  0.00  0.00    +0.000 C 
BRANCH  27  28
ATOM     28  S   UNL     1       5.303 -11.295  18.700  0.00  0.00    +0.000 S 
ATOM     29  O   UNL     1       5.907 -12.665  18.601  0.00  0.00    +0.000 OA
BRANCH  28  30
ATOM     30  C   UNL     1       5.029 -11.221  16.963  0.00  0.00    +0.000 C 
BRANCH  30  31
ATOM     31  C   UNL     1       4.791 -11.132  15.451  0.00  0.00    +0.000 C 
ATOM     32  C   UNL     1       4.536 -11.036  13.943  0.00  0.00    +0.000 C 
BRANCH  32  33
ATOM     33  C   UNL     1       4.282 -10.942  12.503  0.00  0.00    +0.000 C 
ATOM     34  F   UNL     1       3.175 -11.685  12.222  0.00  0.00    +0.000 F 
ATOM     35  F   UNL     1       5.315 -11.554  11.858  0.00  0.00    +0.000 F 
BRANCH  33  36
ATOM     36  C   UNL     1       4.111  -9.502  12.010  0.00  0.00    +0.000 C 
ATOM     37  F   UNL     1       3.425  -8.738  12.900  0.00  0.00    +0.000 F 
ATOM     38  F   UNL     1       3.437  -9.439  10.835  0.00  0.00    +0.000 F 
ATOM     39  F   UNL     1       5.307  -8.892  11.810  0.00  0.00    +0.000 F 
ENDBRANCH  33  36
ENDBRANCH  32  33
ENDBRANCH  30  31
ENDBRANCH  28  30
ENDBRANCH  27  28
ENDBRANCH  25  26
ENDBRANCH  23  24
ENDBRANCH  22  23
ENDBRANCH  20  21
ENDBRANCH   8  19
BRANCH   6  40
ATOM     40  O   UNL     1      -7.372 -23.466  20.945  0.00  0.00    +0.000 OA
ATOM     41  H   UNL     1      -6.670 -23.866  21.489  0.00  0.00    +0.000 HD
ENDBRANCH   6  40
BRANCH  18  42
ATOM     42  O   UNL     1     -14.680 -15.584  21.289  0.00  0.00    +0.000 OA
ATOM     43  H   UNL     1     -15.460 -16.085  21.584  0.00  0.00    +0.000 HD
ENDBRANCH  18  42
TORSDOF 12
ENDMDL
MODEL 4
REMARK VINA RESULT:      -5.8     22.237     25.221
REMARK  Name = Fulvestrant.pdbqt.pdb
REMARK  12 active torsions:
REMARK  status: ('A' for Active; 'I' for Inactive)
REMARK    1  A    between atoms: C_6  and  O_40
REMARK    2  A    between atoms: C_8  and  C_19
REMARK    3  A    between atoms: C_18  and  O_42
REMARK    4  A    between atoms: C_20  and  C_21
REMARK    5  A    between atoms: C_22  and  C_23
REMARK    6  A    between atoms: C_23  and  C_24
REMARK    7  A    between atoms: C_25  and  C_26
REMARK    8  A    between atoms: C_27  and  S_28
REMARK    9  A    between atoms: S_28  and  C_30
REMARK   10  A    between atoms: C_30  and  C_31
REMARK   11  A    between atoms: C_32  and  C_33
REMARK   12  A    between atoms: C_33  and  C_36
REMARK                            x       y       z     vdW  Elec       q    Type
REMARK                         _______ _______ _______ _____ _____    ______ ____
ROOT
ATOM      1  C   UNL     1     -16.595 -12.664  -0.262  0.00  0.00    +0.000 C 
ATOM      2  C   UNL     1     -17.950 -12.582  -1.117  0.00  0.00    +0.000 C 
ATOM      3  C   UNL     1     -16.550 -12.602   1.234  0.00  0.00    +0.000 A 
ATOM      4  C   UNL     1     -17.809 -12.864   2.088  0.00  0.00    +0.000 A 
ATOM      5  C   UNL     1     -19.023 -12.940  -0.196  0.00  0.00    +0.000 C 
ATOM      6  C   UNL     1     -17.720 -13.630  -2.229  0.00  0.00    +0.000 C 
ATOM      7  C   UNL     1     -15.724 -13.563  -0.959  0.00  0.00    +0.000 C 
ATOM      8  C   UNL     1     -15.294 -12.304   1.972  0.00  0.00    +0.000 A 
ATOM      9  C   UNL     1     -18.968 -13.063   1.302  0.00  0.00    +0.000 C 
ATOM     10  C   UNL     1     -16.412 -14.177  -2.151  0.00  0.00    +0.000 C 
ATOM     11  C   UNL     1     -18.072 -11.159  -1.721  0.00  0.00    +0.000 C 
ATOM     12  C   UNL     1     -17.809 -12.856   3.578  0.00  0.00    +0.000 A 
ATOM     13  C   UNL     1     -15.501 -12.353   3.372  0.00  0.00    +0.000 A 
ATOM     14  C   UNL     1     -16.592 -12.588   4.248  0.00  0.00    +0.000 A 
ATOM     15  C   UNL     1     -18.952 -13.096   4.337  0.00  0.00    +0.000 A 
ATOM     16  C   UNL     1     -16.501 -12.557   5.630  0.00  0.00    +0.000 A 
ATOM     17  C   UNL     1     -18.876 -13.070   5.731  0.00  0.00    +0.000 A 
ATOM     18  C   UNL     1     -17.660 -12.801   6.361  0.00  0.00    +0.000 A 
ENDROOT
BRANCH   8  19
ATOM     19  C   UNL     1     -14.107 -11.850   1.350  0.00  0.00    +0.000 C 
ATOM     20  C   UNL     1     -12.817 -11.348   0.694  0.00  0.00    +0.000 C 
BRANCH  20  21
ATOM     21  C   UNL     1     -11.521 -10.831   0.063  0.00  0.00    +0.000 C 
ATOM     22  C   UNL     1     -10.240 -10.286  -0.576  0.00  0.00    +0.000 C 
BRANCH  22  23
ATOM     23  C   UNL     1      -8.976  -9.715  -1.226  0.00  0.00    +0.000 C 
BRANCH  23  24
ATOM     24  C   UNL     1      -7.697  -9.140  -1.844  0.00  0.00    +0.000 C 
ATOM     25  C   UNL     1      -6.405  -8.562  -2.429  0.00  0.00    +0.000 C 
BRANCH  25  26
ATOM     26  C   UNL     1      -5.100  -7.980  -2.981  0.00  0.00    +0.000 C 
ATOM     27  C   UNL     1      -3.785  -7.389  -3.499  0.00  0.00    +0.000 C 
BRANCH  27  28
ATOM     28  S   UNL     1      -2.266  -6.699  -4.061  0.00  0.00    +0.000 S 
ATOM     29  O   UNL     1      -2.823  -5.306  -4.036  0.00  0.00    +0.000 OA
BRANCH  28  30
ATOM     30  C   UNL     1      -1.608  -6.533  -2.436  0.00  0.00    +0.000 C 
BRANCH  30  31
ATOM     31  C   UNL     1      -1.018  -6.403  -1.027  0.00  0.00    +0.000 C 
ATOM     32  C   UNL     1      -0.428  -6.255   0.380  0.00  0.00    +0.000 C 
BRANCH  32  33
ATOM     33  C   UNL     1       0.138  -6.104   1.723  0.00  0.00    +0.000 C 
ATOM     34  F   UNL     1      -0.728  -5.355   2.461  0.00  0.00    +0.000 F 
ATOM     35  F   UNL     1       1.275  -5.362   1.615  0.00  0.00    +0.000 F 
BRANCH  33  36
ATOM     36  C   UNL     1       0.425  -7.441   2.413  0.00  0.00    +0.000 C 
ATOM     37  F   UNL     1       0.727  -8.420   1.522  0.00  0.00    +0.000 F 
ATOM     38  F   UNL     1      -0.633  -7.881   3.138  0.00  0.00    +0.000 F 
ATOM     39  F   UNL     1       1.477  -7.352   3.268  0.00  0.00    +0.000 F 
ENDBRANCH  33  36
ENDBRANCH  32  33
ENDBRANCH  30  31
ENDBRANCH  28  30
ENDBRANCH  27  28
ENDBRANCH  25  26
ENDBRANCH  23  24
ENDBRANCH  22  23
ENDBRANCH  20  21
ENDBRANCH   8  19
BRANCH   6  40
ATOM     40  O   UNL     1     -18.755 -14.284  -2.863  0.00  0.00    +0.000 OA
ATOM     41  H   UNL     1     -18.451 -15.095  -3.309  0.00  0.00    +0.000 HD
ENDBRANCH   6  40
BRANCH  18  42
ATOM     42  O   UNL     1     -17.634 -12.785   7.727  0.00  0.00    +0.000 OA
ATOM     43  H   UNL     1     -17.104 -12.021   8.015  0.00  0.00    +0.000 HD
ENDBRANCH  18  42
TORSDOF 12
ENDMDL
MODEL 5
REMARK VINA RESULT:      -5.7     20.607     22.938
REMARK  Name = Fulvestrant.pdbqt.pdb
REMARK  12 active torsions:
REMARK  status: ('A' for Active; 'I' for Inactive)
REMARK    1  A    between atoms: C_6  and  O_40
REMARK    2  A    between atoms: C_8  and  C_19
REMARK    3  A    between atoms: C_18  and  O_42
REMARK    4  A    between atoms: C_20  and  C_21
REMARK    5  A    between atoms: C_22  and  C_23
REMARK    6  A    between atoms: C_23  and  C_24
REMARK    7  A    between atoms: C_25  and  C_26
REMARK    8  A    between atoms: C_27  and  S_28
REMARK    9  A    between atoms: S_28  and  C_30
REMARK   10  A    between atoms: C_30  and  C_31
REMARK   11  A    between atoms: C_32  and  C_33
REMARK   12  A    between atoms: C_33  and  C_36
REMARK                            x       y       z     vdW  Elec       q    Type
REMARK                         _______ _______ _______ _____ _____    ______ ____
ROOT
ATOM      1  C   UNL     1      -5.448 -19.217  19.626  0.00  0.00    +0.000 C 
ATOM      2  C   UNL     1      -5.452 -20.532  18.706  0.00  0.00    +0.000 C 
ATOM      3  C   UNL     1      -6.685 -18.458  19.997  0.00  0.00    +0.000 A 
ATOM      4  C   UNL     1      -8.086 -19.094  19.875  0.00  0.00    +0.000 A 
ATOM      5  C   UNL     1      -6.812 -21.055  18.768  0.00  0.00    +0.000 C 
ATOM      6  C   UNL     1      -4.411 -21.440  19.400  0.00  0.00    +0.000 C 
ATOM      7  C   UNL     1      -4.411 -19.399  20.598  0.00  0.00    +0.000 C 
ATOM      8  C   UNL     1      -6.628 -17.066  20.518  0.00  0.00    +0.000 A 
ATOM      9  C   UNL     1      -8.048 -20.387  19.302  0.00  0.00    +0.000 C 
ATOM     10  C   UNL     1      -3.787 -20.765  20.483  0.00  0.00    +0.000 C 
ATOM     11  C   UNL     1      -4.979 -20.144  17.282  0.00  0.00    +0.000 C 
ATOM     12  C   UNL     1      -9.343 -18.398  20.270  0.00  0.00    +0.000 A 
ATOM     13  C   UNL     1      -7.921 -16.589  20.842  0.00  0.00    +0.000 A 
ATOM     14  C   UNL     1      -9.250 -17.081  20.779  0.00  0.00    +0.000 A 
ATOM     15  C   UNL     1     -10.601 -18.985  20.157  0.00  0.00    +0.000 A 
ATOM     16  C   UNL     1     -10.367 -16.359  21.168  0.00  0.00    +0.000 A 
ATOM     17  C   UNL     1     -11.736 -18.270  20.545  0.00  0.00    +0.000 A 
ATOM     18  C   UNL     1     -11.610 -16.972  21.043  0.00  0.00    +0.000 A 
ENDROOT
BRANCH   8  19
ATOM     19  C   UNL     1      -5.457 -16.271  20.507  0.00  0.00    +0.000 C 
ATOM     20  C   UNL     1      -4.178 -15.428  20.505  0.00  0.00    +0.000 C 
BRANCH  20  21
ATOM     21  C   UNL     1      -2.887 -14.605  20.517  0.00  0.00    +0.000 C 
ATOM     22  C   UNL     1      -1.605 -13.766  20.505  0.00  0.00    +0.000 C 
BRANCH  22  23
ATOM     23  C   UNL     1      -0.335 -12.912  20.463  0.00  0.00    +0.000 C 
BRANCH  23  24
ATOM     24  C   UNL     1       0.936 -12.059  20.385  0.00  0.00    +0.000 C 
ATOM     25  C   UNL     1       2.219 -11.229  20.284  0.00  0.00    +0.000 C 
BRANCH  25  26
ATOM     26  C   UNL     1       3.517 -10.424  20.161  0.00  0.00    +0.000 C 
ATOM     27  C   UNL     1       4.818  -9.630  20.003  0.00  0.00    +0.000 C 
BRANCH  27  28
ATOM     28  S   UNL     1       6.316  -8.731  19.789  0.00  0.00    +0.000 S 
ATOM     29  O   UNL     1       7.097  -9.984  19.525  0.00  0.00    +0.000 OA
BRANCH  28  30
ATOM     30  C   UNL     1       6.043  -8.463  18.071  0.00  0.00    +0.000 C 
BRANCH  30  31
ATOM     31  C   UNL     1       5.791  -8.248  16.574  0.00  0.00    +0.000 C 
ATOM     32  C   UNL     1       5.555  -8.024  15.076  0.00  0.00    +0.000 C 
BRANCH  32  33
ATOM     33  C   UNL     1       5.337  -7.804  13.644  0.00  0.00    +0.000 C 
ATOM     34  F   UNL     1       6.557  -7.710  13.044  0.00  0.00    +0.000 F 
ATOM     35  F   UNL     1       4.752  -6.583  13.495  0.00  0.00    +0.000 F 
BRANCH  33  36
ATOM     36  C   UNL     1       4.489  -8.897  12.985  0.00  0.00    +0.000 C 
ATOM     37  F   UNL     1       5.031  -9.326  11.817  0.00  0.00    +0.000 F 
ATOM     38  F   UNL     1       3.233  -8.470  12.703  0.00  0.00    +0.000 F 
ATOM     39  F   UNL     1       4.364  -9.988  13.783  0.00  0.00    +0.000 F 
ENDBRANCH  33  36
ENDBRANCH  32  33
ENDBRANCH  30  31
ENDBRANCH  28  30
ENDBRANCH  27  28
ENDBRANCH  25  26
ENDBRANCH  23  24
ENDBRANCH  22  23
ENDBRANCH  20  21
ENDBRANCH   8  19
BRANCH   6  40
ATOM     40  O   UNL     1      -4.445 -22.816  19.311  0.00  0.00    +0.000 OA
ATOM     41  H   UNL     1      -3.555 -23.192  19.188  0.00  0.00    +0.000 HD
ENDBRANCH   6  40
BRANCH  18  42
ATOM     42  O   UNL     1     -12.748 -16.311  21.409  0.00  0.00    +0.000 OA
ATOM     43  H   UNL     1     -13.070 -15.806  20.642  0.00  0.00    +0.000 HD
ENDBRANCH  18  42
TORSDOF 12
ENDMDL
MODEL 6
REMARK VINA RESULT:      -5.6     18.079     20.986
REMARK  Name = Fulvestrant.pdbqt.pdb
REMARK  12 active torsions:
REMARK  status: ('A' for Active; 'I' for Inactive)
REMARK    1  A    between atoms: C_6  and  O_40
REMARK    2  A    between atoms: C_8  and  C_19
REMARK    3  A    between atoms: C_18  and  O_42
REMARK    4  A    between atoms: C_20  and  C_21
REMARK    5  A    between atoms: C_22  and  C_23
REMARK    6  A    between atoms: C_23  and  C_24
REMARK    7  A    between atoms: C_25  and  C_26
REMARK    8  A    between atoms: C_27  and  S_28
REMARK    9  A    between atoms: S_28  and  C_30
REMARK   10  A    between atoms: C_30  and  C_31
REMARK   11  A    between atoms: C_32  and  C_33
REMARK   12  A    between atoms: C_33  and  C_36
REMARK                            x       y       z     vdW  Elec       q    Type
REMARK                         _______ _______ _______ _____ _____    ______ ____
ROOT
ATOM      1  C   UNL     1       3.277 -14.511  16.546  0.00  0.00    +0.000 C 
ATOM      2  C   UNL     1       3.655 -15.243  17.923  0.00  0.00    +0.000 C 
ATOM      3  C   UNL     1       3.047 -15.235  15.254  0.00  0.00    +0.000 A 
ATOM      4  C   UNL     1       2.752 -16.749  15.223  0.00  0.00    +0.000 A 
ATOM      5  C   UNL     1       3.235 -16.631  17.762  0.00  0.00    +0.000 C 
ATOM      6  C   UNL     1       2.822 -14.466  18.966  0.00  0.00    +0.000 C 
ATOM      7  C   UNL     1       2.447 -13.395  16.889  0.00  0.00    +0.000 C 
ATOM      8  C   UNL     1       3.073 -14.533  13.944  0.00  0.00    +0.000 A 
ATOM      9  C   UNL     1       2.822 -17.344  16.504  0.00  0.00    +0.000 C 
ATOM     10  C   UNL     1       2.143 -13.373  18.365  0.00  0.00    +0.000 C 
ATOM     11  C   UNL     1       5.171 -15.060  18.184  0.00  0.00    +0.000 C 
ATOM     12  C   UNL     1       2.475 -17.507  13.970  0.00  0.00    +0.000 A 
ATOM     13  C   UNL     1       2.778 -15.423  12.883  0.00  0.00    +0.000 A 
ATOM     14  C   UNL     1       2.489 -16.804  12.742  0.00  0.00    +0.000 A 
ATOM     15  C   UNL     1       2.207 -18.874  13.956  0.00  0.00    +0.000 A 
ATOM     16  C   UNL     1       2.245 -17.429  11.530  0.00  0.00    +0.000 A 
ATOM     17  C   UNL     1       1.959 -19.518  12.742  0.00  0.00    +0.000 A 
ATOM     18  C   UNL     1       1.981 -18.795  11.548  0.00  0.00    +0.000 A 
ENDROOT
BRANCH   8  19
ATOM     19  C   UNL     1       3.519 -13.200  13.776  0.00  0.00    +0.000 C 
ATOM     20  C   UNL     1       3.987 -11.755  13.579  0.00  0.00    +0.000 C 
BRANCH  20  21
ATOM     21  C   UNL     1       4.435 -10.307  13.361  0.00  0.00    +0.000 C 
ATOM     22  C   UNL     1       4.898  -8.867  13.116  0.00  0.00    +0.000 C 
BRANCH  22  23
ATOM     23  C   UNL     1       5.378  -7.439  12.843  0.00  0.00    +0.000 C 
BRANCH  23  24
ATOM     24  C   UNL     1       5.859  -6.017  12.535  0.00  0.00    +0.000 C 
ATOM     25  C   UNL     1       6.342  -4.604  12.193  0.00  0.00    +0.000 C 
BRANCH  25  26
ATOM     26  C   UNL     1       6.830  -3.201  11.816  0.00  0.00    +0.000 C 
ATOM     27  C   UNL     1       7.286  -1.793  11.423  0.00  0.00    +0.000 C 
BRANCH  27  28
ATOM     28  S   UNL     1       7.780  -0.170  10.952  0.00  0.00    +0.000 S 
ATOM     29  O   UNL     1       8.876  -0.697  10.073  0.00  0.00    +0.000 OA
BRANCH  28  30
ATOM     30  C   UNL     1       6.650  -0.094   9.603  0.00  0.00    +0.000 C 
BRANCH  30  31
ATOM     31  C   UNL     1       5.680  -0.011   8.420  0.00  0.00    +0.000 C 
ATOM     32  C   UNL     1       4.721   0.087   7.228  0.00  0.00    +0.000 C 
BRANCH  32  33
ATOM     33  C   UNL     1       3.808   0.188   6.086  0.00  0.00    +0.000 C 
ATOM     34  F   UNL     1       3.796  -1.018   5.450  0.00  0.00    +0.000 F 
ATOM     35  F   UNL     1       4.347   1.072   5.200  0.00  0.00    +0.000 F 
BRANCH  33  36
ATOM     36  C   UNL     1       2.389   0.609   6.479  0.00  0.00    +0.000 C 
ATOM     37  F   UNL     1       1.816   1.407   5.541  0.00  0.00    +0.000 F 
ATOM     38  F   UNL     1       2.364   1.296   7.649  0.00  0.00    +0.000 F 
ATOM     39  F   UNL     1       1.570  -0.462   6.635  0.00  0.00    +0.000 F 
ENDBRANCH  33  36
ENDBRANCH  32  33
ENDBRANCH  30  31
ENDBRANCH  28  30
ENDBRANCH  27  28
ENDBRANCH  25  26
ENDBRANCH  23  24
ENDBRANCH  22  23
ENDBRANCH  20  21
ENDBRANCH   8  19
BRANCH   6  40
ATOM     40  O   UNL     1       2.406 -15.026  20.156  0.00  0.00    +0.000 OA
ATOM     41  H   UNL     1       2.398 -14.374  20.879  0.00  0.00    +0.000 HD
ENDBRANCH   6  40
BRANCH  18  42
ATOM     42  O   UNL     1       1.733 -19.469  10.385  0.00  0.00    +0.000 OA
ATOM     43  H   UNL     1       2.354 -20.216  10.325  0.00  0.00    +0.000 HD
ENDBRANCH  18  42
TORSDOF 12
ENDMDL
MODEL 7
REMARK VINA RESULT:      -5.6     20.694     23.075
REMARK  Name = Fulvestrant.pdbqt.pdb
REMARK  12 active torsions:
REMARK  status: ('A' for Active; 'I' for Inactive)
REMARK    1  A    between atoms: C_6  and  O_40
REMARK    2  A    between atoms: C_8  and  C_19
REMARK    3  A    between atoms: C_18  and  O_42
REMARK    4  A    between atoms: C_20  and  C_21
REMARK    5  A    between atoms: C_22  and  C_23
REMARK    6  A    between atoms: C_23  and  C_24
REMARK    7  A    between atoms: C_25  and  C_26
REMARK    8  A    between atoms: C_27  and  S_28
REMARK    9  A    between atoms: S_28  and  C_30
REMARK   10  A    between atoms: C_30  and  C_31
REMARK   11  A    between atoms: C_32  and  C_33
REMARK   12  A    between atoms: C_33  and  C_36
REMARK                            x       y       z     vdW  Elec       q    Type
REMARK                         _______ _______ _______ _____ _____    ______ ____
ROOT
ATOM      1  C   UNL     1      -3.471 -17.549  27.148  0.00  0.00    +0.000 C 
ATOM      2  C   UNL     1      -3.267 -18.825  28.098  0.00  0.00    +0.000 C 
ATOM      3  C   UNL     1      -4.792 -16.872  26.935  0.00  0.00    +0.000 A 
ATOM      4  C   UNL     1      -5.968 -17.080  27.912  0.00  0.00    +0.000 A 
ATOM      5  C   UNL     1      -4.406 -18.827  29.010  0.00  0.00    +0.000 C 
ATOM      6  C   UNL     1      -1.922 -18.523  28.796  0.00  0.00    +0.000 C 
ATOM      7  C   UNL     1      -2.282 -16.759  27.259  0.00  0.00    +0.000 C 
ATOM      8  C   UNL     1      -5.031 -15.955  25.790  0.00  0.00    +0.000 A 
ATOM      9  C   UNL     1      -5.675 -18.024  28.925  0.00  0.00    +0.000 C 
ATOM     10  C   UNL     1      -1.338 -17.334  28.283  0.00  0.00    +0.000 C 
ATOM     11  C   UNL     1      -3.153 -20.092  27.213  0.00  0.00    +0.000 C 
ATOM     12  C   UNL     1      -7.286 -16.400  27.770  0.00  0.00    +0.000 A 
ATOM     13  C   UNL     1      -6.335 -15.406  25.839  0.00  0.00    +0.000 A 
ATOM     14  C   UNL     1      -7.472 -15.518  26.679  0.00  0.00    +0.000 A 
ATOM     15  C   UNL     1      -8.339 -16.595  28.661  0.00  0.00    +0.000 A 
ATOM     16  C   UNL     1      -8.665 -14.845  26.468  0.00  0.00    +0.000 A 
ATOM     17  C   UNL     1      -9.547 -15.923  28.462  0.00  0.00    +0.000 A 
ATOM     18  C   UNL     1      -9.699 -15.061  27.374  0.00  0.00    +0.000 A 
ENDROOT
BRANCH   8  19
ATOM     19  C   UNL     1      -4.136 -15.807  24.703  0.00  0.00    +0.000 C 
ATOM     20  C   UNL     1      -3.155 -15.662  23.535  0.00  0.00    +0.000 C 
BRANCH  20  21
ATOM     21  C   UNL     1      -2.155 -15.535  22.383  0.00  0.00    +0.000 C 
ATOM     22  C   UNL     1      -1.131 -15.410  21.251  0.00  0.00    +0.000 C 
BRANCH  22  23
ATOM     23  C   UNL     1      -0.081 -15.287  20.142  0.00  0.00    +0.000 C 
BRANCH  23  24
ATOM     24  C   UNL     1       0.967 -15.200  19.027  0.00  0.00    +0.000 C 
ATOM     25  C   UNL     1       2.006 -15.146  17.904  0.00  0.00    +0.000 C 
BRANCH  25  26
ATOM     26  C   UNL     1       3.040 -15.126  16.773  0.00  0.00    +0.000 C 
ATOM     27  C   UNL     1       4.063 -15.141  15.633  0.00  0.00    +0.000 C 
BRANCH  27  28
ATOM     28  S   UNL     1       5.233 -15.192  14.319  0.00  0.00    +0.000 S 
ATOM     29  O   UNL     1       4.256 -15.861  13.398  0.00  0.00    +0.000 OA
BRANCH  28  30
ATOM     30  C   UNL     1       4.800 -13.594  13.719  0.00  0.00    +0.000 C 
BRANCH  30  31
ATOM     31  C   UNL     1       4.442 -12.194  13.209  0.00  0.00    +0.000 C 
ATOM     32  C   UNL     1       4.096 -10.795  12.685  0.00  0.00    +0.000 C 
BRANCH  32  33
ATOM     33  C   UNL     1       3.773  -9.459  12.178  0.00  0.00    +0.000 C 
ATOM     34  F   UNL     1       4.832  -9.024  11.438  0.00  0.00    +0.000 F 
ATOM     35  F   UNL     1       3.692  -8.617  13.245  0.00  0.00    +0.000 F 
BRANCH  33  36
ATOM     36  C   UNL     1       2.481  -9.419  11.355  0.00  0.00    +0.000 C 
ATOM     37  F   UNL     1       2.132 -10.648  10.895  0.00  0.00    +0.000 F 
ATOM     38  F   UNL     1       2.588  -8.610  10.272  0.00  0.00    +0.000 F 
ATOM     39  F   UNL     1       1.432  -8.962  12.086  0.00  0.00    +0.000 F 
ENDBRANCH  33  36
ENDBRANCH  32  33
ENDBRANCH  30  31
ENDBRANCH  28  30
ENDBRANCH  27  28
ENDBRANCH  25  26
ENDBRANCH  23  24
ENDBRANCH  22  23
ENDBRANCH  20  21
ENDBRANCH   8  19
BRANCH   6  40
ATOM     40  O   UNL     1      -1.595 -19.028  30.037  0.00  0.00    +0.000 OA
ATOM     41  H   UNL     1      -0.633 -19.136  30.141  0.00  0.00    +0.000 HD
ENDBRANCH   6  40
BRANCH  18  42
ATOM     42  O   UNL     1     -10.899 -14.427  27.220  0.00  0.00    +0.000 OA
ATOM     43  H   UNL     1     -11.187 -14.535  26.297  0.00  0.00    +0.000 HD
ENDBRANCH  18  42
TORSDOF 12
ENDMDL
MODEL 8
REMARK VINA RESULT:      -5.6     16.024     18.873
REMARK  Name = Fulvestrant.pdbqt.pdb
REMARK  12 active torsions:
REMARK  status: ('A' for Active; 'I' for Inactive)
REMARK    1  A    between atoms: C_6  and  O_40
REMARK    2  A    between atoms: C_8  and  C_19
REMARK    3  A    between atoms: C_18  and  O_42
REMARK    4  A    between atoms: C_20  and  C_21
REMARK    5  A    between atoms: C_22  and  C_23
REMARK    6  A    between atoms: C_23  and  C_24
REMARK    7  A    between atoms: C_25  and  C_26
REMARK    8  A    between atoms: C_27  and  S_28
REMARK    9  A    between atoms: S_28  and  C_30
REMARK   10  A    between atoms: C_30  and  C_31
REMARK   11  A    between atoms: C_32  and  C_33
REMARK   12  A    between atoms: C_33  and  C_36
REMARK                            x       y       z     vdW  Elec       q    Type
REMARK                         _______ _______ _______ _____ _____    ______ ____
ROOT
ATOM      1  C   UNL     1      -1.762  -2.732   0.642  0.00  0.00    +0.000 C 
ATOM      2  C   UNL     1      -0.993  -4.104   0.327  0.00  0.00    +0.000 C 
ATOM      3  C   UNL     1      -1.501  -1.890   1.855  0.00  0.00    +0.000 A 
ATOM      4  C   UNL     1      -0.207  -2.050   2.680  0.00  0.00    +0.000 A 
ATOM      5  C   UNL     1       0.238  -4.058   1.110  0.00  0.00    +0.000 C 
ATOM      6  C   UNL     1      -0.755  -4.024  -1.197  0.00  0.00    +0.000 C 
ATOM      7  C   UNL     1      -2.003  -2.098  -0.620  0.00  0.00    +0.000 C 
ATOM      8  C   UNL     1      -2.460  -0.851   2.313  0.00  0.00    +0.000 A 
ATOM      9  C   UNL     1       0.608  -3.110   2.216  0.00  0.00    +0.000 C 
ATOM     10  C   UNL     1      -1.370  -2.869  -1.749  0.00  0.00    +0.000 C 
ATOM     11  C   UNL     1      -1.928  -5.290   0.675  0.00  0.00    +0.000 C 
ATOM     12  C   UNL     1       0.120  -1.212   3.868  0.00  0.00    +0.000 A 
ATOM     13  C   UNL     1      -1.963  -0.162   3.446  0.00  0.00    +0.000 A 
ATOM     14  C   UNL     1      -0.807  -0.219   4.265  0.00  0.00    +0.000 A 
ATOM     15  C   UNL     1       1.293  -1.364   4.603  0.00  0.00    +0.000 A 
ATOM     16  C   UNL     1      -0.586   0.603   5.358  0.00  0.00    +0.000 A 
ATOM     17  C   UNL     1       1.530  -0.543   5.707  0.00  0.00    +0.000 A 
ATOM     18  C   UNL     1       0.595   0.426   6.073  0.00  0.00    +0.000 A 
ENDROOT
BRANCH   8  19
ATOM     19  C   UNL     1      -3.770  -0.710   1.795  0.00  0.00    +0.000 C 
ATOM     20  C   UNL     1      -5.195  -0.571   1.250  0.00  0.00    +0.000 C 
BRANCH  20  21
ATOM     21  C   UNL     1      -6.627  -0.453   0.723  0.00  0.00    +0.000 C 
ATOM     22  C   UNL     1      -8.065  -0.367   0.200  0.00  0.00    +0.000 C 
BRANCH  22  23
ATOM     23  C   UNL     1      -9.505  -0.315  -0.319  0.00  0.00    +0.000 C 
BRANCH  23  24
ATOM     24  C   UNL     1     -10.957  -0.262  -0.806  0.00  0.00    +0.000 C 
ATOM     25  C   UNL     1     -12.410  -0.244  -1.289  0.00  0.00    +0.000 C 
BRANCH  25  26
ATOM     26  C   UNL     1     -13.863  -0.261  -1.775  0.00  0.00    +0.000 C 
ATOM     27  C   UNL     1     -15.326  -0.297  -2.229  0.00  0.00    +0.000 C 
BRANCH  27  28
ATOM     28  S   UNL     1     -17.014  -0.358  -2.723  0.00  0.00    +0.000 S 
ATOM     29  O   UNL     1     -17.379  -1.248  -1.572  0.00  0.00    +0.000 OA
BRANCH  28  30
ATOM     30  C   UNL     1     -17.449   1.091  -1.822  0.00  0.00    +0.000 C 
BRANCH  30  31
ATOM     31  C   UNL     1     -17.833   2.363  -1.058  0.00  0.00    +0.000 C 
ATOM     32  C   UNL     1     -18.200   3.641  -0.295  0.00  0.00    +0.000 C 
BRANCH  32  33
ATOM     33  C   UNL     1     -18.541   4.865   0.435  0.00  0.00    +0.000 C 
ATOM     34  F   UNL     1     -17.569   5.787   0.185  0.00  0.00    +0.000 F 
ATOM     35  F   UNL     1     -18.462   4.591   1.767  0.00  0.00    +0.000 F 
BRANCH  33  36
ATOM     36  C   UNL     1     -19.923   5.420   0.075  0.00  0.00    +0.000 C 
ATOM     37  F   UNL     1     -20.787   4.438  -0.287  0.00  0.00    +0.000 F 
ATOM     38  F   UNL     1     -19.869   6.299  -0.957  0.00  0.00    +0.000 F 
ATOM     39  F   UNL     1     -20.490   6.076   1.120  0.00  0.00    +0.000 F 
ENDBRANCH  33  36
ENDBRANCH  32  33
ENDBRANCH  30  31
ENDBRANCH  28  30
ENDBRANCH  27  28
ENDBRANCH  25  26
ENDBRANCH  23  24
ENDBRANCH  22  23
ENDBRANCH  20  21
ENDBRANCH   8  19
BRANCH   6  40
ATOM     40  O   UNL     1       0.287  -4.674  -1.825  0.00  0.00    +0.000 OA
ATOM     41  H   UNL     1       0.412  -4.358  -2.738  0.00  0.00    +0.000 HD
ENDBRANCH   6  40
BRANCH  18  42
ATOM     42  O   UNL     1       0.870   1.206   7.160  0.00  0.00    +0.000 OA
ATOM     43  H   UNL     1       1.611   1.795   6.936  0.00  0.00    +0.000 HD
ENDBRANCH  18  42
TORSDOF 12
ENDMDL
MODEL 9
REMARK VINA RESULT:      -5.6     16.985     19.325
REMARK  Name = Fulvestrant.pdbqt.pdb
REMARK  12 active torsions:
REMARK  status: ('A' for Active; 'I' for Inactive)
REMARK    1  A    between atoms: C_6  and  O_40
REMARK    2  A    between atoms: C_8  and  C_19
REMARK    3  A    between atoms: C_18  and  O_42
REMARK    4  A    between atoms: C_20  and  C_21
REMARK    5  A    between atoms: C_22  and  C_23
REMARK    6  A    between atoms: C_23  and  C_24
REMARK    7  A    between atoms: C_25  and  C_26
REMARK    8  A    between atoms: C_27  and  S_28
REMARK    9  A    between atoms: S_28  and  C_30
REMARK   10  A    between atoms: C_30  and  C_31
REMARK   11  A    between atoms: C_32  and  C_33
REMARK   12  A    between atoms: C_33  and  C_36
REMARK                            x       y       z     vdW  Elec       q    Type
REMARK                         _______ _______ _______ _____ _____    ______ ____
ROOT
ATOM      1  C   UNL     1       1.357   2.304   6.883  0.00  0.00    +0.000 C 
ATOM      2  C   UNL     1       2.872   2.646   7.286  0.00  0.00    +0.000 C 
ATOM      3  C   UNL     1       0.183   2.536   7.785  0.00  0.00    +0.000 A 
ATOM      4  C   UNL     1       0.276   3.489   8.996  0.00  0.00    +0.000 A 
ATOM      5  C   UNL     1       2.784   3.616   8.373  0.00  0.00    +0.000 C 
ATOM      6  C   UNL     1       3.450   3.237   5.981  0.00  0.00    +0.000 C 
ATOM      7  C   UNL     1       1.235   2.570   5.481  0.00  0.00    +0.000 C 
ATOM      8  C   UNL     1      -1.131   1.880   7.553  0.00  0.00    +0.000 A 
ATOM      9  C   UNL     1       1.580   4.007   9.183  0.00  0.00    +0.000 C 
ATOM     10  C   UNL     1       2.503   3.163   4.924  0.00  0.00    +0.000 C 
ATOM     11  C   UNL     1       3.597   1.328   7.660  0.00  0.00    +0.000 C 
ATOM     12  C   UNL     1      -0.872   3.787   9.898  0.00  0.00    +0.000 A 
ATOM     13  C   UNL     1      -2.087   2.300   8.509  0.00  0.00    +0.000 A 
ATOM     14  C   UNL     1      -2.113   3.160   9.636  0.00  0.00    +0.000 A 
ATOM     15  C   UNL     1      -0.775   4.651  10.987  0.00  0.00    +0.000 A 
ATOM     16  C   UNL     1      -3.231   3.377  10.425  0.00  0.00    +0.000 A 
ATOM     17  C   UNL     1      -1.894   4.881  11.790  0.00  0.00    +0.000 A 
ATOM     18  C   UNL     1      -3.103   4.245  11.504  0.00  0.00    +0.000 A 
ENDROOT
BRANCH   8  19
ATOM     19  C   UNL     1      -1.332   0.837   6.617  0.00  0.00    +0.000 C 
ATOM     20  C   UNL     1      -1.571  -0.288   5.605  0.00  0.00    +0.000 C 
BRANCH  20  21
ATOM     21  C   UNL     1      -1.839  -1.409   4.597  0.00  0.00    +0.000 C 
ATOM     22  C   UNL     1      -2.139  -2.529   3.596  0.00  0.00    +0.000 C 
BRANCH  22  23
ATOM     23  C   UNL     1      -2.470  -3.650   2.607  0.00  0.00    +0.000 C 
BRANCH  23  24
ATOM     24  C   UNL     1      -2.786  -4.753   1.590  0.00  0.00    +0.000 C 
ATOM     25  C   UNL     1      -3.095  -5.832   0.548  0.00  0.00    +0.000 C 
BRANCH  25  26
ATOM     26  C   UNL     1      -3.400  -6.887  -0.520  0.00  0.00    +0.000 C 
ATOM     27  C   UNL     1      -3.669  -7.944  -1.596  0.00  0.00    +0.000 C 
BRANCH  27  28
ATOM     28  S   UNL     1      -3.945  -9.157  -2.841  0.00  0.00    +0.000 S 
ATOM     29  O   UNL     1      -3.579 -10.277  -1.911  0.00  0.00    +0.000 OA
BRANCH  28  30
ATOM     30  C   UNL     1      -5.657  -9.321  -2.463  0.00  0.00    +0.000 C 
BRANCH  30  31
ATOM     31  C   UNL     1      -7.147  -9.485  -2.143  0.00  0.00    +0.000 C 
ATOM     32  C   UNL     1      -8.641  -9.649  -1.842  0.00  0.00    +0.000 C 
BRANCH  32  33
ATOM     33  C   UNL     1     -10.071  -9.803  -1.563  0.00  0.00    +0.000 C 
ATOM     34  F   UNL     1     -10.216 -10.026  -0.226  0.00  0.00    +0.000 F 
ATOM     35  F   UNL     1     -10.495 -10.941  -2.179  0.00  0.00    +0.000 F 
BRANCH  33  36
ATOM     36  C   UNL     1     -10.909  -8.600  -2.007  0.00  0.00    +0.000 C 
ATOM     37  F   UNL     1     -11.604  -8.856  -3.145  0.00  0.00    +0.000 F 
ATOM     38  F   UNL     1     -10.145  -7.506  -2.251  0.00  0.00    +0.000 F 
ATOM     39  F   UNL     1     -11.818  -8.242  -1.065  0.00  0.00    +0.000 F 
ENDBRANCH  33  36
ENDBRANCH  32  33
ENDBRANCH  30  31
ENDBRANCH  28  30
ENDBRANCH  27  28
ENDBRANCH  25  26
ENDBRANCH  23  24
ENDBRANCH  22  23
ENDBRANCH  20  21
ENDBRANCH   8  19
BRANCH   6  40
ATOM     40  O   UNL     1       4.500   4.131   5.967  0.00  0.00    +0.000 OA
ATOM     41  H   UNL     1       5.330   3.709   5.683  0.00  0.00    +0.000 HD
ENDBRANCH   6  40
BRANCH  18  42
ATOM     42  O   UNL     1      -4.170   4.499  12.319  0.00  0.00    +0.000 OA
ATOM     43  H   UNL     1      -4.922   3.960  12.018  0.00  0.00    +0.000 HD
ENDBRANCH  18  42
TORSDOF 12
ENDMDL
