MODEL 1
REMARK VINA RESULT:      -5.7      0.000      0.000
REMARK  Name = Gefitinib.pdbqt.pdb
REMARK  6 active torsions:
REMARK  status: ('A' for Active; 'I' for Inactive)
REMARK    1  A    between atoms: C_3  and  O_11
REMARK    2  A    between atoms: C_6  and  O_21
REMARK    3  A    between atoms: O_11  and  C_12
REMARK    4  A    between atoms: C_13  and  C_14
REMARK    5  A    between atoms: C_14  and  N_15
REMARK    6  A    between atoms: N_23  and  C_25
REMARK                            x       y       z     vdW  Elec       q    Type
REMARK                         _______ _______ _______ _____ _____    ______ ____
ROOT
ATOM      1  N   UNL     1     -23.945  -6.565  14.338  0.00  0.00    +0.000 NA
ATOM      2  N   UNL     1     -23.018  -6.043  12.206  0.00  0.00    +0.000 NA
ATOM      3  C   UNL     1     -24.051  -2.537  15.373  0.00  0.00    +0.000 A 
ATOM      4  C   UNL     1     -23.535  -4.285  13.744  0.00  0.00    +0.000 A 
ATOM      5  C   UNL     1     -23.577  -2.932  14.122  0.00  0.00    +0.000 A 
ATOM      6  C   UNL     1     -24.498  -3.514  16.263  0.00  0.00    +0.000 A 
ATOM      7  C   UNL     1     -23.973  -5.266  14.637  0.00  0.00    +0.000 A 
ATOM      8  C   UNL     1     -24.448  -4.858  15.877  0.00  0.00    +0.000 A 
ATOM      9  C   UNL     1     -23.063  -4.734  12.503  0.00  0.00    +0.000 A 
ATOM     10  C   UNL     1     -23.463  -6.898  13.135  0.00  0.00    +0.000 A 
ATOM     11  N   UNL     1     -22.584  -3.784  11.564  0.00  0.00    +0.000 N 
ATOM     12  H   UNL     1     -23.224  -3.000  11.480  0.00  0.00    +0.000 HD
ENDROOT
BRANCH  11  13
ATOM     13  C   UNL     1     -21.890  -4.030  10.359  0.00  0.00    +0.000 A 
ATOM     14  C   UNL     1     -22.296  -3.366   9.196  0.00  0.00    +0.000 A 
ATOM     15  C   UNL     1     -21.578  -3.495   8.009  0.00  0.00    +0.000 A 
ATOM     16 CL   UNL     1     -22.145  -2.682   6.606  0.00  0.00    +0.000 Cl
ATOM     17  C   UNL     1     -20.425  -4.270   7.980  0.00  0.00    +0.000 A 
ATOM     18  F   UNL     1     -19.720  -4.407   6.847  0.00  0.00    +0.000 F 
ATOM     19  C   UNL     1     -19.978  -4.908   9.129  0.00  0.00    +0.000 A 
ATOM     20  C   UNL     1     -20.702  -4.769  10.312  0.00  0.00    +0.000 A 
ENDBRANCH  11  13
BRANCH   6  21
ATOM     21  O   UNL     1     -24.957  -3.082  17.486  0.00  0.00    +0.000 OA
ATOM     22  C   UNL     1     -26.338  -3.190  17.688  0.00  0.00    +0.000 C 
ENDBRANCH   6  21
BRANCH   3  23
ATOM     23  O   UNL     1     -24.107  -1.225  15.779  0.00  0.00    +0.000 OA
BRANCH  23  24
ATOM     24  C   UNL     1     -23.751  -0.340  14.851  0.00  0.00    +0.000 C 
ATOM     25  C   UNL     1     -23.331   0.688  13.795  0.00  0.00    +0.000 C 
BRANCH  25  26
ATOM     26  C   UNL     1     -22.889   1.730  12.762  0.00  0.00    +0.000 C 
BRANCH  26  27
ATOM     27  N   UNL     1     -22.482   2.724  11.779  0.00  0.00    +0.000 N 
ATOM     28  C   UNL     1     -20.999   2.863  11.899  0.00  0.00    +0.000 C 
ATOM     29  C   UNL     1     -19.887   2.406  10.899  0.00  0.00    +0.000 C 
ATOM     30  O   UNL     1     -19.886   1.783   9.700  0.00  0.00    +0.000 OA
ATOM     31  C   UNL     1     -21.224   1.656   9.592  0.00  0.00    +0.000 C 
ATOM     32  C   UNL     1     -22.466   2.034  10.454  0.00  0.00    +0.000 C 
ENDBRANCH  26  27
ENDBRANCH  25  26
ENDBRANCH  23  24
ENDBRANCH   3  23
TORSDOF 6
ENDMDL
MODEL 2
REMARK VINA RESULT:      -5.7     27.965     30.893
REMARK  Name = Gefitinib.pdbqt.pdb
REMARK  6 active torsions:
REMARK  status: ('A' for Active; 'I' for Inactive)
REMARK    1  A    between atoms: C_3  and  O_11
REMARK    2  A    between atoms: C_6  and  O_21
REMARK    3  A    between atoms: O_11  and  C_12
REMARK    4  A    between atoms: C_13  and  C_14
REMARK    5  A    between atoms: C_14  and  N_15
REMARK    6  A    between atoms: N_23  and  C_25
REMARK                            x       y       z     vdW  Elec       q    Type
REMARK                         _______ _______ _______ _____ _____    ______ ____
ROOT
ATOM      1  N   UNL     1       2.699 -15.332  15.994  0.00  0.00    +0.000 NA
ATOM      2  N   UNL     1       3.534 -13.499  14.722  0.00  0.00    +0.000 NA
ATOM      3  C   UNL     1       2.101 -17.569  12.538  0.00  0.00    +0.000 A 
ATOM      4  C   UNL     1       2.850 -15.505  13.614  0.00  0.00    +0.000 A 
ATOM      5  C   UNL     1       2.632 -16.281  12.462  0.00  0.00    +0.000 A 
ATOM      6  C   UNL     1       1.785 -18.095  13.791  0.00  0.00    +0.000 A 
ATOM      7  C   UNL     1       2.525 -16.026  14.869  0.00  0.00    +0.000 A 
ATOM      8  C   UNL     1       2.003 -17.311  14.930  0.00  0.00    +0.000 A 
ATOM      9  C   UNL     1       3.374 -14.206  13.592  0.00  0.00    +0.000 A 
ATOM     10  C   UNL     1       3.192 -14.093  15.871  0.00  0.00    +0.000 A 
ATOM     11  N   UNL     1       3.701 -13.617  12.343  0.00  0.00    +0.000 N 
ATOM     12  H   UNL     1       4.227 -14.262  11.762  0.00  0.00    +0.000 HD
ENDROOT
BRANCH  11  13
ATOM     13  C   UNL     1       4.044 -12.272  12.082  0.00  0.00    +0.000 A 
ATOM     14  C   UNL     1       3.027 -11.311  12.030  0.00  0.00    +0.000 A 
ATOM     15  C   UNL     1       3.326  -9.959  11.880  0.00  0.00    +0.000 A 
ATOM     16 CL   UNL     1       2.034  -8.831  11.790  0.00  0.00    +0.000 Cl
ATOM     17  C   UNL     1       4.652  -9.548  11.808  0.00  0.00    +0.000 A 
ATOM     18  F   UNL     1       4.960  -8.250  11.662  0.00  0.00    +0.000 F 
ATOM     19  C   UNL     1       5.681 -10.476  11.895  0.00  0.00    +0.000 A 
ATOM     20  C   UNL     1       5.371 -11.826  12.048  0.00  0.00    +0.000 A 
ENDBRANCH  11  13
BRANCH   6  21
ATOM     21  O   UNL     1       1.263 -19.367  13.821  0.00  0.00    +0.000 OA
ATOM     22  C   UNL     1       0.823 -19.813  15.073  0.00  0.00    +0.000 C 
ENDBRANCH   6  21
BRANCH   3  23
ATOM     23  O   UNL     1       1.873 -18.357  11.436  0.00  0.00    +0.000 OA
BRANCH  23  24
ATOM     24  C   UNL     1       2.811 -19.273  11.204  0.00  0.00    +0.000 C 
ATOM     25  C   UNL     1       3.880 -20.340  10.946  0.00  0.00    +0.000 C 
BRANCH  25  26
ATOM     26  C   UNL     1       4.927 -21.432  10.699  0.00  0.00    +0.000 C 
BRANCH  26  27
ATOM     27  N   UNL     1       5.929 -22.460  10.455  0.00  0.00    +0.000 N 
ATOM     28  C   UNL     1       6.165 -22.486   8.979  0.00  0.00    +0.000 C 
ATOM     29  C   UNL     1       7.426 -22.022   8.180  0.00  0.00    +0.000 C 
ATOM     30  O   UNL     1       8.619 -21.484   8.518  0.00  0.00    +0.000 OA
ATOM     31  C   UNL     1       8.406 -21.460   9.849  0.00  0.00    +0.000 C 
ATOM     32  C   UNL     1       7.251 -21.864  10.813  0.00  0.00    +0.000 C 
ENDBRANCH  26  27
ENDBRANCH  25  26
ENDBRANCH  23  24
ENDBRANCH   3  23
TORSDOF 6
ENDMDL
MODEL 3
REMARK VINA RESULT:      -5.4     27.829     30.735
REMARK  Name = Gefitinib.pdbqt.pdb
REMARK  6 active torsions:
REMARK  status: ('A' for Active; 'I' for Inactive)
REMARK    1  A    between atoms: C_3  and  O_11
REMARK    2  A    between atoms: C_6  and  O_21
REMARK    3  A    between atoms: O_11  and  C_12
REMARK    4  A    between atoms: C_13  and  C_14
REMARK    5  A    between atoms: C_14  and  N_15
REMARK    6  A    between atoms: N_23  and  C_25
REMARK                            x       y       z     vdW  Elec       q    Type
REMARK                         _______ _______ _______ _____ _____    ______ ____
ROOT
ATOM      1  N   UNL     1       2.811 -14.955  16.244  0.00  0.00    +0.000 NA
ATOM      2  N   UNL     1       3.357 -12.996  15.002  0.00  0.00    +0.000 NA
ATOM      3  C   UNL     1       2.047 -17.066  12.742  0.00  0.00    +0.000 A 
ATOM      4  C   UNL     1       2.731 -14.999  13.854  0.00  0.00    +0.000 A 
ATOM      5  C   UNL     1       2.460 -15.734  12.687  0.00  0.00    +0.000 A 
ATOM      6  C   UNL     1       1.906 -17.678  13.987  0.00  0.00    +0.000 A 
ATOM      7  C   UNL     1       2.580 -15.606  15.104  0.00  0.00    +0.000 A 
ATOM      8  C   UNL     1       2.174 -16.934  15.143  0.00  0.00    +0.000 A 
ATOM      9  C   UNL     1       3.141 -13.659  13.855  0.00  0.00    +0.000 A 
ATOM     10  C   UNL     1       3.185 -13.674  16.144  0.00  0.00    +0.000 A 
ATOM     11  N   UNL     1       3.289 -12.984  12.616  0.00  0.00    +0.000 N 
ATOM     12  H   UNL     1       3.804 -13.552  11.950  0.00  0.00    +0.000 HD
ENDROOT
BRANCH  11  13
ATOM     13  C   UNL     1       3.492 -11.604  12.399  0.00  0.00    +0.000 A 
ATOM     14  C   UNL     1       4.758 -11.058  12.645  0.00  0.00    +0.000 A 
ATOM     15  C   UNL     1       5.034  -9.726  12.347  0.00  0.00    +0.000 A 
ATOM     16 CL   UNL     1       6.596  -9.105  12.702  0.00  0.00    +0.000 Cl
ATOM     17  C   UNL     1       4.052  -8.928  11.770  0.00  0.00    +0.000 A 
ATOM     18  F   UNL     1       4.299  -7.643  11.476  0.00  0.00    +0.000 F 
ATOM     19  C   UNL     1       2.801  -9.455  11.480  0.00  0.00    +0.000 A 
ATOM     20  C   UNL     1       2.536 -10.790  11.780  0.00  0.00    +0.000 A 
ENDBRANCH  11  13
BRANCH   6  21
ATOM     21  O   UNL     1       1.497 -18.990  13.996  0.00  0.00    +0.000 OA
ATOM     22  C   UNL     1       1.031 -19.472  15.225  0.00  0.00    +0.000 C 
ENDBRANCH   6  21
BRANCH   3  23
ATOM     23  O   UNL     1       1.773 -17.817  11.624  0.00  0.00    +0.000 OA
BRANCH  23  24
ATOM     24  C   UNL     1       2.647 -18.792  11.381  0.00  0.00    +0.000 C 
ATOM     25  C   UNL     1       3.660 -19.911  11.118  0.00  0.00    +0.000 C 
BRANCH  25  26
ATOM     26  C   UNL     1       4.684 -21.028  10.888  0.00  0.00    +0.000 C 
BRANCH  26  27
ATOM     27  N   UNL     1       5.647 -22.096  10.661  0.00  0.00    +0.000 N 
ATOM     28  C   UNL     1       6.971 -21.584  11.129  0.00  0.00    +0.000 C 
ATOM     29  C   UNL     1       7.804 -22.018  12.379  0.00  0.00    +0.000 C 
ATOM     30  O   UNL     1       7.626 -22.914  13.375  0.00  0.00    +0.000 OA
ATOM     31  C   UNL     1       6.431 -23.376  12.954  0.00  0.00    +0.000 C 
ATOM     32  C   UNL     1       5.463 -23.082  11.768  0.00  0.00    +0.000 C 
ENDBRANCH  26  27
ENDBRANCH  25  26
ENDBRANCH  23  24
ENDBRANCH   3  23
TORSDOF 6
ENDMDL
MODEL 4
REMARK VINA RESULT:      -5.4     18.302     20.710
REMARK  Name = Gefitinib.pdbqt.pdb
REMARK  6 active torsions:
REMARK  status: ('A' for Active; 'I' for Inactive)
REMARK    1  A    between atoms: C_3  and  O_11
REMARK    2  A    between atoms: C_6  and  O_21
REMARK    3  A    between atoms: O_11  and  C_12
REMARK    4  A    between atoms: C_13  and  C_14
REMARK    5  A    between atoms: C_14  and  N_15
REMARK    6  A    between atoms: N_23  and  C_25
REMARK                            x       y       z     vdW  Elec       q    Type
REMARK                         _______ _______ _______ _____ _____    ______ ____
ROOT
ATOM      1  N   UNL     1      -6.956 -10.494  -2.239  0.00  0.00    +0.000 NA
ATOM      2  N   UNL     1      -5.589  -8.813  -1.247  0.00  0.00    +0.000 NA
ATOM      3  C   UNL     1     -10.368  -8.187  -1.650  0.00  0.00    +0.000 A 
ATOM      4  C   UNL     1      -7.948  -8.466  -1.449  0.00  0.00    +0.000 A 
ATOM      5  C   UNL     1      -9.117  -7.710  -1.257  0.00  0.00    +0.000 A 
ATOM      6  C   UNL     1     -10.452  -9.443  -2.253  0.00  0.00    +0.000 A 
ATOM      7  C   UNL     1      -8.030  -9.728  -2.043  0.00  0.00    +0.000 A 
ATOM      8  C   UNL     1      -9.280 -10.187  -2.435  0.00  0.00    +0.000 A 
ATOM      9  C   UNL     1      -6.669  -8.036  -1.066  0.00  0.00    +0.000 A 
ATOM     10  C   UNL     1      -5.781 -10.004  -1.827  0.00  0.00    +0.000 A 
ATOM     11  N   UNL     1      -6.528  -6.772  -0.438  0.00  0.00    +0.000 N 
ATOM     12  H   UNL     1      -7.050  -6.057  -0.935  0.00  0.00    +0.000 HD
ENDROOT
BRANCH  11  13
ATOM     13  C   UNL     1      -5.384  -6.243   0.199  0.00  0.00    +0.000 A 
ATOM     14  C   UNL     1      -4.730  -5.151  -0.383  0.00  0.00    +0.000 A 
ATOM     15  C   UNL     1      -3.662  -4.530   0.260  0.00  0.00    +0.000 A 
ATOM     16 CL   UNL     1      -2.878  -3.214  -0.519  0.00  0.00    +0.000 Cl
ATOM     17  C   UNL     1      -3.252  -4.978   1.511  0.00  0.00    +0.000 A 
ATOM     18  F   UNL     1      -2.226  -4.393   2.146  0.00  0.00    +0.000 F 
ATOM     19  C   UNL     1      -3.909  -6.035   2.127  0.00  0.00    +0.000 A 
ATOM     20  C   UNL     1      -4.978  -6.646   1.476  0.00  0.00    +0.000 A 
ENDBRANCH  11  13
BRANCH   6  21
ATOM     21  O   UNL     1     -11.703  -9.875  -2.625  0.00  0.00    +0.000 OA
ATOM     22  C   UNL     1     -11.759 -11.151  -3.199  0.00  0.00    +0.000 C 
ENDBRANCH   6  21
BRANCH   3  23
ATOM     23  O   UNL     1     -11.533  -7.479  -1.480  0.00  0.00    +0.000 OA
BRANCH  23  24
ATOM     24  C   UNL     1     -11.425  -6.170  -1.694  0.00  0.00    +0.000 C 
ATOM     25  C   UNL     1     -11.284  -4.663  -1.934  0.00  0.00    +0.000 C 
BRANCH  25  26
ATOM     26  C   UNL     1     -11.108  -3.158  -2.166  0.00  0.00    +0.000 C 
BRANCH  26  27
ATOM     27  N   UNL     1     -10.948  -1.730  -2.398  0.00  0.00    +0.000 N 
ATOM     28  C   UNL     1     -11.629  -1.033  -1.265  0.00  0.00    +0.000 C 
ATOM     29  C   UNL     1     -10.993  -0.225  -0.087  0.00  0.00    +0.000 C 
ATOM     30  O   UNL     1      -9.730   0.085   0.279  0.00  0.00    +0.000 OA
ATOM     31  C   UNL     1      -9.115  -0.544  -0.743  0.00  0.00    +0.000 C 
ATOM     32  C   UNL     1      -9.557  -1.380  -1.982  0.00  0.00    +0.000 C 
ENDBRANCH  26  27
ENDBRANCH  25  26
ENDBRANCH  23  24
ENDBRANCH   3  23
TORSDOF 6
ENDMDL
MODEL 5
REMARK VINA RESULT:      -5.3      3.424      6.090
REMARK  Name = Gefitinib.pdbqt.pdb
REMARK  6 active torsions:
REMARK  status: ('A' for Active; 'I' for Inactive)
REMARK    1  A    between atoms: C_3  and  O_11
REMARK    2  A    between atoms: C_6  and  O_21
REMARK    3  A    between atoms: O_11  and  C_12
REMARK    4  A    between atoms: C_13  and  C_14
REMARK    5  A    between atoms: C_14  and  N_15
REMARK    6  A    between atoms: N_23  and  C_25
REMARK                            x       y       z     vdW  Elec       q    Type
REMARK                         _______ _______ _______ _____ _____    ______ ____
ROOT
ATOM      1  N   UNL     1     -24.686  -2.419  15.933  0.00  0.00    +0.000 NA
ATOM      2  N   UNL     1     -23.764  -0.903  14.343  0.00  0.00    +0.000 NA
ATOM      3  C   UNL     1     -23.476  -5.680  13.650  0.00  0.00    +0.000 A 
ATOM      4  C   UNL     1     -23.589  -3.261  13.981  0.00  0.00    +0.000 A 
ATOM      5  C   UNL     1     -23.197  -4.380  13.227  0.00  0.00    +0.000 A 
ATOM      6  C   UNL     1     -24.156  -5.866  14.855  0.00  0.00    +0.000 A 
ATOM      7  C   UNL     1     -24.279  -3.443  15.182  0.00  0.00    +0.000 A 
ATOM      8  C   UNL     1     -24.545  -4.743  15.594  0.00  0.00    +0.000 A 
ATOM      9  C   UNL     1     -23.340  -1.936  13.598  0.00  0.00    +0.000 A 
ATOM     10  C   UNL     1     -24.415  -1.190  15.476  0.00  0.00    +0.000 A 
ATOM     11  N   UNL     1     -22.662  -1.689  12.376  0.00  0.00    +0.000 N 
ATOM     12  H   UNL     1     -21.845  -2.284  12.285  0.00  0.00    +0.000 HD
ENDROOT
BRANCH  11  13
ATOM     13  C   UNL     1     -22.491  -0.454  11.713  0.00  0.00    +0.000 A 
ATOM     14  C   UNL     1     -21.255   0.197  11.802  0.00  0.00    +0.000 A 
ATOM     15  C   UNL     1     -21.005   1.362  11.082  0.00  0.00    +0.000 A 
ATOM     16 CL   UNL     1     -19.480   2.133  11.257  0.00  0.00    +0.000 Cl
ATOM     17  C   UNL     1     -21.983   1.877  10.239  0.00  0.00    +0.000 A 
ATOM     18  F   UNL     1     -21.762   2.999   9.537  0.00  0.00    +0.000 F 
ATOM     19  C   UNL     1     -23.204   1.230  10.103  0.00  0.00    +0.000 A 
ATOM     20  C   UNL     1     -23.442   0.063  10.826  0.00  0.00    +0.000 A 
ENDBRANCH  11  13
BRANCH   6  21
ATOM     21  O   UNL     1     -24.411  -7.163  15.235  0.00  0.00    +0.000 OA
ATOM     22  C   UNL     1     -23.691  -7.623  16.344  0.00  0.00    +0.000 C 
ENDBRANCH   6  21
BRANCH   3  23
ATOM     23  O   UNL     1     -23.110  -6.799  12.942  0.00  0.00    +0.000 OA
BRANCH  23  24
ATOM     24  C   UNL     1     -22.625  -6.554  11.727  0.00  0.00    +0.000 C 
ATOM     25  C   UNL     1     -22.062  -6.256  10.333  0.00  0.00    +0.000 C 
BRANCH  25  26
ATOM     26  C   UNL     1     -21.484  -5.928   8.952  0.00  0.00    +0.000 C 
BRANCH  26  27
ATOM     27  N   UNL     1     -20.936  -5.603   7.643  0.00  0.00    +0.000 N 
ATOM     28  C   UNL     1     -21.982  -5.967   6.639  0.00  0.00    +0.000 C 
ATOM     29  C   UNL     1     -22.863  -5.025   5.755  0.00  0.00    +0.000 C 
ATOM     30  O   UNL     1     -22.974  -3.686   5.614  0.00  0.00    +0.000 OA
ATOM     31  C   UNL     1     -22.032  -3.357   6.520  0.00  0.00    +0.000 C 
ATOM     32  C   UNL     1     -21.071  -4.124   7.477  0.00  0.00    +0.000 C 
ENDBRANCH  26  27
ENDBRANCH  25  26
ENDBRANCH  23  24
ENDBRANCH   3  23
TORSDOF 6
ENDMDL
MODEL 6
REMARK VINA RESULT:      -5.3     27.121     29.602
REMARK  Name = Gefitinib.pdbqt.pdb
REMARK  6 active torsions:
REMARK  status: ('A' for Active; 'I' for Inactive)
REMARK    1  A    between atoms: C_3  and  O_11
REMARK    2  A    between atoms: C_6  and  O_21
REMARK    3  A    between atoms: O_11  and  C_12
REMARK    4  A    between atoms: C_13  and  C_14
REMARK    5  A    between atoms: C_14  and  N_15
REMARK    6  A    between atoms: N_23  and  C_25
REMARK                            x       y       z     vdW  Elec       q    Type
REMARK                         _______ _______ _______ _____ _____    ______ ____
ROOT
ATOM      1  N   UNL     1       7.463 -15.431  13.510  0.00  0.00    +0.000 NA
ATOM      2  N   UNL     1       6.584 -13.260  13.071  0.00  0.00    +0.000 NA
ATOM      3  C   UNL     1       3.715 -16.806  14.678  0.00  0.00    +0.000 A 
ATOM      4  C   UNL     1       5.135 -14.998  13.847  0.00  0.00    +0.000 A 
ATOM      5  C   UNL     1       3.882 -15.488  14.253  0.00  0.00    +0.000 A 
ATOM      6  C   UNL     1       4.822 -17.655  14.694  0.00  0.00    +0.000 A 
ATOM      7  C   UNL     1       6.248 -15.843  13.872  0.00  0.00    +0.000 A 
ATOM      8  C   UNL     1       6.066 -17.154  14.292  0.00  0.00    +0.000 A 
ATOM      9  C   UNL     1       5.358 -13.683  13.419  0.00  0.00    +0.000 A 
ATOM     10  C   UNL     1       7.579 -14.152  13.130  0.00  0.00    +0.000 A 
ATOM     11  N   UNL     1       4.269 -12.774  13.395  0.00  0.00    +0.000 N 
ATOM     12  H   UNL     1       3.451 -13.194  12.963  0.00  0.00    +0.000 HD
ENDROOT
BRANCH  11  13
ATOM     13  C   UNL     1       4.310 -11.376  13.195  0.00  0.00    +0.000 A 
ATOM     14  C   UNL     1       3.545 -10.817  12.164  0.00  0.00    +0.000 A 
ATOM     15  C   UNL     1       3.472  -9.436  11.996  0.00  0.00    +0.000 A 
ATOM     16 CL   UNL     1       2.544  -8.809  10.692  0.00  0.00    +0.000 Cl
ATOM     17  C   UNL     1       4.141  -8.595  12.877  0.00  0.00    +0.000 A 
ATOM     18  F   UNL     1       4.083  -7.263  12.730  0.00  0.00    +0.000 F 
ATOM     19  C   UNL     1       4.875  -9.123  13.931  0.00  0.00    +0.000 A 
ATOM     20  C   UNL     1       4.939 -10.505  14.092  0.00  0.00    +0.000 A 
ENDBRANCH  11  13
BRANCH   6  21
ATOM     21  O   UNL     1       4.614 -18.946  15.120  0.00  0.00    +0.000 OA
ATOM     22  C   UNL     1       5.170 -19.271  16.364  0.00  0.00    +0.000 C 
ENDBRANCH   6  21
BRANCH   3  23
ATOM     23  O   UNL     1       2.507 -17.322  15.082  0.00  0.00    +0.000 OA
BRANCH  23  24
ATOM     24  C   UNL     1       2.093 -16.899  16.274  0.00  0.00    +0.000 C 
ATOM     25  C   UNL     1       1.632 -16.411  17.652  0.00  0.00    +0.000 C 
BRANCH  25  26
ATOM     26  C   UNL     1       1.206 -15.917  19.039  0.00  0.00    +0.000 C 
BRANCH  26  27
ATOM     27  N   UNL     1       0.790 -15.440  20.351  0.00  0.00    +0.000 N 
ATOM     28  C   UNL     1       1.468 -14.125  20.562  0.00  0.00    +0.000 C 
ATOM     29  C   UNL     1       0.842 -12.693  20.591  0.00  0.00    +0.000 C 
ATOM     30  O   UNL     1      -0.407 -12.200  20.442  0.00  0.00    +0.000 OA
ATOM     31  C   UNL     1      -1.019 -13.385  20.251  0.00  0.00    +0.000 C 
ATOM     32  C   UNL     1      -0.585 -14.881  20.187  0.00  0.00    +0.000 C 
ENDBRANCH  26  27
ENDBRANCH  25  26
ENDBRANCH  23  24
ENDBRANCH   3  23
TORSDOF 6
ENDMDL
MODEL 7
REMARK VINA RESULT:      -5.2      4.093      7.119
REMARK  Name = Gefitinib.pdbqt.pdb
REMARK  6 active torsions:
REMARK  status: ('A' for Active; 'I' for Inactive)
REMARK    1  A    between atoms: C_3  and  O_11
REMARK    2  A    between atoms: C_6  and  O_21
REMARK    3  A    between atoms: O_11  and  C_12
REMARK    4  A    between atoms: C_13  and  C_14
REMARK    5  A    between atoms: C_14  and  N_15
REMARK    6  A    between atoms: N_23  and  C_25
REMARK                            x       y       z     vdW  Elec       q    Type
REMARK                         _______ _______ _______ _____ _____    ______ ____
ROOT
ATOM      1  N   UNL     1     -23.032  -1.690   8.253  0.00  0.00    +0.000 NA
ATOM      2  N   UNL     1     -22.078   0.128   9.462  0.00  0.00    +0.000 NA
ATOM      3  C   UNL     1     -23.129  -4.036  11.686  0.00  0.00    +0.000 A 
ATOM      4  C   UNL     1     -22.604  -1.912  10.595  0.00  0.00    +0.000 A 
ATOM      5  C   UNL     1     -22.642  -2.729  11.738  0.00  0.00    +0.000 A 
ATOM      6  C   UNL     1     -23.591  -4.536  10.469  0.00  0.00    +0.000 A 
ATOM      7  C   UNL     1     -23.056  -2.414   9.372  0.00  0.00    +0.000 A 
ATOM      8  C   UNL     1     -23.542  -3.714   9.336  0.00  0.00    +0.000 A 
ATOM      9  C   UNL     1     -22.119  -0.597  10.592  0.00  0.00    +0.000 A 
ATOM     10  C   UNL     1     -22.537  -0.449   8.346  0.00  0.00    +0.000 A 
ATOM     11  N   UNL     1     -21.626  -0.043  11.801  0.00  0.00    +0.000 N 
ATOM     12  H   UNL     1     -22.261  -0.225  12.572  0.00  0.00    +0.000 HD
ENDROOT
BRANCH  11  13
ATOM     13  C   UNL     1     -20.919   1.168  11.975  0.00  0.00    +0.000 A 
ATOM     14  C   UNL     1     -21.606   2.290  12.454  0.00  0.00    +0.000 A 
ATOM     15  C   UNL     1     -20.931   3.474  12.741  0.00  0.00    +0.000 A 
ATOM     16 CL   UNL     1     -21.832   4.827  13.295  0.00  0.00    +0.000 Cl
ATOM     17  C   UNL     1     -19.552   3.540  12.579  0.00  0.00    +0.000 A 
ATOM     18  F   UNL     1     -18.884   4.672  12.850  0.00  0.00    +0.000 F 
ATOM     19  C   UNL     1     -18.842   2.430  12.142  0.00  0.00    +0.000 A 
ATOM     20  C   UNL     1     -19.527   1.250  11.861  0.00  0.00    +0.000 A 
ENDBRANCH  11  13
BRANCH   6  21
ATOM     21  O   UNL     1     -24.061  -5.828  10.461  0.00  0.00    +0.000 OA
ATOM     22  C   UNL     1     -25.388  -5.989  10.046  0.00  0.00    +0.000 C 
ENDBRANCH   6  21
BRANCH   3  23
ATOM     23  O   UNL     1     -23.183  -4.865  12.781  0.00  0.00    +0.000 OA
BRANCH  23  24
ATOM     24  C   UNL     1     -23.365  -4.241  13.943  0.00  0.00    +0.000 C 
ATOM     25  C   UNL     1     -23.561  -3.511  15.276  0.00  0.00    +0.000 C 
BRANCH  25  26
ATOM     26  C   UNL     1     -23.733  -2.756  16.599  0.00  0.00    +0.000 C 
BRANCH  26  27
ATOM     27  N   UNL     1     -23.907  -2.049  17.860  0.00  0.00    +0.000 N 
ATOM     28  C   UNL     1     -22.621  -2.187  18.609  0.00  0.00    +0.000 C 
ATOM     29  C   UNL     1     -21.548  -1.095  18.923  0.00  0.00    +0.000 C 
ATOM     30  O   UNL     1     -21.424   0.222  18.646  0.00  0.00    +0.000 OA
ATOM     31  C   UNL     1     -22.583   0.347  17.969  0.00  0.00    +0.000 C 
ATOM     32  C   UNL     1     -23.756  -0.594  17.560  0.00  0.00    +0.000 C 
ENDBRANCH  26  27
ENDBRANCH  25  26
ENDBRANCH  23  24
ENDBRANCH   3  23
TORSDOF 6
ENDMDL
MODEL 8
REMARK VINA RESULT:      -5.0     21.471     25.631
REMARK  Name = Gefitinib.pdbqt.pdb
REMARK  6 active torsions:
REMARK  status: ('A' for Active; 'I' for Inactive)
REMARK    1  A    between atoms: C_3  and  O_11
REMARK    2  A    between atoms: C_6  and  O_21
REMARK    3  A    between atoms: O_11  and  C_12
REMARK    4  A    between atoms: C_13  and  C_14
REMARK    5  A    between atoms: C_14  and  N_15
REMARK    6  A    between atoms: N_23  and  C_25
REMARK                            x       y       z     vdW  Elec       q    Type
REMARK                         _______ _______ _______ _____ _____    ______ ____
ROOT
ATOM      1  N   UNL     1      -0.201  -9.695  -4.744  0.00  0.00    +0.000 NA
ATOM      2  N   UNL     1      -0.019  -8.120  -2.965  0.00  0.00    +0.000 NA
ATOM      3  C   UNL     1      -3.851 -11.054  -3.282  0.00  0.00    +0.000 A 
ATOM      4  C   UNL     1      -1.936  -9.544  -3.104  0.00  0.00    +0.000 A 
ATOM      5  C   UNL     1      -3.167 -10.027  -2.629  0.00  0.00    +0.000 A 
ATOM      6  C   UNL     1      -3.295 -11.607  -4.436  0.00  0.00    +0.000 A 
ATOM      7  C   UNL     1      -1.371 -10.103  -4.254  0.00  0.00    +0.000 A 
ATOM      8  C   UNL     1      -2.065 -11.121  -4.896  0.00  0.00    +0.000 A 
ATOM      9  C   UNL     1      -1.206  -8.521  -2.484  0.00  0.00    +0.000 A 
ATOM     10  C   UNL     1       0.429  -8.722  -4.073  0.00  0.00    +0.000 A 
ATOM     11  N   UNL     1      -1.720  -7.932  -1.300  0.00  0.00    +0.000 N 
ATOM     12  H   UNL     1      -2.705  -7.706  -1.401  0.00  0.00    +0.000 HD
ENDROOT
BRANCH  11  13
ATOM     13  C   UNL     1      -1.064  -7.045  -0.418  0.00  0.00    +0.000 A 
ATOM     14  C   UNL     1      -0.452  -7.561   0.731  0.00  0.00    +0.000 A 
ATOM     15  C   UNL     1       0.295  -6.742   1.574  0.00  0.00    +0.000 A 
ATOM     16 CL   UNL     1       0.995  -7.426   2.986  0.00  0.00    +0.000 Cl
ATOM     17  C   UNL     1       0.462  -5.398   1.263  0.00  0.00    +0.000 A 
ATOM     18  F   UNL     1       1.178  -4.593   2.063  0.00  0.00    +0.000 F 
ATOM     19  C   UNL     1      -0.102  -4.869   0.109  0.00  0.00    +0.000 A 
ATOM     20  C   UNL     1      -0.844  -5.698  -0.729  0.00  0.00    +0.000 A 
ENDBRANCH  11  13
BRANCH   6  21
ATOM     21  O   UNL     1      -4.000 -12.616  -5.047  0.00  0.00    +0.000 OA
ATOM     22  C   UNL     1      -3.231 -13.661  -5.575  0.00  0.00    +0.000 C 
ENDBRANCH   6  21
BRANCH   3  23
ATOM     23  O   UNL     1      -5.056 -11.552  -2.848  0.00  0.00    +0.000 OA
BRANCH  23  24
ATOM     24  C   UNL     1      -5.913 -10.633  -2.412  0.00  0.00    +0.000 C 
ATOM     25  C   UNL     1      -6.887  -9.563  -1.906  0.00  0.00    +0.000 C 
BRANCH  25  26
ATOM     26  C   UNL     1      -7.834  -8.470  -1.399  0.00  0.00    +0.000 C 
BRANCH  26  27
ATOM     27  N   UNL     1      -8.726  -7.430  -0.904  0.00  0.00    +0.000 N 
ATOM     28  C   UNL     1      -9.152  -6.631  -2.094  0.00  0.00    +0.000 C 
ATOM     29  C   UNL     1     -10.556  -6.565  -2.778  0.00  0.00    +0.000 C 
ATOM     30  O   UNL     1     -11.750  -7.158  -2.555  0.00  0.00    +0.000 OA
ATOM     31  C   UNL     1     -11.366  -7.879  -1.483  0.00  0.00    +0.000 C 
ATOM     32  C   UNL     1     -10.051  -8.078  -0.670  0.00  0.00    +0.000 C 
ENDBRANCH  26  27
ENDBRANCH  25  26
ENDBRANCH  23  24
ENDBRANCH   3  23
TORSDOF 6
ENDMDL
MODEL 9
REMARK VINA RESULT:      -5.0     20.985     22.410
REMARK  Name = Gefitinib.pdbqt.pdb
REMARK  6 active torsions:
REMARK  status: ('A' for Active; 'I' for Inactive)
REMARK    1  A    between atoms: C_3  and  O_11
REMARK    2  A    between atoms: C_6  and  O_21
REMARK    3  A    between atoms: O_11  and  C_12
REMARK    4  A    between atoms: C_13  and  C_14
REMARK    5  A    between atoms: C_14  and  N_15
REMARK    6  A    between atoms: N_23  and  C_25
REMARK                            x       y       z     vdW  Elec       q    Type
REMARK                         _______ _______ _______ _____ _____    ______ ____
ROOT
ATOM      1  N   UNL     1      -7.003   1.677  23.121  0.00  0.00    +0.000 NA
ATOM      2  N   UNL     1      -7.973  -0.436  22.599  0.00  0.00    +0.000 NA
ATOM      3  C   UNL     1      -3.176   0.052  22.977  0.00  0.00    +0.000 A 
ATOM      4  C   UNL     1      -5.596  -0.223  22.761  0.00  0.00    +0.000 A 
ATOM      5  C   UNL     1      -4.292  -0.747  22.725  0.00  0.00    +0.000 A 
ATOM      6  C   UNL     1      -3.366   1.404  23.266  0.00  0.00    +0.000 A 
ATOM      7  C   UNL     1      -5.790   1.127  23.061  0.00  0.00    +0.000 A 
ATOM      8  C   UNL     1      -4.670   1.912  23.304  0.00  0.00    +0.000 A 
ATOM      9  C   UNL     1      -6.749  -0.983  22.522  0.00  0.00    +0.000 A 
ATOM     10  C   UNL     1      -8.045   0.867  22.892  0.00  0.00    +0.000 A 
ATOM     11  N   UNL     1      -6.614  -2.366  22.234  0.00  0.00    +0.000 N 
ATOM     12  H   UNL     1      -5.888  -2.526  21.543  0.00  0.00    +0.000 HD
ENDROOT
BRANCH  11  13
ATOM     13  C   UNL     1      -7.634  -3.340  22.164  0.00  0.00    +0.000 A 
ATOM     14  C   UNL     1      -8.087  -3.933  23.348  0.00  0.00    +0.000 A 
ATOM     15  C   UNL     1      -9.160  -4.821  23.340  0.00  0.00    +0.000 A 
ATOM     16 CL   UNL     1      -9.650  -5.542  24.820  0.00  0.00    +0.000 Cl
ATOM     17  C   UNL     1      -9.814  -5.105  22.146  0.00  0.00    +0.000 A 
ATOM     18  F   UNL     1     -10.849  -5.957  22.118  0.00  0.00    +0.000 F 
ATOM     19  C   UNL     1      -9.409  -4.501  20.963  0.00  0.00    +0.000 A 
ATOM     20  C   UNL     1      -8.336  -3.612  20.984  0.00  0.00    +0.000 A 
ENDBRANCH  11  13
BRANCH   6  21
ATOM     21  O   UNL     1      -2.240   2.155  23.509  0.00  0.00    +0.000 OA
ATOM     22  C   UNL     1      -2.080   2.599  24.828  0.00  0.00    +0.000 C 
ENDBRANCH   6  21
BRANCH   3  23
ATOM     23  O   UNL     1      -1.887  -0.423  22.951  0.00  0.00    +0.000 OA
BRANCH  23  24
ATOM     24  C   UNL     1      -1.577  -1.245  23.951  0.00  0.00    +0.000 C 
ATOM     25  C   UNL     1      -1.237  -2.194  25.105  0.00  0.00    +0.000 C 
BRANCH  25  26
ATOM     26  C   UNL     1      -0.931  -3.154  26.260  0.00  0.00    +0.000 C 
BRANCH  26  27
ATOM     27  N   UNL     1      -0.632  -4.073  27.349  0.00  0.00    +0.000 N 
ATOM     28  C   UNL     1      -1.875  -4.178  28.173  0.00  0.00    +0.000 C 
ATOM     29  C   UNL     1      -2.853  -5.389  28.322  0.00  0.00    +0.000 C 
ATOM     30  O   UNL     1      -2.909  -6.634  27.800  0.00  0.00    +0.000 OA
ATOM     31  C   UNL     1      -1.789  -6.539  27.056  0.00  0.00    +0.000 C 
ATOM     32  C   UNL     1      -0.707  -5.452  26.779  0.00  0.00    +0.000 C 
ENDBRANCH  26  27
ENDBRANCH  25  26
ENDBRANCH  23  24
ENDBRANCH   3  23
TORSDOF 6
ENDMDL
