MODEL 1
REMARK VINA RESULT:      -6.7      0.000      0.000
REMARK  Name = Genistein.pdbqt.pdb
REMARK  4 active torsions:
REMARK  status: ('A' for Active; 'I' for Inactive)
REMARK    1  A    between atoms: C_4  and  C_12
REMARK    2  A    between atoms: C_7  and  O_20
REMARK    3  A    between atoms: C_11  and  O_22
REMARK    4  A    between atoms: C_17  and  O_18
REMARK                            x       y       z     vdW  Elec       q    Type
REMARK                         _______ _______ _______ _____ _____    ______ ____
ROOT
ATOM      1  O   UNL     1     -10.550  -1.374  21.905  0.00  0.00    +0.000 OA
ATOM      2  O   UNL     1     -11.866  -5.332  21.587  0.00  0.00    +0.000 OA
ATOM      3  C   UNL     1     -11.977  -3.239  22.709  0.00  0.00    +0.000 A 
ATOM      4  C   UNL     1     -10.435  -3.590  20.720  0.00  0.00    +0.000 A 
ATOM      5  C   UNL     1     -11.500  -1.897  22.780  0.00  0.00    +0.000 A 
ATOM      6  C   UNL     1     -11.456  -4.179  21.648  0.00  0.00    +0.000 A 
ATOM      7  C   UNL     1     -12.933  -3.674  23.631  0.00  0.00    +0.000 A 
ATOM      8  C   UNL     1     -10.245  -2.360  21.079  0.00  0.00    +0.000 A 
ATOM      9  C   UNL     1     -11.980  -1.030  23.758  0.00  0.00    +0.000 A 
ATOM     10  C   UNL     1     -13.409  -2.801  24.608  0.00  0.00    +0.000 A 
ATOM     11  C   UNL     1     -12.931  -1.493  24.662  0.00  0.00    +0.000 A 
ENDROOT
BRANCH   4  12
ATOM     12  C   UNL     1      -9.766  -4.265  19.611  0.00  0.00    +0.000 A 
ATOM     13  C   UNL     1      -8.810  -5.259  19.841  0.00  0.00    +0.000 A 
ATOM     14  C   UNL     1     -10.071  -3.931  18.286  0.00  0.00    +0.000 A 
ATOM     15  C   UNL     1      -8.171  -5.904  18.784  0.00  0.00    +0.000 A 
ATOM     16  C   UNL     1      -9.439  -4.569  17.219  0.00  0.00    +0.000 A 
ATOM     17  C   UNL     1      -8.493  -5.552  17.478  0.00  0.00    +0.000 A 
BRANCH  17  18
ATOM     18  O   UNL     1      -7.886  -6.164  16.421  0.00  0.00    +0.000 OA
ATOM     19  H   UNL     1      -8.235  -5.772  15.601  0.00  0.00    +0.000 HD
ENDBRANCH  17  18
ENDBRANCH   4  12
BRANCH   7  20
ATOM     20  O   UNL     1     -13.448  -4.942  23.639  0.00  0.00    +0.000 OA
ATOM     21  H   UNL     1     -14.304  -4.938  23.152  0.00  0.00    +0.000 HD
ENDBRANCH   7  20
BRANCH  11  22
ATOM     22  O   UNL     1     -13.390  -0.629  25.613  0.00  0.00    +0.000 OA
ATOM     23  H   UNL     1     -13.720   0.170  25.165  0.00  0.00    +0.000 HD
ENDBRANCH  11  22
TORSDOF 4
ENDMDL
MODEL 2
REMARK VINA RESULT:      -6.5      2.475      2.625
REMARK  Name = Genistein.pdbqt.pdb
REMARK  4 active torsions:
REMARK  status: ('A' for Active; 'I' for Inactive)
REMARK    1  A    between atoms: C_4  and  C_12
REMARK    2  A    between atoms: C_7  and  O_20
REMARK    3  A    between atoms: C_11  and  O_22
REMARK    4  A    between atoms: C_17  and  O_18
REMARK                            x       y       z     vdW  Elec       q    Type
REMARK                         _______ _______ _______ _____ _____    ______ ____
ROOT
ATOM      1  O   UNL     1      -7.694  -3.877  22.927  0.00  0.00    +0.000 OA
ATOM      2  O   UNL     1     -11.396  -5.257  21.551  0.00  0.00    +0.000 OA
ATOM      3  C   UNL     1     -10.056  -4.504  23.365  0.00  0.00    +0.000 A 
ATOM      4  C   UNL     1      -9.115  -4.674  21.010  0.00  0.00    +0.000 A 
ATOM      5  C   UNL     1      -8.777  -4.037  23.789  0.00  0.00    +0.000 A 
ATOM      6  C   UNL     1     -10.297  -4.856  21.915  0.00  0.00    +0.000 A 
ATOM      7  C   UNL     1     -11.083  -4.632  24.303  0.00  0.00    +0.000 A 
ATOM      8  C   UNL     1      -8.132  -4.240  21.734  0.00  0.00    +0.000 A 
ATOM      9  C   UNL     1      -8.555  -3.713  25.125  0.00  0.00    +0.000 A 
ATOM     10  C   UNL     1     -10.853  -4.306  25.639  0.00  0.00    +0.000 A 
ATOM     11  C   UNL     1      -9.597  -3.851  26.036  0.00  0.00    +0.000 A 
ENDROOT
BRANCH   4  12
ATOM     12  C   UNL     1      -9.063  -4.936  19.574  0.00  0.00    +0.000 A 
ATOM     13  C   UNL     1      -8.320  -6.003  19.061  0.00  0.00    +0.000 A 
ATOM     14  C   UNL     1      -9.762  -4.121  18.676  0.00  0.00    +0.000 A 
ATOM     15  C   UNL     1      -8.270  -6.253  17.691  0.00  0.00    +0.000 A 
ATOM     16  C   UNL     1      -9.720  -4.360  17.303  0.00  0.00    +0.000 A 
ATOM     17  C   UNL     1      -8.973  -5.427  16.822  0.00  0.00    +0.000 A 
BRANCH  17  18
ATOM     18  O   UNL     1      -8.945  -5.646  15.476  0.00  0.00    +0.000 OA
ATOM     19  H   UNL     1      -8.677  -4.818  15.038  0.00  0.00    +0.000 HD
ENDBRANCH  17  18
ENDBRANCH   4  12
BRANCH   7  20
ATOM     20  O   UNL     1     -12.341  -5.071  23.988  0.00  0.00    +0.000 OA
ATOM     21  H   UNL     1     -12.316  -5.484  23.095  0.00  0.00    +0.000 HD
ENDBRANCH   7  20
BRANCH  11  22
ATOM     22  O   UNL     1      -9.360  -3.528  27.341  0.00  0.00    +0.000 OA
ATOM     23  H   UNL     1     -10.199  -3.603  27.830  0.00  0.00    +0.000 HD
ENDBRANCH  11  22
TORSDOF 4
ENDMDL
MODEL 3
REMARK VINA RESULT:      -6.1      1.358      2.607
REMARK  Name = Genistein.pdbqt.pdb
REMARK  4 active torsions:
REMARK  status: ('A' for Active; 'I' for Inactive)
REMARK    1  A    between atoms: C_4  and  C_12
REMARK    2  A    between atoms: C_7  and  O_20
REMARK    3  A    between atoms: C_11  and  O_22
REMARK    4  A    between atoms: C_17  and  O_18
REMARK                            x       y       z     vdW  Elec       q    Type
REMARK                         _______ _______ _______ _____ _____    ______ ____
ROOT
ATOM      1  O   UNL     1     -10.916  -3.939  22.975  0.00  0.00    +0.000 OA
ATOM      2  O   UNL     1      -9.606  -1.285  20.017  0.00  0.00    +0.000 OA
ATOM      3  C   UNL     1     -10.524  -1.618  22.185  0.00  0.00    +0.000 A 
ATOM      4  C   UNL     1      -9.945  -3.582  20.682  0.00  0.00    +0.000 A 
ATOM      5  C   UNL     1     -10.960  -2.559  23.165  0.00  0.00    +0.000 A 
ATOM      6  C   UNL     1      -9.980  -2.094  20.859  0.00  0.00    +0.000 A 
ATOM      7  C   UNL     1     -10.605  -0.251  22.467  0.00  0.00    +0.000 A 
ATOM      8  C   UNL     1     -10.414  -4.116  21.765  0.00  0.00    +0.000 A 
ATOM      9  C   UNL     1     -11.461  -2.120  24.387  0.00  0.00    +0.000 A 
ATOM     10  C   UNL     1     -11.109   0.180  23.693  0.00  0.00    +0.000 A 
ATOM     11  C   UNL     1     -11.530  -0.754  24.638  0.00  0.00    +0.000 A 
ENDROOT
BRANCH   4  12
ATOM     12  C   UNL     1      -9.473  -4.314  19.508  0.00  0.00    +0.000 A 
ATOM     13  C   UNL     1      -8.561  -5.366  19.631  0.00  0.00    +0.000 A 
ATOM     14  C   UNL     1      -9.928  -3.976  18.228  0.00  0.00    +0.000 A 
ATOM     15  C   UNL     1      -8.112  -6.065  18.513  0.00  0.00    +0.000 A 
ATOM     16  C   UNL     1      -9.486  -4.667  17.101  0.00  0.00    +0.000 A 
ATOM     17  C   UNL     1      -8.580  -5.708  17.254  0.00  0.00    +0.000 A 
BRANCH  17  18
ATOM     18  O   UNL     1      -8.159  -6.372  16.139  0.00  0.00    +0.000 OA
ATOM     19  H   UNL     1      -7.300  -6.001  15.870  0.00  0.00    +0.000 HD
ENDBRANCH  17  18
ENDBRANCH   4  12
BRANCH   7  20
ATOM     20  O   UNL     1     -10.212   0.723  21.589  0.00  0.00    +0.000 OA
ATOM     21  H   UNL     1     -11.014   1.149  21.211  0.00  0.00    +0.000 HD
ENDBRANCH   7  20
BRANCH  11  22
ATOM     22  O   UNL     1     -12.024  -0.343  25.842  0.00  0.00    +0.000 OA
ATOM     23  H   UNL     1     -12.211  -1.133  26.379  0.00  0.00    +0.000 HD
ENDBRANCH  11  22
TORSDOF 4
ENDMDL
MODEL 4
REMARK VINA RESULT:      -5.7      4.127      5.767
REMARK  Name = Genistein.pdbqt.pdb
REMARK  4 active torsions:
REMARK  status: ('A' for Active; 'I' for Inactive)
REMARK    1  A    between atoms: C_4  and  C_12
REMARK    2  A    between atoms: C_7  and  O_20
REMARK    3  A    between atoms: C_11  and  O_22
REMARK    4  A    between atoms: C_17  and  O_18
REMARK                            x       y       z     vdW  Elec       q    Type
REMARK                         _______ _______ _______ _____ _____    ______ ____
ROOT
ATOM      1  O   UNL     1     -11.645  -5.727  24.700  0.00  0.00    +0.000 OA
ATOM      2  O   UNL     1      -7.620  -4.867  23.947  0.00  0.00    +0.000 OA
ATOM      3  C   UNL     1      -9.237  -6.221  25.046  0.00  0.00    +0.000 A 
ATOM      4  C   UNL     1      -9.932  -4.297  23.539  0.00  0.00    +0.000 A 
ATOM      5  C   UNL     1     -10.622  -6.478  25.275  0.00  0.00    +0.000 A 
ATOM      6  C   UNL     1      -8.810  -5.088  24.143  0.00  0.00    +0.000 A 
ATOM      7  C   UNL     1      -8.281  -7.030  25.666  0.00  0.00    +0.000 A 
ATOM      8  C   UNL     1     -11.044  -4.809  23.965  0.00  0.00    +0.000 A 
ATOM      9  C   UNL     1     -11.015  -7.522  26.107  0.00  0.00    +0.000 A 
ATOM     10  C   UNL     1      -8.682  -8.073  26.498  0.00  0.00    +0.000 A 
ATOM     11  C   UNL     1     -10.039  -8.310  26.710  0.00  0.00    +0.000 A 
ENDROOT
BRANCH   4  12
ATOM     12  C   UNL     1      -9.812  -3.155  22.636  0.00  0.00    +0.000 A 
ATOM     13  C   UNL     1     -10.190  -1.871  23.040  0.00  0.00    +0.000 A 
ATOM     14  C   UNL     1      -9.311  -3.322  21.340  0.00  0.00    +0.000 A 
ATOM     15  C   UNL     1     -10.075  -0.782  22.180  0.00  0.00    +0.000 A 
ATOM     16  C   UNL     1      -9.191  -2.240  20.468  0.00  0.00    +0.000 A 
ATOM     17  C   UNL     1      -9.575  -0.977  20.898  0.00  0.00    +0.000 A 
BRANCH  17  18
ATOM     18  O   UNL     1      -9.450   0.069  20.031  0.00  0.00    +0.000 OA
ATOM     19  H   UNL     1     -10.262   0.120  19.496  0.00  0.00    +0.000 HD
ENDBRANCH  17  18
ENDBRANCH   4  12
BRANCH   7  20
ATOM     20  O   UNL     1      -6.932  -6.859  25.506  0.00  0.00    +0.000 OA
ATOM     21  H   UNL     1      -6.684  -7.143  24.596  0.00  0.00    +0.000 HD
ENDBRANCH   7  20
BRANCH  11  22
ATOM     22  O   UNL     1     -10.445  -9.329  27.522  0.00  0.00    +0.000 OA
ATOM     23  H   UNL     1     -11.384  -9.189  27.739  0.00  0.00    +0.000 HD
ENDBRANCH  11  22
TORSDOF 4
ENDMDL
MODEL 5
REMARK VINA RESULT:      -5.7      3.129      4.198
REMARK  Name = Genistein.pdbqt.pdb
REMARK  4 active torsions:
REMARK  status: ('A' for Active; 'I' for Inactive)
REMARK    1  A    between atoms: C_4  and  C_12
REMARK    2  A    between atoms: C_7  and  O_20
REMARK    3  A    between atoms: C_11  and  O_22
REMARK    4  A    between atoms: C_17  and  O_18
REMARK                            x       y       z     vdW  Elec       q    Type
REMARK                         _______ _______ _______ _____ _____    ______ ____
ROOT
ATOM      1  O   UNL     1      -8.247  -4.327  23.149  0.00  0.00    +0.000 OA
ATOM      2  O   UNL     1     -12.214  -4.171  21.830  0.00  0.00    +0.000 OA
ATOM      3  C   UNL     1     -10.612  -5.053  23.350  0.00  0.00    +0.000 A 
ATOM      4  C   UNL     1      -9.944  -3.396  21.544  0.00  0.00    +0.000 A 
ATOM      5  C   UNL     1      -9.248  -5.076  23.765  0.00  0.00    +0.000 A 
ATOM      6  C   UNL     1     -11.042  -4.190  22.187  0.00  0.00    +0.000 A 
ATOM      7  C   UNL     1     -11.547  -5.839  24.031  0.00  0.00    +0.000 A 
ATOM      8  C   UNL     1      -8.846  -3.663  22.177  0.00  0.00    +0.000 A 
ATOM      9  C   UNL     1      -8.851  -5.872  24.837  0.00  0.00    +0.000 A 
ATOM     10  C   UNL     1     -11.142  -6.633  25.102  0.00  0.00    +0.000 A 
ATOM     11  C   UNL     1      -9.805  -6.642  25.494  0.00  0.00    +0.000 A 
ENDROOT
BRANCH   4  12
ATOM     12  C   UNL     1     -10.072  -2.485  20.408  0.00  0.00    +0.000 A 
ATOM     13  C   UNL     1     -10.536  -2.935  19.169  0.00  0.00    +0.000 A 
ATOM     14  C   UNL     1      -9.732  -1.133  20.539  0.00  0.00    +0.000 A 
ATOM     15  C   UNL     1     -10.659  -2.067  18.087  0.00  0.00    +0.000 A 
ATOM     16  C   UNL     1      -9.849  -0.254  19.463  0.00  0.00    +0.000 A 
ATOM     17  C   UNL     1     -10.313  -0.730  18.244  0.00  0.00    +0.000 A 
BRANCH  17  18
ATOM     18  O   UNL     1     -10.422   0.146  17.204  0.00  0.00    +0.000 OA
ATOM     19  H   UNL     1      -9.571   0.610  17.106  0.00  0.00    +0.000 HD
ENDBRANCH  17  18
ENDBRANCH   4  12
BRANCH   7  20
ATOM     20  O   UNL     1     -12.875  -5.881  23.704  0.00  0.00    +0.000 OA
ATOM     21  H   UNL     1     -13.066  -6.743  23.269  0.00  0.00    +0.000 HD
ENDBRANCH   7  20
BRANCH  11  22
ATOM     22  O   UNL     1      -9.398  -7.416  26.542  0.00  0.00    +0.000 OA
ATOM     23  H   UNL     1      -8.859  -8.147  26.189  0.00  0.00    +0.000 HD
ENDBRANCH  11  22
TORSDOF 4
ENDMDL
MODEL 6
REMARK VINA RESULT:      -5.6      4.524      6.997
REMARK  Name = Genistein.pdbqt.pdb
REMARK  4 active torsions:
REMARK  status: ('A' for Active; 'I' for Inactive)
REMARK    1  A    between atoms: C_4  and  C_12
REMARK    2  A    between atoms: C_7  and  O_20
REMARK    3  A    between atoms: C_11  and  O_22
REMARK    4  A    between atoms: C_17  and  O_18
REMARK                            x       y       z     vdW  Elec       q    Type
REMARK                         _______ _______ _______ _____ _____    ______ ____
ROOT
ATOM      1  O   UNL     1     -11.415  -5.598  22.930  0.00  0.00    +0.000 OA
ATOM      2  O   UNL     1      -7.528  -4.318  23.800  0.00  0.00    +0.000 OA
ATOM      3  C   UNL     1      -9.373  -4.336  22.300  0.00  0.00    +0.000 A 
ATOM      4  C   UNL     1      -9.462  -5.576  24.515  0.00  0.00    +0.000 A 
ATOM      5  C   UNL     1     -10.699  -4.795  22.045  0.00  0.00    +0.000 A 
ATOM      6  C   UNL     1      -8.668  -4.713  23.582  0.00  0.00    +0.000 A 
ATOM      7  C   UNL     1      -8.733  -3.533  21.351  0.00  0.00    +0.000 A 
ATOM      8  C   UNL     1     -10.612  -5.795  23.961  0.00  0.00    +0.000 A 
ATOM      9  C   UNL     1     -11.348  -4.448  20.863  0.00  0.00    +0.000 A 
ATOM     10  C   UNL     1      -9.390  -3.190  20.171  0.00  0.00    +0.000 A 
ATOM     11  C   UNL     1     -10.686  -3.648  19.939  0.00  0.00    +0.000 A 
ENDROOT
BRANCH   4  12
ATOM     12  C   UNL     1      -9.032  -6.088  25.815  0.00  0.00    +0.000 A 
ATOM     13  C   UNL     1      -8.018  -7.044  25.915  0.00  0.00    +0.000 A 
ATOM     14  C   UNL     1      -9.630  -5.627  26.994  0.00  0.00    +0.000 A 
ATOM     15  C   UNL     1      -7.607  -7.532  27.154  0.00  0.00    +0.000 A 
ATOM     16  C   UNL     1      -9.229  -6.107  28.240  0.00  0.00    +0.000 A 
ATOM     17  C   UNL     1      -8.219  -7.057  28.309  0.00  0.00    +0.000 A 
BRANCH  17  18
ATOM     18  O   UNL     1      -7.840  -7.515  29.537  0.00  0.00    +0.000 OA
ATOM     19  H   UNL     1      -8.533  -8.114  29.866  0.00  0.00    +0.000 HD
ENDBRANCH  17  18
ENDBRANCH   4  12
BRANCH   7  20
ATOM     20  O   UNL     1      -7.464  -3.046  21.509  0.00  0.00    +0.000 OA
ATOM     21  H   UNL     1      -6.895  -3.409  20.793  0.00  0.00    +0.000 HD
ENDBRANCH   7  20
BRANCH  11  22
ATOM     22  O   UNL     1     -11.339  -3.318  18.786  0.00  0.00    +0.000 OA
ATOM     23  H   UNL     1     -11.867  -2.517  18.955  0.00  0.00    +0.000 HD
ENDBRANCH  11  22
TORSDOF 4
ENDMDL
MODEL 7
REMARK VINA RESULT:      -5.5     15.583     17.281
REMARK  Name = Genistein.pdbqt.pdb
REMARK  4 active torsions:
REMARK  status: ('A' for Active; 'I' for Inactive)
REMARK    1  A    between atoms: C_4  and  C_12
REMARK    2  A    between atoms: C_7  and  O_20
REMARK    3  A    between atoms: C_11  and  O_22
REMARK    4  A    between atoms: C_17  and  O_18
REMARK                            x       y       z     vdW  Elec       q    Type
REMARK                         _______ _______ _______ _____ _____    ______ ____
ROOT
ATOM      1  O   UNL     1     -21.811  -3.527   7.652  0.00  0.00    +0.000 OA
ATOM      2  O   UNL     1     -22.479  -2.025  11.500  0.00  0.00    +0.000 OA
ATOM      3  C   UNL     1     -22.165  -3.906  10.079  0.00  0.00    +0.000 A 
ATOM      4  C   UNL     1     -22.143  -1.539   9.158  0.00  0.00    +0.000 A 
ATOM      5  C   UNL     1     -21.937  -4.374   8.751  0.00  0.00    +0.000 A 
ATOM      6  C   UNL     1     -22.283  -2.426  10.358  0.00  0.00    +0.000 A 
ATOM      7  C   UNL     1     -22.278  -4.833  11.120  0.00  0.00    +0.000 A 
ATOM      8  C   UNL     1     -21.947  -2.301   8.129  0.00  0.00    +0.000 A 
ATOM      9  C   UNL     1     -21.829  -5.738   8.494  0.00  0.00    +0.000 A 
ATOM     10  C   UNL     1     -22.169  -6.197  10.855  0.00  0.00    +0.000 A 
ATOM     11  C   UNL     1     -21.945  -6.635   9.551  0.00  0.00    +0.000 A 
ENDROOT
BRANCH   4  12
ATOM     12  C   UNL     1     -22.214  -0.079   9.134  0.00  0.00    +0.000 A 
ATOM     13  C   UNL     1     -21.171   0.703   9.637  0.00  0.00    +0.000 A 
ATOM     14  C   UNL     1     -23.334   0.569   8.601  0.00  0.00    +0.000 A 
ATOM     15  C   UNL     1     -21.238   2.094   9.614  0.00  0.00    +0.000 A 
ATOM     16  C   UNL     1     -23.414   1.961   8.572  0.00  0.00    +0.000 A 
ATOM     17  C   UNL     1     -22.363   2.713   9.080  0.00  0.00    +0.000 A 
BRANCH  17  18
ATOM     18  O   UNL     1     -22.459   4.073   9.042  0.00  0.00    +0.000 OA
ATOM     19  H   UNL     1     -22.118   4.379   8.183  0.00  0.00    +0.000 HD
ENDBRANCH  17  18
ENDBRANCH   4  12
BRANCH   7  20
ATOM     20  O   UNL     1     -22.496  -4.478  12.424  0.00  0.00    +0.000 OA
ATOM     21  H   UNL     1     -21.885  -3.742  12.657  0.00  0.00    +0.000 HD
ENDBRANCH   7  20
BRANCH  11  22
ATOM     22  O   UNL     1     -21.836  -7.968   9.279  0.00  0.00    +0.000 OA
ATOM     23  H   UNL     1     -22.710  -8.377   9.408  0.00  0.00    +0.000 HD
ENDBRANCH  11  22
TORSDOF 4
ENDMDL
MODEL 8
REMARK VINA RESULT:      -5.4      4.578      6.699
REMARK  Name = Genistein.pdbqt.pdb
REMARK  4 active torsions:
REMARK  status: ('A' for Active; 'I' for Inactive)
REMARK    1  A    between atoms: C_4  and  C_12
REMARK    2  A    between atoms: C_7  and  O_20
REMARK    3  A    between atoms: C_11  and  O_22
REMARK    4  A    between atoms: C_17  and  O_18
REMARK                            x       y       z     vdW  Elec       q    Type
REMARK                         _______ _______ _______ _____ _____    ______ ____
ROOT
ATOM      1  O   UNL     1      -8.599  -0.252  20.868  0.00  0.00    +0.000 OA
ATOM      2  O   UNL     1      -7.198  -3.944  22.251  0.00  0.00    +0.000 OA
ATOM      3  C   UNL     1      -8.647  -2.733  20.805  0.00  0.00    +0.000 A 
ATOM      4  C   UNL     1      -7.067  -1.536  22.396  0.00  0.00    +0.000 A 
ATOM      5  C   UNL     1      -9.095  -1.453  20.364  0.00  0.00    +0.000 A 
ATOM      6  C   UNL     1      -7.582  -2.844  21.872  0.00  0.00    +0.000 A 
ATOM      7  C   UNL     1      -9.203  -3.884  20.240  0.00  0.00    +0.000 A 
ATOM      8  C   UNL     1      -7.696  -0.591  21.772  0.00  0.00    +0.000 A 
ATOM      9  C   UNL     1     -10.076  -1.351  19.382  0.00  0.00    +0.000 A 
ATOM     10  C   UNL     1     -10.185  -3.774  19.257  0.00  0.00    +0.000 A 
ATOM     11  C   UNL     1     -10.610  -2.515  18.838  0.00  0.00    +0.000 A 
ENDROOT
BRANCH   4  12
ATOM     12  C   UNL     1      -6.046  -1.345  23.423  0.00  0.00    +0.000 A 
ATOM     13  C   UNL     1      -4.712  -1.108  23.079  0.00  0.00    +0.000 A 
ATOM     14  C   UNL     1      -6.383  -1.393  24.780  0.00  0.00    +0.000 A 
ATOM     15  C   UNL     1      -3.737  -0.925  24.058  0.00  0.00    +0.000 A 
ATOM     16  C   UNL     1      -5.418  -1.212  25.770  0.00  0.00    +0.000 A 
ATOM     17  C   UNL     1      -4.100  -0.979  25.398  0.00  0.00    +0.000 A 
BRANCH  17  18
ATOM     18  O   UNL     1      -3.170  -0.804  26.381  0.00  0.00    +0.000 OA
ATOM     19  H   UNL     1      -3.400  -1.387  27.126  0.00  0.00    +0.000 HD
ENDBRANCH  17  18
ENDBRANCH   4  12
BRANCH   7  20
ATOM     20  O   UNL     1      -8.835  -5.153  20.600  0.00  0.00    +0.000 OA
ATOM     21  H   UNL     1      -8.043  -5.412  20.076  0.00  0.00    +0.000 HD
ENDBRANCH   7  20
BRANCH  11  22
ATOM     22  O   UNL     1     -11.571  -2.395  17.876  0.00  0.00    +0.000 OA
ATOM     23  H   UNL     1     -11.279  -2.893  17.092  0.00  0.00    +0.000 HD
ENDBRANCH  11  22
TORSDOF 4
ENDMDL
MODEL 9
REMARK VINA RESULT:      -5.3     17.988     20.304
REMARK  Name = Genistein.pdbqt.pdb
REMARK  4 active torsions:
REMARK  status: ('A' for Active; 'I' for Inactive)
REMARK    1  A    between atoms: C_4  and  C_12
REMARK    2  A    between atoms: C_7  and  O_20
REMARK    3  A    between atoms: C_11  and  O_22
REMARK    4  A    between atoms: C_17  and  O_18
REMARK                            x       y       z     vdW  Elec       q    Type
REMARK                         _______ _______ _______ _____ _____    ______ ____
ROOT
ATOM      1  O   UNL     1     -13.492   8.706   4.238  0.00  0.00    +0.000 OA
ATOM      2  O   UNL     1     -14.242   6.440   7.674  0.00  0.00    +0.000 OA
ATOM      3  C   UNL     1     -13.178   6.626   5.556  0.00  0.00    +0.000 A 
ATOM      4  C   UNL     1     -14.616   8.506   6.480  0.00  0.00    +0.000 A 
ATOM      5  C   UNL     1     -12.950   7.433   4.402  0.00  0.00    +0.000 A 
ATOM      6  C   UNL     1     -14.046   7.134   6.683  0.00  0.00    +0.000 A 
ATOM      7  C   UNL     1     -12.591   5.360   5.631  0.00  0.00    +0.000 A 
ATOM      8  C   UNL     1     -14.202   8.935   5.329  0.00  0.00    +0.000 A 
ATOM      9  C   UNL     1     -12.151   6.964   3.363  0.00  0.00    +0.000 A 
ATOM     10  C   UNL     1     -11.792   4.898   4.587  0.00  0.00    +0.000 A 
ATOM     11  C   UNL     1     -11.580   5.700   3.468  0.00  0.00    +0.000 A 
ENDROOT
BRANCH   4  12
ATOM     12  C   UNL     1     -15.483   9.240   7.399  0.00  0.00    +0.000 A 
ATOM     13  C   UNL     1     -15.094   9.485   8.719  0.00  0.00    +0.000 A 
ATOM     14  C   UNL     1     -16.728   9.718   6.974  0.00  0.00    +0.000 A 
ATOM     15  C   UNL     1     -15.919  10.185   9.596  0.00  0.00    +0.000 A 
ATOM     16  C   UNL     1     -17.564  10.420   7.841  0.00  0.00    +0.000 A 
ATOM     17  C   UNL     1     -17.151  10.648   9.147  0.00  0.00    +0.000 A 
BRANCH  17  18
ATOM     18  O   UNL     1     -17.983  11.337   9.980  0.00  0.00    +0.000 OA
ATOM     19  H   UNL     1     -18.882  10.976   9.880  0.00  0.00    +0.000 HD
ENDBRANCH  17  18
ENDBRANCH   4  12
BRANCH   7  20
ATOM     20  O   UNL     1     -12.754   4.517   6.697  0.00  0.00    +0.000 OA
ATOM     21  H   UNL     1     -12.137   4.791   7.414  0.00  0.00    +0.000 HD
ENDBRANCH   7  20
BRANCH  11  22
ATOM     22  O   UNL     1     -10.799   5.258   2.439  0.00  0.00    +0.000 OA
ATOM     23  H   UNL     1     -11.207   5.546   1.603  0.00  0.00    +0.000 HD
ENDBRANCH  11  22
TORSDOF 4
ENDMDL
