MODEL 1
REMARK VINA RESULT:      -2.8      0.000      0.000
REMARK  Name = HydrogenPeroxide.pdbqt.pdb
REMARK  1 active torsions:
REMARK  status: ('A' for Active; 'I' for Inactive)
REMARK    1  A    between atoms: O_1  and  O_3
REMARK                            x       y       z     vdW  Elec       q    Type
REMARK                         _______ _______ _______ _____ _____    ______ ____
ROOT
ATOM      1  O   UNL     1     -14.755  -5.021   7.974  0.00  0.00    +0.000 OA
ATOM      2  H   UNL     1     -14.299  -5.793   8.360  0.00  0.00    +0.000 HD
ENDROOT
BRANCH   1   3
ATOM      3  O   UNL     1     -16.111  -5.481   8.221  0.00  0.00    +0.000 OA
ATOM      4  H   UNL     1     -16.134  -6.156   7.516  0.00  0.00    +0.000 HD
ENDBRANCH   1   3
TORSDOF 1
ENDMDL
MODEL 2
REMARK VINA RESULT:      -2.5      5.348      5.468
REMARK  Name = HydrogenPeroxide.pdbqt.pdb
REMARK  1 active torsions:
REMARK  status: ('A' for Active; 'I' for Inactive)
REMARK    1  A    between atoms: O_1  and  O_3
REMARK                            x       y       z     vdW  Elec       q    Type
REMARK                         _______ _______ _______ _____ _____    ______ ____
ROOT
ATOM      1  O   UNL     1     -14.586 -10.285   8.593  0.00  0.00    +0.000 OA
ATOM      2  H   UNL     1     -13.832 -10.905   8.627  0.00  0.00    +0.000 HD
ENDROOT
BRANCH   1   3
ATOM      3  O   UNL     1     -15.375 -11.028   7.624  0.00  0.00    +0.000 OA
ATOM      4  H   UNL     1     -16.251 -10.752   7.953  0.00  0.00    +0.000 HD
ENDBRANCH   1   3
TORSDOF 1
ENDMDL
MODEL 3
REMARK VINA RESULT:      -2.5     12.289     12.648
REMARK  Name = HydrogenPeroxide.pdbqt.pdb
REMARK  1 active torsions:
REMARK  status: ('A' for Active; 'I' for Inactive)
REMARK    1  A    between atoms: O_1  and  O_3
REMARK                            x       y       z     vdW  Elec       q    Type
REMARK                         _______ _______ _______ _____ _____    ______ ____
ROOT
ATOM      1  O   UNL     1      -3.137  -1.274   9.573  0.00  0.00    +0.000 OA
ATOM      2  H   UNL     1      -3.242  -1.794  10.392  0.00  0.00    +0.000 HD
ENDROOT
BRANCH   1   3
ATOM      3  O   UNL     1      -3.533  -2.325   8.650  0.00  0.00    +0.000 OA
ATOM      4  H   UNL     1      -2.675  -2.790   8.631  0.00  0.00    +0.000 HD
ENDBRANCH   1   3
TORSDOF 1
ENDMDL
MODEL 4
REMARK VINA RESULT:      -2.4     12.429     12.475
REMARK  Name = HydrogenPeroxide.pdbqt.pdb
REMARK  1 active torsions:
REMARK  status: ('A' for Active; 'I' for Inactive)
REMARK    1  A    between atoms: O_1  and  O_3
REMARK                            x       y       z     vdW  Elec       q    Type
REMARK                         _______ _______ _______ _____ _____    ______ ____
ROOT
ATOM      1  O   UNL     1      -6.233   1.125  13.450  0.00  0.00    +0.000 OA
ATOM      2  H   UNL     1      -6.714   0.364  13.073  0.00  0.00    +0.000 HD
ENDROOT
BRANCH   1   3
ATOM      3  O   UNL     1      -6.043   1.844  12.201  0.00  0.00    +0.000 OA
ATOM      4  H   UNL     1      -6.769   2.484  12.325  0.00  0.00    +0.000 HD
ENDBRANCH   1   3
TORSDOF 1
ENDMDL
MODEL 5
REMARK VINA RESULT:      -2.2      4.412      5.100
REMARK  Name = HydrogenPeroxide.pdbqt.pdb
REMARK  1 active torsions:
REMARK  status: ('A' for Active; 'I' for Inactive)
REMARK    1  A    between atoms: O_1  and  O_3
REMARK                            x       y       z     vdW  Elec       q    Type
REMARK                         _______ _______ _______ _____ _____    ______ ____
ROOT
ATOM      1  O   UNL     1     -13.420  -1.878   6.493  0.00  0.00    +0.000 OA
ATOM      2  H   UNL     1     -13.671  -1.080   6.996  0.00  0.00    +0.000 HD
ENDROOT
BRANCH   1   3
ATOM      3  O   UNL     1     -12.404  -1.249   5.666  0.00  0.00    +0.000 OA
ATOM      4  H   UNL     1     -11.724  -1.166   6.361  0.00  0.00    +0.000 HD
ENDBRANCH   1   3
TORSDOF 1
ENDMDL
MODEL 6
REMARK VINA RESULT:      -2.1     20.276     20.394
REMARK  Name = HydrogenPeroxide.pdbqt.pdb
REMARK  1 active torsions:
REMARK  status: ('A' for Active; 'I' for Inactive)
REMARK    1  A    between atoms: O_1  and  O_3
REMARK                            x       y       z     vdW  Elec       q    Type
REMARK                         _______ _______ _______ _____ _____    ______ ____
ROOT
ATOM      1  O   UNL     1       1.684 -16.248  10.845  0.00  0.00    +0.000 OA
ATOM      2  H   UNL     1       1.902 -15.298  10.901  0.00  0.00    +0.000 HD
ENDROOT
BRANCH   1   3
ATOM      3  O   UNL     1       1.030 -16.350  12.139  0.00  0.00    +0.000 OA
ATOM      4  H   UNL     1       0.808 -17.299  12.081  0.00  0.00    +0.000 HD
ENDBRANCH   1   3
TORSDOF 1
ENDMDL
MODEL 7
REMARK VINA RESULT:      -2.1      2.764      3.265
REMARK  Name = HydrogenPeroxide.pdbqt.pdb
REMARK  1 active torsions:
REMARK  status: ('A' for Active; 'I' for Inactive)
REMARK    1  A    between atoms: O_1  and  O_3
REMARK                            x       y       z     vdW  Elec       q    Type
REMARK                         _______ _______ _______ _____ _____    ______ ____
ROOT
ATOM      1  O   UNL     1     -13.558  -2.278   6.670  0.00  0.00    +0.000 OA
ATOM      2  H   UNL     1     -13.898  -1.404   6.941  0.00  0.00    +0.000 HD
ENDROOT
BRANCH   1   3
ATOM      3  O   UNL     1     -14.012  -3.010   7.841  0.00  0.00    +0.000 OA
ATOM      4  H   UNL     1     -14.788  -3.428   7.422  0.00  0.00    +0.000 HD
ENDBRANCH   1   3
TORSDOF 1
ENDMDL
MODEL 8
REMARK VINA RESULT:      -2.0     12.069     12.278
REMARK  Name = HydrogenPeroxide.pdbqt.pdb
REMARK  1 active torsions:
REMARK  status: ('A' for Active; 'I' for Inactive)
REMARK    1  A    between atoms: O_1  and  O_3
REMARK                            x       y       z     vdW  Elec       q    Type
REMARK                         _______ _______ _______ _____ _____    ______ ____
ROOT
ATOM      1  O   UNL     1     -14.517   6.533  12.491  0.00  0.00    +0.000 OA
ATOM      2  H   UNL     1     -13.575   6.657  12.265  0.00  0.00    +0.000 HD
ENDROOT
BRANCH   1   3
ATOM      3  O   UNL     1     -14.335   5.381  13.358  0.00  0.00    +0.000 OA
ATOM      4  H   UNL     1     -13.386   5.522  13.541  0.00  0.00    +0.000 HD
ENDBRANCH   1   3
TORSDOF 1
ENDMDL
MODEL 9
REMARK VINA RESULT:      -1.9      8.622      9.285
REMARK  Name = HydrogenPeroxide.pdbqt.pdb
REMARK  1 active torsions:
REMARK  status: ('A' for Active; 'I' for Inactive)
REMARK    1  A    between atoms: O_1  and  O_3
REMARK                            x       y       z     vdW  Elec       q    Type
REMARK                         _______ _______ _______ _____ _____    ______ ____
ROOT
ATOM      1  O   UNL     1     -22.364  -6.938  14.961  0.00  0.00    +0.000 OA
ATOM      2  H   UNL     1     -23.049  -7.489  14.536  0.00  0.00    +0.000 HD
ENDROOT
BRANCH   1   3
ATOM      3  O   UNL     1     -21.434  -6.929  13.844  0.00  0.00    +0.000 OA
ATOM      4  H   UNL     1     -21.105  -6.019  13.975  0.00  0.00    +0.000 HD
ENDBRANCH   1   3
TORSDOF 1
ENDMDL
