MODEL 1
REMARK VINA RESULT:      -6.5      0.000      0.000
REMARK  Name = Hyoscyamine.pdbqt.pdb
REMARK  6 active torsions:
REMARK  status: ('A' for Active; 'I' for Inactive)
REMARK    1  A    between atoms: C_2  and  O_3
REMARK    2  A    between atoms: C_2  and  C_13
REMARK    3  A    between atoms: O_3  and  C_4
REMARK    4  A    between atoms: C_13  and  C_14
REMARK    5  A    between atoms: C_13  and  C_20
REMARK    6  A    between atoms: C_20  and  O_21
REMARK                            x       y       z     vdW  Elec       q    Type
REMARK                         _______ _______ _______ _____ _____    ______ ____
ROOT
ATOM      1  O   UNL     1     -11.346  -3.299  20.712  0.00  0.00    +0.000 OA
ATOM      2  C   UNL     1     -10.686  -4.315  20.892  0.00  0.00    +0.000 C 
ENDROOT
BRANCH   2   3
ATOM      3  O   UNL     1     -11.046  -5.406  21.627  0.00  0.00    +0.000 OA
BRANCH   3   4
ATOM      4  C   UNL     1     -11.252  -5.111  22.975  0.00  0.00    +0.000 C 
ATOM      5  C   UNL     1     -10.417  -5.705  24.004  0.00  0.00    +0.000 C 
ATOM      6  C   UNL     1     -10.858  -6.215  25.309  0.00  0.00    +0.000 C 
ATOM      7  N   UNL     1     -12.177  -6.937  25.002  0.00  0.00    +0.000 NA
ATOM      8  C   UNL     1     -11.237  -5.161  26.234  0.00  0.00    +0.000 C 
ATOM      9  C   UNL     1     -13.035  -5.679  24.797  0.00  0.00    +0.000 C 
ATOM     10  C   UNL     1     -12.641  -7.722  26.156  0.00  0.00    +0.000 C 
ATOM     11  C   UNL     1     -12.686  -4.800  25.904  0.00  0.00    +0.000 C 
ATOM     12  C   UNL     1     -12.606  -5.161  23.489  0.00  0.00    +0.000 C 
ENDBRANCH   3   4
ENDBRANCH   2   3
BRANCH   2  13
ATOM     13  C   UNL     1      -9.311  -4.495  20.337  0.00  0.00    +0.000 C 
BRANCH  13  14
ATOM     14  C   UNL     1      -9.035  -4.894  18.944  0.00  0.00    +0.000 A 
ATOM     15  C   UNL     1      -9.809  -4.383  17.897  0.00  0.00    +0.000 A 
ATOM     16  C   UNL     1      -9.583  -4.780  16.579  0.00  0.00    +0.000 A 
ATOM     17  C   UNL     1      -8.582  -5.703  16.294  0.00  0.00    +0.000 A 
ATOM     18  C   UNL     1      -7.811  -6.229  17.325  0.00  0.00    +0.000 A 
ATOM     19  C   UNL     1      -8.042  -5.829  18.640  0.00  0.00    +0.000 A 
ENDBRANCH  13  14
BRANCH  13  20
ATOM     20  C   UNL     1      -8.218  -4.193  21.209  0.00  0.00    +0.000 C 
BRANCH  20  21
ATOM     21  O   UNL     1      -7.202  -3.914  22.019  0.00  0.00    +0.000 OA
ATOM     22  H   UNL     1      -6.634  -3.225  21.629  0.00  0.00    +0.000 HD
ENDBRANCH  20  21
ENDBRANCH  13  20
ENDBRANCH   2  13
TORSDOF 6
ENDMDL
MODEL 2
REMARK VINA RESULT:      -5.9      1.204      2.205
REMARK  Name = Hyoscyamine.pdbqt.pdb
REMARK  6 active torsions:
REMARK  status: ('A' for Active; 'I' for Inactive)
REMARK    1  A    between atoms: C_2  and  O_3
REMARK    2  A    between atoms: C_2  and  C_13
REMARK    3  A    between atoms: O_3  and  C_4
REMARK    4  A    between atoms: C_13  and  C_14
REMARK    5  A    between atoms: C_13  and  C_20
REMARK    6  A    between atoms: C_20  and  O_21
REMARK                            x       y       z     vdW  Elec       q    Type
REMARK                         _______ _______ _______ _____ _____    ______ ____
ROOT
ATOM      1  O   UNL     1     -10.922  -3.020  23.048  0.00  0.00    +0.000 OA
ATOM      2  C   UNL     1     -10.694  -3.996  22.343  0.00  0.00    +0.000 C 
ENDROOT
BRANCH   2   3
ATOM      3  O   UNL     1     -11.509  -5.072  22.147  0.00  0.00    +0.000 OA
BRANCH   3   4
ATOM      4  C   UNL     1     -11.740  -5.800  23.314  0.00  0.00    +0.000 C 
ATOM      5  C   UNL     1     -12.928  -5.565  24.116  0.00  0.00    +0.000 C 
ATOM      6  C   UNL     1     -13.006  -5.523  25.582  0.00  0.00    +0.000 C 
ATOM      7  N   UNL     1     -11.740  -4.763  26.002  0.00  0.00    +0.000 NA
ATOM      8  C   UNL     1     -12.856  -6.830  26.198  0.00  0.00    +0.000 C 
ATOM      9  C   UNL     1     -10.741  -5.897  25.725  0.00  0.00    +0.000 C 
ATOM     10  C   UNL     1     -11.772  -4.412  27.430  0.00  0.00    +0.000 C 
ATOM     11  C   UNL     1     -11.352  -7.087  26.302  0.00  0.00    +0.000 C 
ATOM     12  C   UNL     1     -10.650  -5.947  24.258  0.00  0.00    +0.000 C 
ENDBRANCH   3   4
ENDBRANCH   2   3
BRANCH   2  13
ATOM     13  C   UNL     1      -9.414  -4.172  21.594  0.00  0.00    +0.000 C 
BRANCH  13  14
ATOM     14  C   UNL     1      -9.343  -4.454  20.149  0.00  0.00    +0.000 A 
ATOM     15  C   UNL     1      -8.481  -5.444  19.664  0.00  0.00    +0.000 A 
ATOM     16  C   UNL     1      -8.376  -5.697  18.297  0.00  0.00    +0.000 A 
ATOM     17  C   UNL     1      -9.128  -4.954  17.394  0.00  0.00    +0.000 A 
ATOM     18  C   UNL     1      -9.982  -3.959  17.858  0.00  0.00    +0.000 A 
ATOM     19  C   UNL     1     -10.082  -3.711  19.226  0.00  0.00    +0.000 A 
ENDBRANCH  13  14
BRANCH  13  20
ATOM     20  C   UNL     1      -8.202  -3.985  22.332  0.00  0.00    +0.000 C 
BRANCH  20  21
ATOM     21  O   UNL     1      -7.077  -3.812  23.017  0.00  0.00    +0.000 OA
ATOM     22  H   UNL     1      -6.954  -2.873  23.240  0.00  0.00    +0.000 HD
ENDBRANCH  20  21
ENDBRANCH  13  20
ENDBRANCH   2  13
TORSDOF 6
ENDMDL
MODEL 3
REMARK VINA RESULT:      -5.8     14.714     16.572
REMARK  Name = Hyoscyamine.pdbqt.pdb
REMARK  6 active torsions:
REMARK  status: ('A' for Active; 'I' for Inactive)
REMARK    1  A    between atoms: C_2  and  O_3
REMARK    2  A    between atoms: C_2  and  C_13
REMARK    3  A    between atoms: O_3  and  C_4
REMARK    4  A    between atoms: C_13  and  C_14
REMARK    5  A    between atoms: C_13  and  C_20
REMARK    6  A    between atoms: C_20  and  O_21
REMARK                            x       y       z     vdW  Elec       q    Type
REMARK                         _______ _______ _______ _____ _____    ______ ____
ROOT
ATOM      1  O   UNL     1     -21.447  -7.084   9.244  0.00  0.00    +0.000 OA
ATOM      2  C   UNL     1     -21.049  -5.938   9.418  0.00  0.00    +0.000 C 
ENDROOT
BRANCH   2   3
ATOM      3  O   UNL     1     -21.077  -5.231  10.585  0.00  0.00    +0.000 OA
BRANCH   3   4
ATOM      4  C   UNL     1     -21.905  -5.804  11.549  0.00  0.00    +0.000 C 
ATOM      5  C   UNL     1     -23.285  -5.377  11.697  0.00  0.00    +0.000 C 
ATOM      6  C   UNL     1     -24.013  -5.170  12.956  0.00  0.00    +0.000 C 
ATOM      7  N   UNL     1     -22.988  -4.488  13.873  0.00  0.00    +0.000 NA
ATOM      8  C   UNL     1     -24.331  -6.411  13.640  0.00  0.00    +0.000 C 
ATOM      9  C   UNL     1     -22.130  -5.732  14.151  0.00  0.00    +0.000 C 
ATOM     10  C   UNL     1     -23.618  -3.984  15.102  0.00  0.00    +0.000 C 
ATOM     11  C   UNL     1     -23.086  -6.792  14.442  0.00  0.00    +0.000 C 
ATOM     12  C   UNL     1     -21.392  -5.948  12.897  0.00  0.00    +0.000 C 
ENDBRANCH   3   4
ENDBRANCH   2   3
BRANCH   2  13
ATOM     13  C   UNL     1     -20.486  -5.101   8.318  0.00  0.00    +0.000 C 
BRANCH  13  14
ATOM     14  C   UNL     1     -21.312  -4.335   7.366  0.00  0.00    +0.000 A 
ATOM     15  C   UNL     1     -21.578  -2.980   7.593  0.00  0.00    +0.000 A 
ATOM     16  C   UNL     1     -22.387  -2.252   6.721  0.00  0.00    +0.000 A 
ATOM     17  C   UNL     1     -22.948  -2.876   5.612  0.00  0.00    +0.000 A 
ATOM     18  C   UNL     1     -22.702  -4.224   5.377  0.00  0.00    +0.000 A 
ATOM     19  C   UNL     1     -21.893  -4.946   6.252  0.00  0.00    +0.000 A 
ENDBRANCH  13  14
BRANCH  13  20
ATOM     20  C   UNL     1     -19.060  -5.001   8.246  0.00  0.00    +0.000 C 
BRANCH  20  21
ATOM     21  O   UNL     1     -17.736  -4.908   8.180  0.00  0.00    +0.000 OA
ATOM     22  H   UNL     1     -17.454  -4.701   7.272  0.00  0.00    +0.000 HD
ENDBRANCH  20  21
ENDBRANCH  13  20
ENDBRANCH   2  13
TORSDOF 6
ENDMDL
MODEL 4
REMARK VINA RESULT:      -5.5     17.477     18.993
REMARK  Name = Hyoscyamine.pdbqt.pdb
REMARK  6 active torsions:
REMARK  status: ('A' for Active; 'I' for Inactive)
REMARK    1  A    between atoms: C_2  and  O_3
REMARK    2  A    between atoms: C_2  and  C_13
REMARK    3  A    between atoms: O_3  and  C_4
REMARK    4  A    between atoms: C_13  and  C_14
REMARK    5  A    between atoms: C_13  and  C_20
REMARK    6  A    between atoms: C_20  and  O_21
REMARK                            x       y       z     vdW  Elec       q    Type
REMARK                         _______ _______ _______ _____ _____    ______ ____
ROOT
ATOM      1  O   UNL     1       4.212 -13.009  14.927  0.00  0.00    +0.000 OA
ATOM      2  C   UNL     1       3.681 -13.088  13.826  0.00  0.00    +0.000 C 
ENDROOT
BRANCH   2   3
ATOM      3  O   UNL     1       2.638 -13.894  13.476  0.00  0.00    +0.000 OA
BRANCH   3   4
ATOM      4  C   UNL     1       3.037 -15.192  13.157  0.00  0.00    +0.000 C 
ATOM      5  C   UNL     1       2.159 -16.081  12.417  0.00  0.00    +0.000 C 
ATOM      6  C   UNL     1       1.948 -17.514  12.660  0.00  0.00    +0.000 C 
ATOM      7  N   UNL     1       1.901 -17.631  14.190  0.00  0.00    +0.000 NA
ATOM      8  C   UNL     1       3.087 -18.330  12.277  0.00  0.00    +0.000 C 
ATOM      9  C   UNL     1       3.406 -17.439  14.438  0.00  0.00    +0.000 C 
ATOM     10  C   UNL     1       1.453 -18.966  14.614  0.00  0.00    +0.000 C 
ATOM     11  C   UNL     1       4.062 -18.290  13.455  0.00  0.00    +0.000 C 
ATOM     12  C   UNL     1       3.629 -16.004  14.201  0.00  0.00    +0.000 C 
ENDBRANCH   3   4
ENDBRANCH   2   3
BRANCH   2  13
ATOM     13  C   UNL     1       4.148 -12.303  12.644  0.00  0.00    +0.000 C 
BRANCH  13  14
ATOM     14  C   UNL     1       3.711 -10.926  12.350  0.00  0.00    +0.000 A 
ATOM     15  C   UNL     1       2.604 -10.698  11.526  0.00  0.00    +0.000 A 
ATOM     16  C   UNL     1       2.201  -9.401  11.209  0.00  0.00    +0.000 A 
ATOM     17  C   UNL     1       2.909  -8.313  11.708  0.00  0.00    +0.000 A 
ATOM     18  C   UNL     1       4.019  -8.522  12.520  0.00  0.00    +0.000 A 
ATOM     19  C   UNL     1       4.417  -9.821  12.833  0.00  0.00    +0.000 A 
ENDBRANCH  13  14
BRANCH  13  20
ATOM     20  C   UNL     1       5.125 -12.923  11.802  0.00  0.00    +0.000 C 
BRANCH  20  21
ATOM     21  O   UNL     1       6.032 -13.499  11.020  0.00  0.00    +0.000 OA
ATOM     22  H   UNL     1       6.711 -12.854  10.754  0.00  0.00    +0.000 HD
ENDBRANCH  20  21
ENDBRANCH  13  20
ENDBRANCH   2  13
TORSDOF 6
ENDMDL
MODEL 5
REMARK VINA RESULT:      -5.5      2.539      7.044
REMARK  Name = Hyoscyamine.pdbqt.pdb
REMARK  6 active torsions:
REMARK  status: ('A' for Active; 'I' for Inactive)
REMARK    1  A    between atoms: C_2  and  O_3
REMARK    2  A    between atoms: C_2  and  C_13
REMARK    3  A    between atoms: O_3  and  C_4
REMARK    4  A    between atoms: C_13  and  C_14
REMARK    5  A    between atoms: C_13  and  C_20
REMARK    6  A    between atoms: C_20  and  O_21
REMARK                            x       y       z     vdW  Elec       q    Type
REMARK                         _______ _______ _______ _____ _____    ______ ____
ROOT
ATOM      1  O   UNL     1     -10.525  -4.624  25.637  0.00  0.00    +0.000 OA
ATOM      2  C   UNL     1     -10.351  -5.644  24.981  0.00  0.00    +0.000 C 
ENDROOT
BRANCH   2   3
ATOM      3  O   UNL     1     -10.751  -5.869  23.696  0.00  0.00    +0.000 OA
BRANCH   3   4
ATOM      4  C   UNL     1     -10.437  -4.816  22.836  0.00  0.00    +0.000 C 
ATOM      5  C   UNL     1     -11.208  -4.586  21.627  0.00  0.00    +0.000 C 
ATOM      6  C   UNL     1     -10.685  -4.206  20.309  0.00  0.00    +0.000 C 
ATOM      7  N   UNL     1      -9.412  -5.050  20.153  0.00  0.00    +0.000 NA
ATOM      8  C   UNL     1     -10.208  -2.834  20.259  0.00  0.00    +0.000 C 
ATOM      9  C   UNL     1      -8.538  -4.252  21.133  0.00  0.00    +0.000 C 
ATOM     10  C   UNL     1      -8.884  -4.979  18.782  0.00  0.00    +0.000 C 
ATOM     11  C   UNL     1      -8.779  -2.855  20.802  0.00  0.00    +0.000 C 
ATOM     12  C   UNL     1      -9.050  -4.628  22.460  0.00  0.00    +0.000 C 
ENDBRANCH   3   4
ENDBRANCH   2   3
BRANCH   2  13
ATOM     13  C   UNL     1      -9.680  -6.857  25.535  0.00  0.00    +0.000 C 
BRANCH  13  14
ATOM     14  C   UNL     1     -10.405  -8.043  26.028  0.00  0.00    +0.000 A 
ATOM     15  C   UNL     1      -9.704  -9.191  26.410  0.00  0.00    +0.000 A 
ATOM     16  C   UNL     1     -10.379 -10.332  26.843  0.00  0.00    +0.000 A 
ATOM     17  C   UNL     1     -11.769 -10.340  26.891  0.00  0.00    +0.000 A 
ATOM     18  C   UNL     1     -12.482  -9.211  26.504  0.00  0.00    +0.000 A 
ATOM     19  C   UNL     1     -11.801  -8.073  26.072  0.00  0.00    +0.000 A 
ENDBRANCH  13  14
BRANCH  13  20
ATOM     20  C   UNL     1      -8.249  -6.871  25.513  0.00  0.00    +0.000 C 
BRANCH  20  21
ATOM     21  O   UNL     1      -6.921  -6.883  25.493  0.00  0.00    +0.000 OA
ATOM     22  H   UNL     1      -6.592  -6.760  24.585  0.00  0.00    +0.000 HD
ENDBRANCH  20  21
ENDBRANCH  13  20
ENDBRANCH   2  13
TORSDOF 6
ENDMDL
MODEL 6
REMARK VINA RESULT:      -5.4     17.367     19.156
REMARK  Name = Hyoscyamine.pdbqt.pdb
REMARK  6 active torsions:
REMARK  status: ('A' for Active; 'I' for Inactive)
REMARK    1  A    between atoms: C_2  and  O_3
REMARK    2  A    between atoms: C_2  and  C_13
REMARK    3  A    between atoms: O_3  and  C_4
REMARK    4  A    between atoms: C_13  and  C_14
REMARK    5  A    between atoms: C_13  and  C_20
REMARK    6  A    between atoms: C_20  and  O_21
REMARK                            x       y       z     vdW  Elec       q    Type
REMARK                         _______ _______ _______ _____ _____    ______ ____
ROOT
ATOM      1  O   UNL     1       2.839 -10.397  11.443  0.00  0.00    +0.000 OA
ATOM      2  C   UNL     1       4.018 -10.541  11.745  0.00  0.00    +0.000 C 
ENDROOT
BRANCH   2   3
ATOM      3  O   UNL     1       5.035  -9.660  11.517  0.00  0.00    +0.000 OA
BRANCH   3   4
ATOM      4  C   UNL     1       5.277  -8.818  12.603  0.00  0.00    +0.000 C 
ATOM      5  C   UNL     1       4.830  -7.436  12.588  0.00  0.00    +0.000 C 
ATOM      6  C   UNL     1       5.569  -6.266  13.080  0.00  0.00    +0.000 C 
ATOM      7  N   UNL     1       7.013  -6.518  12.625  0.00  0.00    +0.000 NA
ATOM      8  C   UNL     1       5.658  -6.216  14.530  0.00  0.00    +0.000 C 
ATOM      9  C   UNL     1       7.344  -7.613  13.651  0.00  0.00    +0.000 C 
ATOM     10  C   UNL     1       7.854  -5.327  12.820  0.00  0.00    +0.000 C 
ATOM     11  C   UNL     1       6.839  -7.106  14.920  0.00  0.00    +0.000 C 
ATOM     12  C   UNL     1       6.612  -8.793  13.167  0.00  0.00    +0.000 C 
ENDBRANCH   3   4
ENDBRANCH   2   3
BRANCH   2  13
ATOM     13  C   UNL     1       4.540 -11.777  12.401  0.00  0.00    +0.000 C 
BRANCH  13  14
ATOM     14  C   UNL     1       4.141 -12.220  13.749  0.00  0.00    +0.000 A 
ATOM     15  C   UNL     1       3.120 -13.163  13.909  0.00  0.00    +0.000 A 
ATOM     16  C   UNL     1       2.707 -13.564  15.179  0.00  0.00    +0.000 A 
ATOM     17  C   UNL     1       3.307 -13.018  16.309  0.00  0.00    +0.000 A 
ATOM     18  C   UNL     1       4.316 -12.072  16.168  0.00  0.00    +0.000 A 
ATOM     19  C   UNL     1       4.725 -11.675  14.896  0.00  0.00    +0.000 A 
ENDBRANCH  13  14
BRANCH  13  20
ATOM     20  C   UNL     1       5.427 -12.592  11.629  0.00  0.00    +0.000 C 
BRANCH  20  21
ATOM     21  O   UNL     1       6.251 -13.350  10.913  0.00  0.00    +0.000 OA
ATOM     22  H   UNL     1       6.860 -13.837  11.496  0.00  0.00    +0.000 HD
ENDBRANCH  20  21
ENDBRANCH  13  20
ENDBRANCH   2  13
TORSDOF 6
ENDMDL
MODEL 7
REMARK VINA RESULT:      -5.0     17.061     18.809
REMARK  Name = Hyoscyamine.pdbqt.pdb
REMARK  6 active torsions:
REMARK  status: ('A' for Active; 'I' for Inactive)
REMARK    1  A    between atoms: C_2  and  O_3
REMARK    2  A    between atoms: C_2  and  C_13
REMARK    3  A    between atoms: O_3  and  C_4
REMARK    4  A    between atoms: C_13  and  C_14
REMARK    5  A    between atoms: C_13  and  C_20
REMARK    6  A    between atoms: C_20  and  O_21
REMARK                            x       y       z     vdW  Elec       q    Type
REMARK                         _______ _______ _______ _____ _____    ______ ____
ROOT
ATOM      1  O   UNL     1     -22.449  -4.768   9.440  0.00  0.00    +0.000 OA
ATOM      2  C   UNL     1     -21.616  -4.128   8.809  0.00  0.00    +0.000 C 
ENDROOT
BRANCH   2   3
ATOM      3  O   UNL     1     -21.147  -2.881   9.102  0.00  0.00    +0.000 OA
BRANCH   3   4
ATOM      4  C   UNL     1     -22.154  -1.916   9.142  0.00  0.00    +0.000 C 
ATOM      5  C   UNL     1     -22.344  -0.992   8.039  0.00  0.00    +0.000 C 
ATOM      6  C   UNL     1     -22.656   0.440   8.134  0.00  0.00    +0.000 C 
ATOM      7  N   UNL     1     -21.782   0.937   9.294  0.00  0.00    +0.000 NA
ATOM      8  C   UNL     1     -24.015   0.699   8.578  0.00  0.00    +0.000 C 
ATOM      9  C   UNL     1     -22.606   0.310  10.430  0.00  0.00    +0.000 C 
ATOM     10  C   UNL     1     -21.781   2.405   9.377  0.00  0.00    +0.000 C 
ATOM     11  C   UNL     1     -23.992   0.619  10.105  0.00  0.00    +0.000 C 
ATOM     12  C   UNL     1     -22.299  -1.126  10.348  0.00  0.00    +0.000 C 
ENDBRANCH   3   4
ENDBRANCH   2   3
BRANCH   2  13
ATOM     13  C   UNL     1     -20.994  -4.632   7.548  0.00  0.00    +0.000 C 
BRANCH  13  14
ATOM     14  C   UNL     1     -21.745  -4.862   6.300  0.00  0.00    +0.000 A 
ATOM     15  C   UNL     1     -21.549  -6.037   5.564  0.00  0.00    +0.000 A 
ATOM     16  C   UNL     1     -22.225  -6.252   4.364  0.00  0.00    +0.000 A 
ATOM     17  C   UNL     1     -23.100  -5.287   3.878  0.00  0.00    +0.000 A 
ATOM     18  C   UNL     1     -23.299  -4.109   4.591  0.00  0.00    +0.000 A 
ATOM     19  C   UNL     1     -22.620  -3.900   5.790  0.00  0.00    +0.000 A 
ENDBRANCH  13  14
BRANCH  13  20
ATOM     20  C   UNL     1     -19.578  -4.832   7.560  0.00  0.00    +0.000 C 
BRANCH  20  21
ATOM     21  O   UNL     1     -18.262  -5.016   7.572  0.00  0.00    +0.000 OA
ATOM     22  H   UNL     1     -18.050  -5.963   7.486  0.00  0.00    +0.000 HD
ENDBRANCH  20  21
ENDBRANCH  13  20
ENDBRANCH   2  13
TORSDOF 6
ENDMDL
MODEL 8
REMARK VINA RESULT:      -5.0     14.706     17.229
REMARK  Name = Hyoscyamine.pdbqt.pdb
REMARK  6 active torsions:
REMARK  status: ('A' for Active; 'I' for Inactive)
REMARK    1  A    between atoms: C_2  and  O_3
REMARK    2  A    between atoms: C_2  and  C_13
REMARK    3  A    between atoms: O_3  and  C_4
REMARK    4  A    between atoms: C_13  and  C_14
REMARK    5  A    between atoms: C_13  and  C_20
REMARK    6  A    between atoms: C_20  and  O_21
REMARK                            x       y       z     vdW  Elec       q    Type
REMARK                         _______ _______ _______ _____ _____    ______ ____
ROOT
ATOM      1  O   UNL     1     -24.205  -7.772  12.257  0.00  0.00    +0.000 OA
ATOM      2  C   UNL     1     -23.339  -7.056  12.745  0.00  0.00    +0.000 C 
ENDROOT
BRANCH   2   3
ATOM      3  O   UNL     1     -22.167  -6.675  12.159  0.00  0.00    +0.000 OA
BRANCH   3   4
ATOM      4  C   UNL     1     -22.353  -6.031  10.936  0.00  0.00    +0.000 C 
ATOM      5  C   UNL     1     -22.179  -6.745   9.683  0.00  0.00    +0.000 C 
ATOM      6  C   UNL     1     -21.537  -6.238   8.464  0.00  0.00    +0.000 C 
ATOM      7  N   UNL     1     -20.318  -5.459   8.978  0.00  0.00    +0.000 NA
ATOM      8  C   UNL     1     -22.333  -5.236   7.775  0.00  0.00    +0.000 C 
ATOM      9  C   UNL     1     -21.087  -4.242   9.515  0.00  0.00    +0.000 C 
ATOM     10  C   UNL     1     -19.417  -5.084   7.878  0.00  0.00    +0.000 C 
ATOM     11  C   UNL     1     -22.037  -3.903   8.464  0.00  0.00    +0.000 C 
ATOM     12  C   UNL     1     -21.732  -4.736  10.741  0.00  0.00    +0.000 C 
ENDBRANCH   3   4
ENDBRANCH   2   3
BRANCH   2  13
ATOM     13  C   UNL     1     -23.430  -6.503  14.129  0.00  0.00    +0.000 C 
BRANCH  13  14
ATOM     14  C   UNL     1     -24.222  -7.121  15.208  0.00  0.00    +0.000 A 
ATOM     15  C   UNL     1     -25.590  -6.849  15.325  0.00  0.00    +0.000 A 
ATOM     16  C   UNL     1     -26.344  -7.398  16.362  0.00  0.00    +0.000 A 
ATOM     17  C   UNL     1     -25.735  -8.221  17.303  0.00  0.00    +0.000 A 
ATOM     18  C   UNL     1     -24.374  -8.494  17.207  0.00  0.00    +0.000 A 
ATOM     19  C   UNL     1     -23.626  -7.942  16.168  0.00  0.00    +0.000 A 
ENDBRANCH  13  14
BRANCH  13  20
ATOM     20  C   UNL     1     -22.642  -5.343  14.415  0.00  0.00    +0.000 C 
BRANCH  20  21
ATOM     21  O   UNL     1     -21.911  -4.266  14.681  0.00  0.00    +0.000 OA
ATOM     22  H   UNL     1     -21.306  -4.074  13.942  0.00  0.00    +0.000 HD
ENDBRANCH  20  21
ENDBRANCH  13  20
ENDBRANCH   2  13
TORSDOF 6
ENDMDL
MODEL 9
REMARK VINA RESULT:      -4.7     17.551     20.347
REMARK  Name = Hyoscyamine.pdbqt.pdb
REMARK  6 active torsions:
REMARK  status: ('A' for Active; 'I' for Inactive)
REMARK    1  A    between atoms: C_2  and  O_3
REMARK    2  A    between atoms: C_2  and  C_13
REMARK    3  A    between atoms: O_3  and  C_4
REMARK    4  A    between atoms: C_13  and  C_14
REMARK    5  A    between atoms: C_13  and  C_20
REMARK    6  A    between atoms: C_20  and  O_21
REMARK                            x       y       z     vdW  Elec       q    Type
REMARK                         _______ _______ _______ _____ _____    ______ ____
ROOT
ATOM      1  O   UNL     1       5.452  -6.020  14.310  0.00  0.00    +0.000 OA
ATOM      2  C   UNL     1       5.586  -7.054  13.667  0.00  0.00    +0.000 C 
ENDROOT
BRANCH   2   3
ATOM      3  O   UNL     1       6.375  -7.238  12.570  0.00  0.00    +0.000 OA
BRANCH   3   4
ATOM      4  C   UNL     1       7.733  -7.311  12.882  0.00  0.00    +0.000 C 
ATOM      5  C   UNL     1       8.581  -6.134  12.799  0.00  0.00    +0.000 C 
ATOM      6  C   UNL     1       9.954  -6.073  12.282  0.00  0.00    +0.000 C 
ATOM      7  N   UNL     1       9.929  -6.981  11.045  0.00  0.00    +0.000 NA
ATOM      8  C   UNL     1      10.923  -6.702  13.164  0.00  0.00    +0.000 C 
ATOM      9  C   UNL     1       9.884  -8.320  11.797  0.00  0.00    +0.000 C 
ATOM     10  C   UNL     1      11.162  -6.848  10.256  0.00  0.00    +0.000 C 
ATOM     11  C   UNL     1      10.887  -8.197  12.846  0.00  0.00    +0.000 C 
ATOM     12  C   UNL     1       8.510  -8.396  12.317  0.00  0.00    +0.000 C 
ENDBRANCH   3   4
ENDBRANCH   2   3
BRANCH   2  13
ATOM     13  C   UNL     1       4.840  -8.308  13.985  0.00  0.00    +0.000 C 
BRANCH  13  14
ATOM     14  C   UNL     1       4.020  -9.044  13.004  0.00  0.00    +0.000 A 
ATOM     15  C   UNL     1       4.146 -10.432  12.880  0.00  0.00    +0.000 A 
ATOM     16  C   UNL     1       3.405 -11.137  11.933  0.00  0.00    +0.000 A 
ATOM     17  C   UNL     1       2.532 -10.459  11.089  0.00  0.00    +0.000 A 
ATOM     18  C   UNL     1       2.402  -9.078  11.192  0.00  0.00    +0.000 A 
ATOM     19  C   UNL     1       3.147  -8.378  12.141  0.00  0.00    +0.000 A 
ENDBRANCH  13  14
BRANCH  13  20
ATOM     20  C   UNL     1       4.998  -8.838  15.304  0.00  0.00    +0.000 C 
BRANCH  20  21
ATOM     21  O   UNL     1       5.146  -9.330  16.530  0.00  0.00    +0.000 OA
ATOM     22  H   UNL     1       6.061  -9.209  16.838  0.00  0.00    +0.000 HD
ENDBRANCH  20  21
ENDBRANCH  13  20
ENDBRANCH   2  13
TORSDOF 6
ENDMDL
