REMARK  Name = Hyoscyamine.pdbqt.pdb
REMARK  6 active torsions:
REMARK  status: ('A' for Active; 'I' for Inactive)
REMARK    1  A    between atoms: C_2  and  O_3
REMARK    2  A    between atoms: C_2  and  C_13
REMARK    3  A    between atoms: O_3  and  C_4
REMARK    4  A    between atoms: C_13  and  C_14
REMARK    5  A    between atoms: C_13  and  C_20
REMARK    6  A    between atoms: C_20  and  O_21
REMARK                            x       y       z     vdW  Elec       q    Type
REMARK                         _______ _______ _______ _____ _____    ______ ____
ROOT
ATOM      1  O   UNL     1       0.329   2.072  -1.216  0.00  0.00    +0.000 OA
ATOM      2  C   UNL     1       0.744   1.079  -0.631  0.00  0.00    +0.000 C 
ENDROOT
BRANCH   2   3
ATOM      3  O   UNL     1       0.019  -0.017  -0.263  0.00  0.00    +0.000 OA
BRANCH   3   4
ATOM      4  C   UNL     1      -1.328   0.079  -0.613  0.00  0.00    +0.000 C 
ATOM      5  C   UNL     1      -2.200   1.042   0.036  0.00  0.00    +0.000 C 
ATOM      6  C   UNL     1      -3.588   0.824   0.464  0.00  0.00    +0.000 C 
ATOM      7  N   UNL     1      -3.579  -0.592   1.056  0.00  0.00    +0.000 NA
ATOM      8  C   UNL     1      -4.520   0.738  -0.647  0.00  0.00    +0.000 C 
ATOM      9  C   UNL     1      -3.488  -1.351  -0.277  0.00  0.00    +0.000 C 
ATOM     10  C   UNL     1      -4.836  -0.889   1.759  0.00  0.00    +0.000 C 
ATOM     11  C   UNL     1      -4.464  -0.707  -1.145  0.00  0.00    +0.000 C 
ATOM     12  C   UNL     1      -2.099  -1.144  -0.715  0.00  0.00    +0.000 C 
ENDBRANCH   3   4
ENDBRANCH   2   3
BRANCH   2  13
ATOM     13  C   UNL     1       2.161   0.937  -0.182  0.00  0.00    +0.000 C 
BRANCH  13  14
ATOM     14  C   UNL     1       2.818  -0.361   0.060  0.00  0.00    +0.000 A 
ATOM     15  C   UNL     1       3.893  -0.453   0.951  0.00  0.00    +0.000 A 
ATOM     16  C   UNL     1       4.547  -1.666   1.162  0.00  0.00    +0.000 A 
ATOM     17  C   UNL     1       4.138  -2.804   0.475  0.00  0.00    +0.000 A 
ATOM     18  C   UNL     1       3.078  -2.728  -0.422  0.00  0.00    +0.000 A 
ATOM     19  C   UNL     1       2.428  -1.512  -0.629  0.00  0.00    +0.000 A 
ENDBRANCH  13  14
BRANCH  13  20
ATOM     20  C   UNL     1       2.921   2.142  -0.050  0.00  0.00    +0.000 C 
BRANCH  20  21
ATOM     21  O   UNL     1       3.627   3.261   0.073  0.00  0.00    +0.000 OA
ATOM     22  H   UNL     1       3.182   3.997  -0.383  0.00  0.00    +0.000 HD
ENDBRANCH  20  21
ENDBRANCH  13  20
ENDBRANCH   2  13
TORSDOF 6
