MODEL 1
REMARK VINA RESULT:      -7.1      0.000      0.000
REMARK  Name = 
REMARK  21 active torsions:
REMARK  status: ('A' for Active; 'I' for Inactive)
REMARK    1  A    between atoms: O_3  and  C_22
REMARK    2  A    between atoms: O_3  and  C_28
REMARK    3  A    between atoms: O_4  and  C_25
REMARK    4  A    between atoms: O_4  and  C_30
REMARK    5  A    between atoms: O_5  and  C_16
REMARK    6  A    between atoms: O_6  and  C_17
REMARK    7  A    between atoms: O_7  and  C_18
REMARK    8  A    between atoms: O_8  and  C_20
REMARK    9  A    between atoms: O_9  and  C_21
REMARK   10  A    between atoms: O_10  and  C_23
REMARK   11  A    between atoms: O_11  and  C_26
REMARK   12  A    between atoms: O_13  and  C_36
REMARK   13  A    between atoms: O_15  and  C_45
REMARK   14  A    between atoms: O_15  and  C_48
REMARK   15  A    between atoms: C_19  and  C_26
REMARK   16  A    between atoms: C_24  and  C_27
REMARK   17  A    between atoms: C_29  and  C_37
REMARK   18  A    between atoms: C_35  and  C_38
REMARK   19  A    between atoms: C_37  and  C_39
REMARK   20  A    between atoms: C_42  and  C_46
REMARK   21  A    between atoms: C_42  and  C_47
REMARK                            x       y       z     vdW  Elec       q    Type
REMARK                         _______ _______ _______ _____ _____    ______ ____
ROOT
ATOM      1  O   UNL     1      -8.734   0.398  20.863  0.00  0.00    +0.000 OA
ATOM      2  O   UNL     1      -5.379   1.097  23.040  0.00  0.00    +0.000 OA
ATOM      3  C   UNL     1      -8.113  -2.991  22.092  0.00  0.00    +0.000 A 
ATOM      4  C   UNL     1      -8.719  -1.915  21.419  0.00  0.00    +0.000 A 
ATOM      5  C   UNL     1      -7.062   1.977  21.609  0.00  0.00    +0.000 A 
ATOM      6  C   UNL     1      -8.127  -0.640  21.527  0.00  0.00    +0.000 A 
ATOM      7  C   UNL     1      -6.976  -0.452  22.292  0.00  0.00    +0.000 A 
ATOM      8  C   UNL     1      -6.388   0.892  22.367  0.00  0.00    +0.000 A 
ATOM      9  C   UNL     1      -6.982  -2.794  22.891  0.00  0.00    +0.000 A 
ATOM     10  C   UNL     1      -8.154   1.652  20.895  0.00  0.00    +0.000 A 
ATOM     11  C   UNL     1      -6.409  -1.530  22.977  0.00  0.00    +0.000 A 
ENDROOT
BRANCH  10  12
ATOM     12  C   UNL     1      -8.887   2.642  20.090  0.00  0.00    +0.000 A 
ATOM     13  C   UNL     1      -9.445   3.767  20.706  0.00  0.00    +0.000 A 
ATOM     14  C   UNL     1      -9.050   2.476  18.709  0.00  0.00    +0.000 A 
ATOM     15  C   UNL     1     -10.138   4.714  19.948  0.00  0.00    +0.000 A 
ATOM     16  C   UNL     1      -9.743   3.427  17.951  0.00  0.00    +0.000 A 
ATOM     17  C   UNL     1     -10.285   4.555  18.568  0.00  0.00    +0.000 A 
BRANCH  17  18
ATOM     18  O   UNL     1     -10.979   5.556  17.948  0.00  0.00    +0.000 OA
ATOM     19  C   UNL     1     -10.235   6.700  17.549  0.00  0.00    +0.000 C 
ENDBRANCH  17  18
ENDBRANCH  10  12
BRANCH  11  20
ATOM     20  O   UNL     1      -5.294  -1.418  23.762  0.00  0.00    +0.000 OA
ATOM     21  H   UNL     1      -4.705  -0.737  23.367  0.00  0.00    +0.000 HD
ENDBRANCH  11  20
BRANCH   4  22
ATOM     22  C   UNL     1      -9.954  -2.114  20.562  0.00  0.00    +0.000 C 
BRANCH  22  23
ATOM     23  C   UNL     1      -9.746  -3.149  19.487  0.00  0.00    +0.000 C 
ATOM     24  C   UNL     1     -10.184  -3.141  18.212  0.00  0.00    +0.000 C 
ATOM     25  C   UNL     1     -10.999  -2.050  17.574  0.00  0.00    +0.000 C 
ATOM     26  C   UNL     1      -9.860  -4.286  17.289  0.00  0.00    +0.000 C 
ENDBRANCH  22  23
ENDBRANCH   4  22
BRANCH   5  27
ATOM     27  O   UNL     1      -6.506   3.243  21.601  0.00  0.00    +0.000 OA
BRANCH  27  33
ATOM     28  O   UNL     1      -4.323   4.142  21.397  0.00  0.00    +0.000 OA
ATOM     29  C   UNL     1      -6.121   5.331  19.481  0.00  0.00    +0.000 C 
ATOM     30  C   UNL     1      -5.037   6.152  20.191  0.00  0.00    +0.000 C 
ATOM     31  C   UNL     1      -5.726   3.857  19.389  0.00  0.00    +0.000 C 
ATOM     32  C   UNL     1      -4.710   5.515  21.547  0.00  0.00    +0.000 C 
ATOM     33  C   UNL     1      -5.332   3.325  20.784  0.00  0.00    +0.000 C 
ATOM     34  C   UNL     1      -3.561   6.239  22.242  0.00  0.00    +0.000 C 
BRANCH  29  35
ATOM     35  O   UNL     1      -6.309   5.876  18.161  0.00  0.00    +0.000 OA
ATOM     36  H   UNL     1      -5.655   5.408  17.601  0.00  0.00    +0.000 HD
ENDBRANCH  29  35
BRANCH  30  37
ATOM     37  O   UNL     1      -5.505   7.496  20.349  0.00  0.00    +0.000 OA
ATOM     38  H   UNL     1      -6.410   7.412  20.712  0.00  0.00    +0.000 HD
ENDBRANCH  30  37
BRANCH  31  39
ATOM     39  O   UNL     1      -4.644   3.755  18.439  0.00  0.00    +0.000 OA
ATOM     40  H   UNL     1      -3.833   4.046  18.895  0.00  0.00    +0.000 HD
ENDBRANCH  31  39
ENDBRANCH  27  33
ENDBRANCH   5  27
BRANCH   3  41
ATOM     41  O   UNL     1      -8.702  -4.229  22.043  0.00  0.00    +0.000 OA
BRANCH  41  47
ATOM     42  O   UNL     1      -8.514  -5.350  24.118  0.00  0.00    +0.000 OA
ATOM     43  C   UNL     1     -11.319  -5.887  24.138  0.00  0.00    +0.000 C 
ATOM     44  C   UNL     1     -10.354  -6.609  25.082  0.00  0.00    +0.000 C 
ATOM     45  C   UNL     1     -10.598  -5.407  22.880  0.00  0.00    +0.000 C 
ATOM     46  C   UNL     1      -9.142  -5.709  25.361  0.00  0.00    +0.000 C 
ATOM     47  C   UNL     1      -9.365  -4.574  23.277  0.00  0.00    +0.000 C 
BRANCH  44  48
ATOM     48  O   UNL     1     -11.043  -6.945  26.288  0.00  0.00    +0.000 OA
ATOM     49  H   UNL     1     -10.789  -6.250  26.930  0.00  0.00    +0.000 HD
ENDBRANCH  44  48
BRANCH  45  50
ATOM     50  O   UNL     1     -11.526  -4.653  22.083  0.00  0.00    +0.000 OA
ATOM     51  H   UNL     1     -11.644  -5.161  21.256  0.00  0.00    +0.000 HD
ENDBRANCH  45  50
BRANCH  43  52
ATOM     52  O   UNL     1     -12.388  -6.782  23.791  0.00  0.00    +0.000 OA
ATOM     53  H   UNL     1     -13.012  -6.738  24.543  0.00  0.00    +0.000 HD
ENDBRANCH  43  52
BRANCH  46  54
ATOM     54  C   UNL     1      -8.108  -6.427  26.239  0.00  0.00    +0.000 C 
BRANCH  54  55
ATOM     55  O   UNL     1      -7.016  -6.873  25.431  0.00  0.00    +0.000 OA
ATOM     56  H   UNL     1      -7.005  -7.843  25.482  0.00  0.00    +0.000 HD
ENDBRANCH  54  55
ENDBRANCH  46  54
ENDBRANCH  41  47
ENDBRANCH   3  41
TORSDOF 17
ENDMDL
MODEL 2
REMARK VINA RESULT:      -6.9     16.597     19.562
REMARK  Name = 
REMARK  21 active torsions:
REMARK  status: ('A' for Active; 'I' for Inactive)
REMARK    1  A    between atoms: O_3  and  C_22
REMARK    2  A    between atoms: O_3  and  C_28
REMARK    3  A    between atoms: O_4  and  C_25
REMARK    4  A    between atoms: O_4  and  C_30
REMARK    5  A    between atoms: O_5  and  C_16
REMARK    6  A    between atoms: O_6  and  C_17
REMARK    7  A    between atoms: O_7  and  C_18
REMARK    8  A    between atoms: O_8  and  C_20
REMARK    9  A    between atoms: O_9  and  C_21
REMARK   10  A    between atoms: O_10  and  C_23
REMARK   11  A    between atoms: O_11  and  C_26
REMARK   12  A    between atoms: O_13  and  C_36
REMARK   13  A    between atoms: O_15  and  C_45
REMARK   14  A    between atoms: O_15  and  C_48
REMARK   15  A    between atoms: C_19  and  C_26
REMARK   16  A    between atoms: C_24  and  C_27
REMARK   17  A    between atoms: C_29  and  C_37
REMARK   18  A    between atoms: C_35  and  C_38
REMARK   19  A    between atoms: C_37  and  C_39
REMARK   20  A    between atoms: C_42  and  C_46
REMARK   21  A    between atoms: C_42  and  C_47
REMARK                            x       y       z     vdW  Elec       q    Type
REMARK                         _______ _______ _______ _____ _____    ______ ____
ROOT
ATOM      1  O   UNL     1      -1.751  -0.596   4.655  0.00  0.00    +0.000 OA
ATOM      2  O   UNL     1       1.855  -1.883   3.303  0.00  0.00    +0.000 OA
ATOM      3  C   UNL     1      -2.869  -3.349   2.519  0.00  0.00    +0.000 A 
ATOM      4  C   UNL     1      -2.910  -2.259   3.408  0.00  0.00    +0.000 A 
ATOM      5  C   UNL     1       0.650  -0.316   4.625  0.00  0.00    +0.000 A 
ATOM      6  C   UNL     1      -1.691  -1.659   3.785  0.00  0.00    +0.000 A 
ATOM      7  C   UNL     1      -0.478  -2.142   3.296  0.00  0.00    +0.000 A 
ATOM      8  C   UNL     1       0.766  -1.478   3.707  0.00  0.00    +0.000 A 
ATOM      9  C   UNL     1      -1.650  -3.858   2.061  0.00  0.00    +0.000 A 
ATOM     10  C   UNL     1      -0.585   0.058   5.004  0.00  0.00    +0.000 A 
ATOM     11  C   UNL     1      -0.460  -3.245   2.438  0.00  0.00    +0.000 A 
ENDROOT
BRANCH  10  12
ATOM     12  C   UNL     1      -0.818   1.208   5.891  0.00  0.00    +0.000 A 
ATOM     13  C   UNL     1      -1.286   1.001   7.194  0.00  0.00    +0.000 A 
ATOM     14  C   UNL     1      -0.592   2.519   5.454  0.00  0.00    +0.000 A 
ATOM     15  C   UNL     1      -1.506   2.087   8.044  0.00  0.00    +0.000 A 
ATOM     16  C   UNL     1      -0.810   3.605   6.309  0.00  0.00    +0.000 A 
ATOM     17  C   UNL     1      -1.263   3.392   7.611  0.00  0.00    +0.000 A 
BRANCH  17  18
ATOM     18  O   UNL     1      -1.513   4.360   8.544  0.00  0.00    +0.000 OA
ATOM     19  C   UNL     1      -2.701   4.218   9.313  0.00  0.00    +0.000 C 
ENDBRANCH  17  18
ENDBRANCH  10  12
BRANCH  11  20
ATOM     20  O   UNL     1       0.691  -3.787   1.935  0.00  0.00    +0.000 OA
ATOM     21  H   UNL     1       1.356  -3.069   1.844  0.00  0.00    +0.000 HD
ENDBRANCH  11  20
BRANCH   4  22
ATOM     22  C   UNL     1      -4.225  -1.708   3.923  0.00  0.00    +0.000 C 
BRANCH  22  23
ATOM     23  C   UNL     1      -5.148  -1.289   2.808  0.00  0.00    +0.000 C 
ATOM     24  C   UNL     1      -4.973  -0.317   1.891  0.00  0.00    +0.000 C 
ATOM     25  C   UNL     1      -3.772   0.581   1.784  0.00  0.00    +0.000 C 
ATOM     26  C   UNL     1      -6.029  -0.058   0.848  0.00  0.00    +0.000 C 
ENDBRANCH  22  23
ENDBRANCH   4  22
BRANCH   5  27
ATOM     27  O   UNL     1       1.790   0.378   4.986  0.00  0.00    +0.000 OA
BRANCH  27  33
ATOM     28  O   UNL     1       2.157   0.812   7.286  0.00  0.00    +0.000 OA
ATOM     29  C   UNL     1       4.624   0.936   5.798  0.00  0.00    +0.000 C 
ATOM     30  C   UNL     1       4.325   1.904   6.950  0.00  0.00    +0.000 C 
ATOM     31  C   UNL     1       3.869  -0.381   5.975  0.00  0.00    +0.000 C 
ATOM     32  C   UNL     1       2.808   2.077   7.100  0.00  0.00    +0.000 C 
ATOM     33  C   UNL     1       2.368  -0.107   6.205  0.00  0.00    +0.000 C 
ATOM     34  C   UNL     1       2.462   2.950   8.302  0.00  0.00    +0.000 C 
BRANCH  29  35
ATOM     35  O   UNL     1       6.043   0.694   5.769  0.00  0.00    +0.000 OA
ATOM     36  H   UNL     1       6.132  -0.281   5.822  0.00  0.00    +0.000 HD
ENDBRANCH  29  35
BRANCH  30  37
ATOM     37  O   UNL     1       4.965   3.157   6.678  0.00  0.00    +0.000 OA
ATOM     38  H   UNL     1       5.909   3.015   6.893  0.00  0.00    +0.000 HD
ENDBRANCH  30  37
BRANCH  31  39
ATOM     39  O   UNL     1       4.473  -1.083   7.082  0.00  0.00    +0.000 OA
ATOM     40  H   UNL     1       3.791  -1.672   7.455  0.00  0.00    +0.000 HD
ENDBRANCH  31  39
ENDBRANCH  27  33
ENDBRANCH   5  27
BRANCH   3  41
ATOM     41  O   UNL     1      -4.039  -3.981   2.181  0.00  0.00    +0.000 OA
BRANCH  41  47
ATOM     42  O   UNL     1      -3.432  -5.401   0.388  0.00  0.00    +0.000 OA
ATOM     43  C   UNL     1      -5.067  -7.498   1.431  0.00  0.00    +0.000 C 
ATOM     44  C   UNL     1      -4.522  -7.537   0.001  0.00  0.00    +0.000 C 
ATOM     45  C   UNL     1      -5.179  -6.061   1.936  0.00  0.00    +0.000 C 
ATOM     46  C   UNL     1      -3.207  -6.746  -0.067  0.00  0.00    +0.000 C 
ATOM     47  C   UNL     1      -3.827  -5.344   1.758  0.00  0.00    +0.000 C 
BRANCH  44  48
ATOM     48  O   UNL     1      -4.333  -8.898  -0.391  0.00  0.00    +0.000 OA
ATOM     49  H   UNL     1      -4.429  -8.899  -1.366  0.00  0.00    +0.000 HD
ENDBRANCH  44  48
BRANCH  45  50
ATOM     50  O   UNL     1      -5.597  -6.092   3.310  0.00  0.00    +0.000 OA
ATOM     51  H   UNL     1      -5.855  -7.018   3.490  0.00  0.00    +0.000 HD
ENDBRANCH  45  50
BRANCH  43  52
ATOM     52  O   UNL     1      -6.353  -8.138   1.457  0.00  0.00    +0.000 OA
ATOM     53  H   UNL     1      -6.975  -7.447   1.764  0.00  0.00    +0.000 HD
ENDBRANCH  43  52
BRANCH  46  54
ATOM     54  C   UNL     1      -2.668  -6.690  -1.503  0.00  0.00    +0.000 C 
BRANCH  54  55
ATOM     55  O   UNL     1      -1.967  -7.899  -1.804  0.00  0.00    +0.000 OA
ATOM     56  H   UNL     1      -1.458  -8.135  -1.010  0.00  0.00    +0.000 HD
ENDBRANCH  54  55
ENDBRANCH  46  54
ENDBRANCH  41  47
ENDBRANCH   3  41
TORSDOF 17
ENDMDL
MODEL 3
REMARK VINA RESULT:      -6.9     14.521     19.767
REMARK  Name = 
REMARK  21 active torsions:
REMARK  status: ('A' for Active; 'I' for Inactive)
REMARK    1  A    between atoms: O_3  and  C_22
REMARK    2  A    between atoms: O_3  and  C_28
REMARK    3  A    between atoms: O_4  and  C_25
REMARK    4  A    between atoms: O_4  and  C_30
REMARK    5  A    between atoms: O_5  and  C_16
REMARK    6  A    between atoms: O_6  and  C_17
REMARK    7  A    between atoms: O_7  and  C_18
REMARK    8  A    between atoms: O_8  and  C_20
REMARK    9  A    between atoms: O_9  and  C_21
REMARK   10  A    between atoms: O_10  and  C_23
REMARK   11  A    between atoms: O_11  and  C_26
REMARK   12  A    between atoms: O_13  and  C_36
REMARK   13  A    between atoms: O_15  and  C_45
REMARK   14  A    between atoms: O_15  and  C_48
REMARK   15  A    between atoms: C_19  and  C_26
REMARK   16  A    between atoms: C_24  and  C_27
REMARK   17  A    between atoms: C_29  and  C_37
REMARK   18  A    between atoms: C_35  and  C_38
REMARK   19  A    between atoms: C_37  and  C_39
REMARK   20  A    between atoms: C_42  and  C_46
REMARK   21  A    between atoms: C_42  and  C_47
REMARK                            x       y       z     vdW  Elec       q    Type
REMARK                         _______ _______ _______ _____ _____    ______ ____
ROOT
ATOM      1  O   UNL     1     -22.041  -1.461  10.163  0.00  0.00    +0.000 OA
ATOM      2  O   UNL     1     -23.920  -2.872  13.474  0.00  0.00    +0.000 OA
ATOM      3  C   UNL     1     -22.119   1.610  12.151  0.00  0.00    +0.000 A 
ATOM      4  C   UNL     1     -21.871   0.726  11.085  0.00  0.00    +0.000 A 
ATOM      5  C   UNL     1     -23.096  -3.322  11.290  0.00  0.00    +0.000 A 
ATOM      6  C   UNL     1     -22.293  -0.613  11.215  0.00  0.00    +0.000 A 
ATOM      7  C   UNL     1     -22.932  -1.049  12.376  0.00  0.00    +0.000 A 
ATOM      8  C   UNL     1     -23.364  -2.450  12.462  0.00  0.00    +0.000 A 
ATOM      9  C   UNL     1     -22.722   1.162  13.330  0.00  0.00    +0.000 A 
ATOM     10  C   UNL     1     -22.491  -2.767  10.225  0.00  0.00    +0.000 A 
ATOM     11  C   UNL     1     -23.139  -0.160  13.434  0.00  0.00    +0.000 A 
ENDROOT
BRANCH  10  12
ATOM     12  C   UNL     1     -22.198  -3.531   9.003  0.00  0.00    +0.000 A 
ATOM     13  C   UNL     1     -23.232  -3.858   8.119  0.00  0.00    +0.000 A 
ATOM     14  C   UNL     1     -20.896  -3.953   8.706  0.00  0.00    +0.000 A 
ATOM     15  C   UNL     1     -22.962  -4.580   6.955  0.00  0.00    +0.000 A 
ATOM     16  C   UNL     1     -20.627  -4.674   7.537  0.00  0.00    +0.000 A 
ATOM     17  C   UNL     1     -21.660  -4.985   6.652  0.00  0.00    +0.000 A 
BRANCH  17  18
ATOM     18  O   UNL     1     -21.534  -5.678   5.481  0.00  0.00    +0.000 OA
ATOM     19  C   UNL     1     -22.657  -6.446   5.066  0.00  0.00    +0.000 C 
ENDBRANCH  17  18
ENDBRANCH  10  12
BRANCH  11  20
ATOM     20  O   UNL     1     -23.739  -0.520  14.610  0.00  0.00    +0.000 OA
ATOM     21  H   UNL     1     -23.068  -0.470  15.327  0.00  0.00    +0.000 HD
ENDBRANCH  11  20
BRANCH   4  22
ATOM     22  C   UNL     1     -21.204   1.197   9.807  0.00  0.00    +0.000 C 
BRANCH  22  23
ATOM     23  C   UNL     1     -22.155   1.936   8.902  0.00  0.00    +0.000 C 
ATOM     24  C   UNL     1     -22.845   1.468   7.842  0.00  0.00    +0.000 C 
ATOM     25  C   UNL     1     -22.810   0.055   7.329  0.00  0.00    +0.000 C 
ATOM     26  C   UNL     1     -23.755   2.382   7.064  0.00  0.00    +0.000 C 
ENDBRANCH  22  23
ENDBRANCH   4  22
BRANCH   5  27
ATOM     27  O   UNL     1     -23.543  -4.631  11.303  0.00  0.00    +0.000 OA
BRANCH  27  33
ATOM     28  O   UNL     1     -22.247  -6.521  10.700  0.00  0.00    +0.000 OA
ATOM     29  C   UNL     1     -24.150  -7.180  12.765  0.00  0.00    +0.000 C 
ATOM     30  C   UNL     1     -23.818  -8.156  11.629  0.00  0.00    +0.000 C 
ATOM     31  C   UNL     1     -22.982  -6.231  13.035  0.00  0.00    +0.000 C 
ATOM     32  C   UNL     1     -23.358  -7.374  10.392  0.00  0.00    +0.000 C 
ATOM     33  C   UNL     1     -22.531  -5.555  11.723  0.00  0.00    +0.000 C 
ATOM     34  C   UNL     1     -22.917  -8.310   9.272  0.00  0.00    +0.000 C 
BRANCH  29  35
ATOM     35  O   UNL     1     -24.449  -7.946  13.946  0.00  0.00    +0.000 OA
ATOM     36  H   UNL     1     -24.290  -8.879  13.688  0.00  0.00    +0.000 HD
ENDBRANCH  29  35
BRANCH  30  37
ATOM     37  O   UNL     1     -24.981  -8.942  11.342  0.00  0.00    +0.000 OA
ATOM     38  H   UNL     1     -25.040  -9.589  12.074  0.00  0.00    +0.000 HD
ENDBRANCH  30  37
BRANCH  31  39
ATOM     39  O   UNL     1     -21.926  -7.004  13.643  0.00  0.00    +0.000 OA
ATOM     40  H   UNL     1     -22.102  -7.027  14.602  0.00  0.00    +0.000 HD
ENDBRANCH  31  39
ENDBRANCH  27  33
ENDBRANCH   5  27
BRANCH   3  41
ATOM     41  O   UNL     1     -21.670   2.903  12.067  0.00  0.00    +0.000 OA
BRANCH  41  47
ATOM     42  O   UNL     1     -21.652   4.255  14.009  0.00  0.00    +0.000 OA
ATOM     43  C   UNL     1     -18.807   4.482  13.884  0.00  0.00    +0.000 C 
ATOM     44  C   UNL     1     -19.651   5.402  14.770  0.00  0.00    +0.000 C 
ATOM     45  C   UNL     1     -19.627   3.951  12.709  0.00  0.00    +0.000 C 
ATOM     46  C   UNL     1     -20.938   4.675  15.185  0.00  0.00    +0.000 C 
ATOM     47  C   UNL     1     -20.922   3.304  13.234  0.00  0.00    +0.000 C 
BRANCH  44  48
ATOM     48  O   UNL     1     -18.880   5.789  15.909  0.00  0.00    +0.000 OA
ATOM     49  H   UNL     1     -19.343   6.570  16.279  0.00  0.00    +0.000 HD
ENDBRANCH  44  48
BRANCH  45  50
ATOM     50  O   UNL     1     -18.817   3.018  11.974  0.00  0.00    +0.000 OA
ATOM     51  H   UNL     1     -17.889   3.252  12.176  0.00  0.00    +0.000 HD
ENDBRANCH  45  50
BRANCH  43  52
ATOM     52  O   UNL     1     -17.666   5.213  13.406  0.00  0.00    +0.000 OA
ATOM     53  H   UNL     1     -17.904   5.492  12.499  0.00  0.00    +0.000 HD
ENDBRANCH  43  52
BRANCH  46  54
ATOM     54  C   UNL     1     -21.852   5.592  16.007  0.00  0.00    +0.000 C 
BRANCH  54  55
ATOM     55  O   UNL     1     -21.418   5.612  17.369  0.00  0.00    +0.000 OA
ATOM     56  H   UNL     1     -21.974   6.261  17.833  0.00  0.00    +0.000 HD
ENDBRANCH  54  55
ENDBRANCH  46  54
ENDBRANCH  41  47
ENDBRANCH   3  41
TORSDOF 17
ENDMDL
MODEL 4
REMARK VINA RESULT:      -6.8      2.796      4.139
REMARK  Name = 
REMARK  21 active torsions:
REMARK  status: ('A' for Active; 'I' for Inactive)
REMARK    1  A    between atoms: O_3  and  C_22
REMARK    2  A    between atoms: O_3  and  C_28
REMARK    3  A    between atoms: O_4  and  C_25
REMARK    4  A    between atoms: O_4  and  C_30
REMARK    5  A    between atoms: O_5  and  C_16
REMARK    6  A    between atoms: O_6  and  C_17
REMARK    7  A    between atoms: O_7  and  C_18
REMARK    8  A    between atoms: O_8  and  C_20
REMARK    9  A    between atoms: O_9  and  C_21
REMARK   10  A    between atoms: O_10  and  C_23
REMARK   11  A    between atoms: O_11  and  C_26
REMARK   12  A    between atoms: O_13  and  C_36
REMARK   13  A    between atoms: O_15  and  C_45
REMARK   14  A    between atoms: O_15  and  C_48
REMARK   15  A    between atoms: C_19  and  C_26
REMARK   16  A    between atoms: C_24  and  C_27
REMARK   17  A    between atoms: C_29  and  C_37
REMARK   18  A    between atoms: C_35  and  C_38
REMARK   19  A    between atoms: C_37  and  C_39
REMARK   20  A    between atoms: C_42  and  C_46
REMARK   21  A    between atoms: C_42  and  C_47
REMARK                            x       y       z     vdW  Elec       q    Type
REMARK                         _______ _______ _______ _____ _____    ______ ____
ROOT
ATOM      1  O   UNL     1      -9.468   0.375  21.287  0.00  0.00    +0.000 OA
ATOM      2  O   UNL     1     -12.176   1.986  23.847  0.00  0.00    +0.000 OA
ATOM      3  C   UNL     1     -10.721  -2.697  22.830  0.00  0.00    +0.000 A 
ATOM      4  C   UNL     1      -9.977  -1.837  22.003  0.00  0.00    +0.000 A 
ATOM      5  C   UNL     1     -10.505   2.359  22.197  0.00  0.00    +0.000 A 
ATOM      6  C   UNL     1     -10.204  -0.450  22.105  0.00  0.00    +0.000 A 
ATOM      7  C   UNL     1     -11.149   0.054  22.998  0.00  0.00    +0.000 A 
ATOM      8  C   UNL     1     -11.344   1.507  23.079  0.00  0.00    +0.000 A 
ATOM      9  C   UNL     1     -11.697  -2.195  23.696  0.00  0.00    +0.000 A 
ATOM     10  C   UNL     1      -9.616   1.744  21.397  0.00  0.00    +0.000 A 
ATOM     11  C   UNL     1     -11.898  -0.822  23.788  0.00  0.00    +0.000 A 
ENDROOT
BRANCH  10  12
ATOM     12  C   UNL     1      -8.720   2.490  20.501  0.00  0.00    +0.000 A 
ATOM     13  C   UNL     1      -9.181   2.917  19.250  0.00  0.00    +0.000 A 
ATOM     14  C   UNL     1      -7.400   2.777  20.869  0.00  0.00    +0.000 A 
ATOM     15  C   UNL     1      -8.338   3.630  18.395  0.00  0.00    +0.000 A 
ATOM     16  C   UNL     1      -6.558   3.494  20.011  0.00  0.00    +0.000 A 
ATOM     17  C   UNL     1      -7.026   3.929  18.771  0.00  0.00    +0.000 A 
BRANCH  17  18
ATOM     18  O   UNL     1      -6.313   4.636  17.845  0.00  0.00    +0.000 OA
ATOM     19  C   UNL     1      -5.629   3.884  16.850  0.00  0.00    +0.000 C 
ENDBRANCH  17  18
ENDBRANCH  10  12
BRANCH  11  20
ATOM     20  O   UNL     1     -12.857  -0.404  24.671  0.00  0.00    +0.000 OA
ATOM     21  H   UNL     1     -13.735  -0.494  24.238  0.00  0.00    +0.000 HD
ENDBRANCH  11  20
BRANCH   4  22
ATOM     22  C   UNL     1      -8.926  -2.372  21.049  0.00  0.00    +0.000 C 
BRANCH  22  23
ATOM     23  C   UNL     1      -9.505  -2.748  19.710  0.00  0.00    +0.000 C 
ATOM     24  C   UNL     1      -9.469  -3.939  19.080  0.00  0.00    +0.000 C 
ATOM     25  C   UNL     1      -8.821  -5.189  19.609  0.00  0.00    +0.000 C 
ATOM     26  C   UNL     1     -10.118  -4.107  17.732  0.00  0.00    +0.000 C 
ENDBRANCH  22  23
ENDBRANCH   4  22
BRANCH   5  27
ATOM     27  O   UNL     1     -10.611   3.736  22.286  0.00  0.00    +0.000 OA
BRANCH  27  33
ATOM     28  O   UNL     1     -10.431   4.608  24.482  0.00  0.00    +0.000 OA
ATOM     29  C   UNL     1     -10.046   6.674  22.507  0.00  0.00    +0.000 C 
ATOM     30  C   UNL     1     -10.807   6.935  23.813  0.00  0.00    +0.000 C 
ATOM     31  C   UNL     1      -9.037   5.538  22.674  0.00  0.00    +0.000 C 
ATOM     32  C   UNL     1     -11.427   5.628  24.322  0.00  0.00    +0.000 C 
ATOM     33  C   UNL     1      -9.730   4.294  23.269  0.00  0.00    +0.000 C 
ATOM     34  C   UNL     1     -12.105   5.820  25.675  0.00  0.00    +0.000 C 
BRANCH  29  35
ATOM     35  O   UNL     1      -9.368   7.887  22.129  0.00  0.00    +0.000 OA
ATOM     36  H   UNL     1     -10.066   8.452  21.735  0.00  0.00    +0.000 HD
ENDBRANCH  29  35
BRANCH  30  37
ATOM     37  O   UNL     1     -11.812   7.926  23.572  0.00  0.00    +0.000 OA
ATOM     38  H   UNL     1     -11.870   8.441  24.403  0.00  0.00    +0.000 HD
ENDBRANCH  30  37
BRANCH  31  39
ATOM     39  O   UNL     1      -7.970   6.024  23.515  0.00  0.00    +0.000 OA
ATOM     40  H   UNL     1      -7.177   5.495  23.309  0.00  0.00    +0.000 HD
ENDBRANCH  31  39
ENDBRANCH  27  33
ENDBRANCH   5  27
BRANCH   3  41
ATOM     41  O   UNL     1     -10.554  -4.053  22.709  0.00  0.00    +0.000 OA
BRANCH  41  47
ATOM     42  O   UNL     1      -9.583  -5.312  24.462  0.00  0.00    +0.000 OA
ATOM     43  C   UNL     1     -12.031  -6.727  24.867  0.00  0.00    +0.000 C 
ATOM     44  C   UNL     1     -10.710  -7.213  25.470  0.00  0.00    +0.000 C 
ATOM     45  C   UNL     1     -11.785  -5.881  23.620  0.00  0.00    +0.000 C 
ATOM     46  C   UNL     1      -9.782  -6.013  25.702  0.00  0.00    +0.000 C 
ATOM     47  C   UNL     1     -10.791  -4.752  23.949  0.00  0.00    +0.000 C 
BRANCH  44  48
ATOM     48  O   UNL     1     -10.980  -7.908  26.689  0.00  0.00    +0.000 OA
ATOM     49  H   UNL     1     -10.138  -8.351  26.923  0.00  0.00    +0.000 HD
ENDBRANCH  44  48
BRANCH  45  50
ATOM     50  O   UNL     1     -13.048  -5.371  23.159  0.00  0.00    +0.000 OA
ATOM     51  H   UNL     1     -13.613  -5.298  23.954  0.00  0.00    +0.000 HD
ENDBRANCH  45  50
BRANCH  43  52
ATOM     52  O   UNL     1     -12.843  -7.868  24.544  0.00  0.00    +0.000 OA
ATOM     53  H   UNL     1     -13.118  -7.730  23.615  0.00  0.00    +0.000 HD
ENDBRANCH  43  52
BRANCH  46  54
ATOM     54  C   UNL     1      -8.413  -6.465  26.229  0.00  0.00    +0.000 C 
BRANCH  54  55
ATOM     55  O   UNL     1      -8.096  -7.756  25.704  0.00  0.00    +0.000 OA
ATOM     56  H   UNL     1      -8.257  -8.398  26.416  0.00  0.00    +0.000 HD
ENDBRANCH  54  55
ENDBRANCH  46  54
ENDBRANCH  41  47
ENDBRANCH   3  41
TORSDOF 17
ENDMDL
MODEL 5
REMARK VINA RESULT:      -6.8     15.216     20.698
REMARK  Name = 
REMARK  21 active torsions:
REMARK  status: ('A' for Active; 'I' for Inactive)
REMARK    1  A    between atoms: O_3  and  C_22
REMARK    2  A    between atoms: O_3  and  C_28
REMARK    3  A    between atoms: O_4  and  C_25
REMARK    4  A    between atoms: O_4  and  C_30
REMARK    5  A    between atoms: O_5  and  C_16
REMARK    6  A    between atoms: O_6  and  C_17
REMARK    7  A    between atoms: O_7  and  C_18
REMARK    8  A    between atoms: O_8  and  C_20
REMARK    9  A    between atoms: O_9  and  C_21
REMARK   10  A    between atoms: O_10  and  C_23
REMARK   11  A    between atoms: O_11  and  C_26
REMARK   12  A    between atoms: O_13  and  C_36
REMARK   13  A    between atoms: O_15  and  C_45
REMARK   14  A    between atoms: O_15  and  C_48
REMARK   15  A    between atoms: C_19  and  C_26
REMARK   16  A    between atoms: C_24  and  C_27
REMARK   17  A    between atoms: C_29  and  C_37
REMARK   18  A    between atoms: C_35  and  C_38
REMARK   19  A    between atoms: C_37  and  C_39
REMARK   20  A    between atoms: C_42  and  C_46
REMARK   21  A    between atoms: C_42  and  C_47
REMARK                            x       y       z     vdW  Elec       q    Type
REMARK                         _______ _______ _______ _____ _____    ______ ____
ROOT
ATOM      1  O   UNL     1     -22.235  -1.551   9.585  0.00  0.00    +0.000 OA
ATOM      2  O   UNL     1     -22.904   0.413   6.095  0.00  0.00    +0.000 OA
ATOM      3  C   UNL     1     -22.369   1.878  10.854  0.00  0.00    +0.000 A 
ATOM      4  C   UNL     1     -22.246   0.477  10.830  0.00  0.00    +0.000 A 
ATOM      5  C   UNL     1     -22.521  -1.664   7.187  0.00  0.00    +0.000 A 
ATOM      6  C   UNL     1     -22.357  -0.182   9.588  0.00  0.00    +0.000 A 
ATOM      7  C   UNL     1     -22.591   0.539   8.417  0.00  0.00    +0.000 A 
ATOM      8  C   UNL     1     -22.688  -0.189   7.145  0.00  0.00    +0.000 A 
ATOM      9  C   UNL     1     -22.645   2.596   9.686  0.00  0.00    +0.000 A 
ATOM     10  C   UNL     1     -22.278  -2.231   8.383  0.00  0.00    +0.000 A 
ATOM     11  C   UNL     1     -22.740   1.927   8.471  0.00  0.00    +0.000 A 
ENDROOT
BRANCH  10  12
ATOM     12  C   UNL     1     -22.074  -3.679   8.537  0.00  0.00    +0.000 A 
ATOM     13  C   UNL     1     -23.051  -4.458   9.166  0.00  0.00    +0.000 A 
ATOM     14  C   UNL     1     -20.907  -4.300   8.074  0.00  0.00    +0.000 A 
ATOM     15  C   UNL     1     -22.867  -5.835   9.313  0.00  0.00    +0.000 A 
ATOM     16  C   UNL     1     -20.726  -5.681   8.219  0.00  0.00    +0.000 A 
ATOM     17  C   UNL     1     -21.710  -6.455   8.835  0.00  0.00    +0.000 A 
BRANCH  17  18
ATOM     18  O   UNL     1     -21.660  -7.806   9.038  0.00  0.00    +0.000 OA
ATOM     19  C   UNL     1     -22.735  -8.574   8.512  0.00  0.00    +0.000 C 
ENDBRANCH  17  18
ENDBRANCH  10  12
BRANCH  11  20
ATOM     20  O   UNL     1     -22.993   2.698   7.368  0.00  0.00    +0.000 OA
ATOM     21  H   UNL     1     -22.795   2.165   6.566  0.00  0.00    +0.000 HD
ENDBRANCH  11  20
BRANCH   4  22
ATOM     22  C   UNL     1     -21.963  -0.313  12.092  0.00  0.00    +0.000 C 
BRANCH  22  23
ATOM     23  C   UNL     1     -23.211  -0.588  12.890  0.00  0.00    +0.000 C 
ATOM     24  C   UNL     1     -23.840  -1.762  13.092  0.00  0.00    +0.000 C 
ATOM     25  C   UNL     1     -23.406  -3.094  12.546  0.00  0.00    +0.000 C 
ATOM     26  C   UNL     1     -25.089  -1.821  13.934  0.00  0.00    +0.000 C 
ENDBRANCH  22  23
ENDBRANCH   4  22
BRANCH   5  27
ATOM     27  O   UNL     1     -22.541  -2.382   6.005  0.00  0.00    +0.000 OA
BRANCH  27  33
ATOM     28  O   UNL     1     -23.869  -4.331   5.782  0.00  0.00    +0.000 OA
ATOM     29  C   UNL     1     -23.408  -3.088   3.221  0.00  0.00    +0.000 C 
ATOM     30  C   UNL     1     -23.427  -4.613   3.388  0.00  0.00    +0.000 C 
ATOM     31  C   UNL     1     -24.257  -2.405   4.293  0.00  0.00    +0.000 C 
ATOM     32  C   UNL     1     -23.025  -4.981   4.822  0.00  0.00    +0.000 C 
ATOM     33  C   UNL     1     -23.841  -2.899   5.695  0.00  0.00    +0.000 C 
ATOM     34  C   UNL     1     -23.132  -6.483   5.063  0.00  0.00    +0.000 C 
BRANCH  29  35
ATOM     35  O   UNL     1     -23.915  -2.771   1.911  0.00  0.00    +0.000 OA
ATOM     36  H   UNL     1     -24.185  -1.830   1.968  0.00  0.00    +0.000 HD
ENDBRANCH  29  35
BRANCH  30  37
ATOM     37  O   UNL     1     -22.531  -5.193   2.433  0.00  0.00    +0.000 OA
ATOM     38  H   UNL     1     -21.753  -4.599   2.417  0.00  0.00    +0.000 HD
ENDBRANCH  30  37
BRANCH  31  39
ATOM     39  O   UNL     1     -25.641  -2.691   4.000  0.00  0.00    +0.000 OA
ATOM     40  H   UNL     1     -26.145  -2.540   4.821  0.00  0.00    +0.000 HD
ENDBRANCH  31  39
ENDBRANCH  27  33
ENDBRANCH   5  27
BRANCH   3  41
ATOM     41  O   UNL     1     -22.318   2.534  12.057  0.00  0.00    +0.000 OA
BRANCH  41  47
ATOM     42  O   UNL     1     -20.004   2.444  12.546  0.00  0.00    +0.000 OA
ATOM     43  C   UNL     1     -20.092   5.064  13.680  0.00  0.00    +0.000 C 
ATOM     44  C   UNL     1     -18.900   4.129  13.903  0.00  0.00    +0.000 C 
ATOM     45  C   UNL     1     -21.363   4.270  13.384  0.00  0.00    +0.000 C 
ATOM     46  C   UNL     1     -18.773   3.169  12.712  0.00  0.00    +0.000 C 
ATOM     47  C   UNL     1     -21.103   3.295  12.220  0.00  0.00    +0.000 C 
BRANCH  44  48
ATOM     48  O   UNL     1     -17.717   4.912  14.071  0.00  0.00    +0.000 OA
ATOM     49  H   UNL     1     -18.031   5.786  14.383  0.00  0.00    +0.000 HD
ENDBRANCH  44  48
BRANCH  45  50
ATOM     50  O   UNL     1     -22.419   5.197  13.084  0.00  0.00    +0.000 OA
ATOM     51  H   UNL     1     -22.321   5.419  12.137  0.00  0.00    +0.000 HD
ENDBRANCH  45  50
BRANCH  43  52
ATOM     52  O   UNL     1     -20.273   5.876  14.852  0.00  0.00    +0.000 OA
ATOM     53  H   UNL     1     -20.883   6.589  14.576  0.00  0.00    +0.000 HD
ENDBRANCH  43  52
BRANCH  46  54
ATOM     54  C   UNL     1     -17.640   2.158  12.932  0.00  0.00    +0.000 C 
BRANCH  54  55
ATOM     55  O   UNL     1     -18.069   0.856  12.527  0.00  0.00    +0.000 OA
ATOM     56  H   UNL     1     -18.796   0.982  11.895  0.00  0.00    +0.000 HD
ENDBRANCH  54  55
ENDBRANCH  46  54
ENDBRANCH  41  47
ENDBRANCH   3  41
TORSDOF 17
ENDMDL
MODEL 6
REMARK VINA RESULT:      -6.7     15.617     17.254
REMARK  Name = 
REMARK  21 active torsions:
REMARK  status: ('A' for Active; 'I' for Inactive)
REMARK    1  A    between atoms: O_3  and  C_22
REMARK    2  A    between atoms: O_3  and  C_28
REMARK    3  A    between atoms: O_4  and  C_25
REMARK    4  A    between atoms: O_4  and  C_30
REMARK    5  A    between atoms: O_5  and  C_16
REMARK    6  A    between atoms: O_6  and  C_17
REMARK    7  A    between atoms: O_7  and  C_18
REMARK    8  A    between atoms: O_8  and  C_20
REMARK    9  A    between atoms: O_9  and  C_21
REMARK   10  A    between atoms: O_10  and  C_23
REMARK   11  A    between atoms: O_11  and  C_26
REMARK   12  A    between atoms: O_13  and  C_36
REMARK   13  A    between atoms: O_15  and  C_45
REMARK   14  A    between atoms: O_15  and  C_48
REMARK   15  A    between atoms: C_19  and  C_26
REMARK   16  A    between atoms: C_24  and  C_27
REMARK   17  A    between atoms: C_29  and  C_37
REMARK   18  A    between atoms: C_35  and  C_38
REMARK   19  A    between atoms: C_37  and  C_39
REMARK   20  A    between atoms: C_42  and  C_46
REMARK   21  A    between atoms: C_42  and  C_47
REMARK                            x       y       z     vdW  Elec       q    Type
REMARK                         _______ _______ _______ _____ _____    ______ ____
ROOT
ATOM      1  O   UNL     1       6.024  -7.666  13.992  0.00  0.00    +0.000 OA
ATOM      2  O   UNL     1       5.368  -7.432  17.992  0.00  0.00    +0.000 OA
ATOM      3  C   UNL     1       5.397 -11.202  14.694  0.00  0.00    +0.000 A 
ATOM      4  C   UNL     1       5.687 -10.022  13.986  0.00  0.00    +0.000 A 
ATOM      5  C   UNL     1       5.920  -6.293  15.979  0.00  0.00    +0.000 A 
ATOM      6  C   UNL     1       5.741  -8.809  14.701  0.00  0.00    +0.000 A 
ATOM      7  C   UNL     1       5.503  -8.781  16.076  0.00  0.00    +0.000 A 
ATOM      8  C   UNL     1       5.582  -7.496  16.782  0.00  0.00    +0.000 A 
ATOM      9  C   UNL     1       5.119 -11.168  16.064  0.00  0.00    +0.000 A 
ATOM     10  C   UNL     1       6.146  -6.465  14.664  0.00  0.00    +0.000 A 
ATOM     11  C   UNL     1       5.187  -9.962  16.753  0.00  0.00    +0.000 A 
ENDROOT
BRANCH  10  12
ATOM     12  C   UNL     1       6.509  -5.348  13.779  0.00  0.00    +0.000 A 
ATOM     13  C   UNL     1       5.641  -4.960  12.752  0.00  0.00    +0.000 A 
ATOM     14  C   UNL     1       7.722  -4.666  13.933  0.00  0.00    +0.000 A 
ATOM     15  C   UNL     1       5.977  -3.898  11.910  0.00  0.00    +0.000 A 
ATOM     16  C   UNL     1       8.055  -3.600  13.090  0.00  0.00    +0.000 A 
ATOM     17  C   UNL     1       7.180  -3.208  12.077  0.00  0.00    +0.000 A 
BRANCH  17  18
ATOM     18  O   UNL     1       7.381  -2.187  11.190  0.00  0.00    +0.000 OA
ATOM     19  C   UNL     1       6.588  -2.196  10.010  0.00  0.00    +0.000 C 
ENDBRANCH  17  18
ENDBRANCH  10  12
BRANCH  11  20
ATOM     20  O   UNL     1       4.921 -10.010  18.095  0.00  0.00    +0.000 OA
ATOM     21  H   UNL     1       4.604  -9.124  18.379  0.00  0.00    +0.000 HD
ENDBRANCH  11  20
BRANCH   4  22
ATOM     22  C   UNL     1       5.975 -10.045  12.497  0.00  0.00    +0.000 C 
BRANCH  22  23
ATOM     23  C   UNL     1       4.733 -10.277  11.676  0.00  0.00    +0.000 C 
ATOM     24  C   UNL     1       3.690  -9.448  11.473  0.00  0.00    +0.000 C 
ATOM     25  C   UNL     1       3.548  -8.064  12.042  0.00  0.00    +0.000 C 
ATOM     26  C   UNL     1       2.536  -9.878  10.605  0.00  0.00    +0.000 C 
ENDBRANCH  22  23
ENDBRANCH   4  22
BRANCH   5  27
ATOM     27  O   UNL     1       6.067  -5.074  16.614  0.00  0.00    +0.000 OA
BRANCH  27  33
ATOM     28  O   UNL     1       5.119  -3.067  15.785  0.00  0.00    +0.000 OA
ATOM     29  C   UNL     1       5.364  -2.991  18.657  0.00  0.00    +0.000 C 
ATOM     30  C   UNL     1       5.623  -1.753  17.790  0.00  0.00    +0.000 C 
ATOM     31  C   UNL     1       4.397  -3.954  17.968  0.00  0.00    +0.000 C 
ATOM     32  C   UNL     1       6.075  -2.186  16.390  0.00  0.00    +0.000 C 
ATOM     33  C   UNL     1       4.885  -4.266  16.538  0.00  0.00    +0.000 C 
ATOM     34  C   UNL     1       6.242  -0.987  15.462  0.00  0.00    +0.000 C 
BRANCH  29  35
ATOM     35  O   UNL     1       4.818  -2.556  19.916  0.00  0.00    +0.000 OA
ATOM     36  H   UNL     1       4.032  -2.020  19.677  0.00  0.00    +0.000 HD
ENDBRANCH  29  35
BRANCH  30  37
ATOM     37  O   UNL     1       6.618  -0.943  18.428  0.00  0.00    +0.000 OA
ATOM     38  H   UNL     1       7.464  -1.197  18.007  0.00  0.00    +0.000 HD
ENDBRANCH  30  37
BRANCH  31  39
ATOM     39  O   UNL     1       3.091  -3.340  17.979  0.00  0.00    +0.000 OA
ATOM     40  H   UNL     1       3.153  -2.541  18.534  0.00  0.00    +0.000 HD
ENDBRANCH  31  39
ENDBRANCH  27  33
ENDBRANCH   5  27
BRANCH   3  41
ATOM     41  O   UNL     1       5.287 -12.385  14.009  0.00  0.00    +0.000 OA
BRANCH  41  47
ATOM     42  O   UNL     1       4.935 -14.326  15.316  0.00  0.00    +0.000 OA
ATOM     43  C   UNL     1       2.498 -14.876  13.931  0.00  0.00    +0.000 C 
ATOM     44  C   UNL     1       3.180 -15.927  14.810  0.00  0.00    +0.000 C 
ATOM     45  C   UNL     1       3.510 -13.858  13.409  0.00  0.00    +0.000 C 
ATOM     46  C   UNL     1       3.987 -15.227  15.913  0.00  0.00    +0.000 C 
ATOM     47  C   UNL     1       4.307 -13.270  14.590  0.00  0.00    +0.000 C 
BRANCH  44  48
ATOM     48  O   UNL     1       2.185 -16.793  15.361  0.00  0.00    +0.000 OA
ATOM     49  H   UNL     1       1.560 -16.200  15.828  0.00  0.00    +0.000 HD
ENDBRANCH  44  48
BRANCH  45  50
ATOM     50  O   UNL     1       2.801 -12.844  12.679  0.00  0.00    +0.000 OA
ATOM     51  H   UNL     1       3.292 -12.725  11.841  0.00  0.00    +0.000 HD
ENDBRANCH  45  50
BRANCH  43  52
ATOM     52  O   UNL     1       1.845 -15.537  12.835  0.00  0.00    +0.000 OA
ATOM     53  H   UNL     1       2.553 -16.038  12.382  0.00  0.00    +0.000 HD
ENDBRANCH  43  52
BRANCH  46  54
ATOM     54  C   UNL     1       4.754 -16.244  16.768  0.00  0.00    +0.000 C 
BRANCH  54  55
ATOM     55  O   UNL     1       4.950 -17.450  16.026  0.00  0.00    +0.000 OA
ATOM     56  H   UNL     1       4.546 -17.312  15.153  0.00  0.00    +0.000 HD
ENDBRANCH  54  55
ENDBRANCH  46  54
ENDBRANCH  41  47
ENDBRANCH   3  41
TORSDOF 17
ENDMDL
MODEL 7
REMARK VINA RESULT:      -6.6     17.408     20.742
REMARK  Name = 
REMARK  21 active torsions:
REMARK  status: ('A' for Active; 'I' for Inactive)
REMARK    1  A    between atoms: O_3  and  C_22
REMARK    2  A    between atoms: O_3  and  C_28
REMARK    3  A    between atoms: O_4  and  C_25
REMARK    4  A    between atoms: O_4  and  C_30
REMARK    5  A    between atoms: O_5  and  C_16
REMARK    6  A    between atoms: O_6  and  C_17
REMARK    7  A    between atoms: O_7  and  C_18
REMARK    8  A    between atoms: O_8  and  C_20
REMARK    9  A    between atoms: O_9  and  C_21
REMARK   10  A    between atoms: O_10  and  C_23
REMARK   11  A    between atoms: O_11  and  C_26
REMARK   12  A    between atoms: O_13  and  C_36
REMARK   13  A    between atoms: O_15  and  C_45
REMARK   14  A    between atoms: O_15  and  C_48
REMARK   15  A    between atoms: C_19  and  C_26
REMARK   16  A    between atoms: C_24  and  C_27
REMARK   17  A    between atoms: C_29  and  C_37
REMARK   18  A    between atoms: C_35  and  C_38
REMARK   19  A    between atoms: C_37  and  C_39
REMARK   20  A    between atoms: C_42  and  C_46
REMARK   21  A    between atoms: C_42  and  C_47
REMARK                            x       y       z     vdW  Elec       q    Type
REMARK                         _______ _______ _______ _____ _____    ______ ____
ROOT
ATOM      1  O   UNL     1     -12.903 -17.708  13.663  0.00  0.00    +0.000 OA
ATOM      2  O   UNL     1     -16.585 -16.185  12.886  0.00  0.00    +0.000 OA
ATOM      3  C   UNL     1     -14.452 -18.209  16.940  0.00  0.00    +0.000 A 
ATOM      4  C   UNL     1     -13.492 -18.218  15.912  0.00  0.00    +0.000 A 
ATOM      5  C   UNL     1     -14.394 -16.646  12.085  0.00  0.00    +0.000 A 
ATOM      6  C   UNL     1     -13.853 -17.690  14.655  0.00  0.00    +0.000 A 
ATOM      7  C   UNL     1     -15.134 -17.182  14.438  0.00  0.00    +0.000 A 
ATOM      8  C   UNL     1     -15.462 -16.632  13.116  0.00  0.00    +0.000 A 
ATOM      9  C   UNL     1     -15.748 -17.737  16.709  0.00  0.00    +0.000 A 
ATOM     10  C   UNL     1     -13.196 -17.147  12.435  0.00  0.00    +0.000 A 
ATOM     11  C   UNL     1     -16.080 -17.212  15.465  0.00  0.00    +0.000 A 
ENDROOT
BRANCH  10  12
ATOM     12  C   UNL     1     -12.061 -17.190  11.501  0.00  0.00    +0.000 A 
ATOM     13  C   UNL     1     -11.690 -18.402  10.908  0.00  0.00    +0.000 A 
ATOM     14  C   UNL     1     -11.328 -16.036  11.197  0.00  0.00    +0.000 A 
ATOM     15  C   UNL     1     -10.616 -18.450  10.016  0.00  0.00    +0.000 A 
ATOM     16  C   UNL     1     -10.253 -16.086  10.301  0.00  0.00    +0.000 A 
ATOM     17  C   UNL     1      -9.896 -17.294   9.702  0.00  0.00    +0.000 A 
BRANCH  17  18
ATOM     18  O   UNL     1      -8.876 -17.480   8.812  0.00  0.00    +0.000 OA
ATOM     19  C   UNL     1      -8.891 -18.688   8.062  0.00  0.00    +0.000 C 
ENDBRANCH  17  18
ENDBRANCH  10  12
BRANCH  11  20
ATOM     20  O   UNL     1     -17.361 -16.752  15.321  0.00  0.00    +0.000 OA
ATOM     21  H   UNL     1     -17.944 -17.518  15.124  0.00  0.00    +0.000 HD
ENDBRANCH  11  20
BRANCH   4  22
ATOM     22  C   UNL     1     -12.088 -18.741  16.146  0.00  0.00    +0.000 C 
BRANCH  22  23
ATOM     23  C   UNL     1     -12.062 -20.229  16.380  0.00  0.00    +0.000 C 
ATOM     24  C   UNL     1     -12.201 -21.226  15.484  0.00  0.00    +0.000 C 
ATOM     25  C   UNL     1     -12.412 -21.051  14.006  0.00  0.00    +0.000 C 
ATOM     26  C   UNL     1     -12.142 -22.664  15.930  0.00  0.00    +0.000 C 
ENDBRANCH  22  23
ENDBRANCH   4  22
BRANCH   5  27
ATOM     27  O   UNL     1     -14.640 -16.080  10.847  0.00  0.00    +0.000 OA
BRANCH  27  33
ATOM     28  O   UNL     1     -14.311 -17.544   9.013  0.00  0.00    +0.000 OA
ATOM     29  C   UNL     1     -15.849 -15.232   8.235  0.00  0.00    +0.000 C 
ATOM     30  C   UNL     1     -14.798 -15.855   7.307  0.00  0.00    +0.000 C 
ATOM     31  C   UNL     1     -16.413 -16.271   9.205  0.00  0.00    +0.000 C 
ATOM     32  C   UNL     1     -13.727 -16.567   8.142  0.00  0.00    +0.000 C 
ATOM     33  C   UNL     1     -15.263 -16.995   9.936  0.00  0.00    +0.000 C 
ATOM     34  C   UNL     1     -12.718 -17.290   7.255  0.00  0.00    +0.000 C 
BRANCH  29  35
ATOM     35  O   UNL     1     -16.906 -14.689   7.422  0.00  0.00    +0.000 OA
ATOM     36  H   UNL     1     -16.462 -14.393   6.599  0.00  0.00    +0.000 HD
ENDBRANCH  29  35
BRANCH  30  37
ATOM     37  O   UNL     1     -14.224 -14.820   6.500  0.00  0.00    +0.000 OA
ATOM     38  H   UNL     1     -13.512 -14.432   7.049  0.00  0.00    +0.000 HD
ENDBRANCH  30  37
BRANCH  31  39
ATOM     39  O   UNL     1     -17.233 -17.180   8.440  0.00  0.00    +0.000 OA
ATOM     40  H   UNL     1     -17.702 -17.749   9.078  0.00  0.00    +0.000 HD
ENDBRANCH  31  39
ENDBRANCH  27  33
ENDBRANCH   5  27
BRANCH   3  41
ATOM     41  O   UNL     1     -14.138 -18.766  18.154  0.00  0.00    +0.000 OA
BRANCH  41  47
ATOM     42  O   UNL     1     -12.587 -17.736  19.614  0.00  0.00    +0.000 OA
ATOM     43  C   UNL     1     -14.647 -17.241  21.530  0.00  0.00    +0.000 C 
ATOM     44  C   UNL     1     -13.164 -17.123  21.893  0.00  0.00    +0.000 C 
ATOM     45  C   UNL     1     -14.850 -18.197  20.357  0.00  0.00    +0.000 C 
ATOM     46  C   UNL     1     -12.359 -16.753  20.639  0.00  0.00    +0.000 C 
ATOM     47  C   UNL     1     -13.947 -17.773  19.183  0.00  0.00    +0.000 C 
BRANCH  44  48
ATOM     48  O   UNL     1     -13.011 -16.142  22.920  0.00  0.00    +0.000 OA
ATOM     49  H   UNL     1     -12.069 -15.873  22.879  0.00  0.00    +0.000 HD
ENDBRANCH  44  48
BRANCH  45  50
ATOM     50  O   UNL     1     -16.241 -18.189  19.998  0.00  0.00    +0.000 OA
ATOM     51  H   UNL     1     -16.731 -18.393  20.820  0.00  0.00    +0.000 HD
ENDBRANCH  45  50
BRANCH  43  52
ATOM     52  O   UNL     1     -15.373 -17.702  22.681  0.00  0.00    +0.000 OA
ATOM     53  H   UNL     1     -16.125 -17.083  22.773  0.00  0.00    +0.000 HD
ENDBRANCH  43  52
BRANCH  46  54
ATOM     54  C   UNL     1     -10.855 -16.706  20.941  0.00  0.00    +0.000 C 
BRANCH  54  55
ATOM     55  O   UNL     1     -10.534 -15.483  21.608  0.00  0.00    +0.000 OA
ATOM     56  H   UNL     1     -10.373 -15.705  22.540  0.00  0.00    +0.000 HD
ENDBRANCH  54  55
ENDBRANCH  46  54
ENDBRANCH  41  47
ENDBRANCH   3  41
TORSDOF 17
ENDMDL
MODEL 8
REMARK VINA RESULT:      -6.6     15.687     21.810
REMARK  Name = 
REMARK  21 active torsions:
REMARK  status: ('A' for Active; 'I' for Inactive)
REMARK    1  A    between atoms: O_3  and  C_22
REMARK    2  A    between atoms: O_3  and  C_28
REMARK    3  A    between atoms: O_4  and  C_25
REMARK    4  A    between atoms: O_4  and  C_30
REMARK    5  A    between atoms: O_5  and  C_16
REMARK    6  A    between atoms: O_6  and  C_17
REMARK    7  A    between atoms: O_7  and  C_18
REMARK    8  A    between atoms: O_8  and  C_20
REMARK    9  A    between atoms: O_9  and  C_21
REMARK   10  A    between atoms: O_10  and  C_23
REMARK   11  A    between atoms: O_11  and  C_26
REMARK   12  A    between atoms: O_13  and  C_36
REMARK   13  A    between atoms: O_15  and  C_45
REMARK   14  A    between atoms: O_15  and  C_48
REMARK   15  A    between atoms: C_19  and  C_26
REMARK   16  A    between atoms: C_24  and  C_27
REMARK   17  A    between atoms: C_29  and  C_37
REMARK   18  A    between atoms: C_35  and  C_38
REMARK   19  A    between atoms: C_37  and  C_39
REMARK   20  A    between atoms: C_42  and  C_46
REMARK   21  A    between atoms: C_42  and  C_47
REMARK                            x       y       z     vdW  Elec       q    Type
REMARK                         _______ _______ _______ _____ _____    ______ ____
ROOT
ATOM      1  O   UNL     1     -22.513  -1.865  10.341  0.00  0.00    +0.000 OA
ATOM      2  O   UNL     1     -23.256  -2.642   6.427  0.00  0.00    +0.000 OA
ATOM      3  C   UNL     1     -22.597   1.563   9.065  0.00  0.00    +0.000 A 
ATOM      4  C   UNL     1     -22.482   0.484   9.960  0.00  0.00    +0.000 A 
ATOM      5  C   UNL     1     -22.857  -3.510   8.604  0.00  0.00    +0.000 A 
ATOM      6  C   UNL     1     -22.627  -0.823   9.452  0.00  0.00    +0.000 A 
ATOM      7  C   UNL     1     -22.886  -1.037   8.098  0.00  0.00    +0.000 A 
ATOM      8  C   UNL     1     -23.017  -2.417   7.612  0.00  0.00    +0.000 A 
ATOM      9  C   UNL     1     -22.897   1.350   7.716  0.00  0.00    +0.000 A 
ATOM     10  C   UNL     1     -22.588  -3.164   9.875  0.00  0.00    +0.000 A 
ATOM     11  C   UNL     1     -23.026   0.052   7.234  0.00  0.00    +0.000 A 
ENDROOT
BRANCH  10  12
ATOM     12  C   UNL     1     -22.388  -4.164  10.935  0.00  0.00    +0.000 A 
ATOM     13  C   UNL     1     -23.358  -4.331  11.930  0.00  0.00    +0.000 A 
ATOM     14  C   UNL     1     -21.232  -4.954  10.978  0.00  0.00    +0.000 A 
ATOM     15  C   UNL     1     -23.178  -5.281  12.937  0.00  0.00    +0.000 A 
ATOM     16  C   UNL     1     -21.056  -5.908  11.986  0.00  0.00    +0.000 A 
ATOM     17  C   UNL     1     -22.032  -6.080  12.968  0.00  0.00    +0.000 A 
BRANCH  17  18
ATOM     18  O   UNL     1     -21.985  -6.973  14.002  0.00  0.00    +0.000 OA
ATOM     19  C   UNL     1     -23.122  -7.028  14.854  0.00  0.00    +0.000 C 
ENDBRANCH  17  18
ENDBRANCH  10  12
BRANCH  11  20
ATOM     20  O   UNL     1     -23.301  -0.078   5.900  0.00  0.00    +0.000 OA
ATOM     21  H   UNL     1     -22.465   0.049   5.398  0.00  0.00    +0.000 HD
ENDBRANCH  11  20
BRANCH   4  22
ATOM     22  C   UNL     1     -22.172   0.703  11.428  0.00  0.00    +0.000 C 
BRANCH  22  23
ATOM     23  C   UNL     1     -20.699   0.893  11.681  0.00  0.00    +0.000 C 
ATOM     24  C   UNL     1     -20.057   1.983  12.148  0.00  0.00    +0.000 C 
ATOM     25  C   UNL     1     -20.707   3.283  12.534  0.00  0.00    +0.000 C 
ATOM     26  C   UNL     1     -18.562   1.965  12.332  0.00  0.00    +0.000 C 
ENDBRANCH  22  23
ENDBRANCH   4  22
BRANCH   5  27
ATOM     27  O   UNL     1     -22.910  -4.825   8.177  0.00  0.00    +0.000 OA
BRANCH  27  33
ATOM     28  O   UNL     1     -24.485  -6.196   9.296  0.00  0.00    +0.000 OA
ATOM     29  C   UNL     1     -23.660  -7.383   6.800  0.00  0.00    +0.000 C 
ATOM     30  C   UNL     1     -23.910  -8.229   8.055  0.00  0.00    +0.000 C 
ATOM     31  C   UNL     1     -24.479  -6.092   6.833  0.00  0.00    +0.000 C 
ATOM     32  C   UNL     1     -23.674  -7.379   9.309  0.00  0.00    +0.000 C 
ATOM     33  C   UNL     1     -24.245  -5.347   8.164  0.00  0.00    +0.000 C 
ATOM     34  C   UNL     1     -24.014  -8.152  10.580  0.00  0.00    +0.000 C 
BRANCH  29  35
ATOM     35  O   UNL     1     -24.017  -8.167   5.647  0.00  0.00    +0.000 OA
ATOM     36  H   UNL     1     -23.876  -7.568   4.883  0.00  0.00    +0.000 HD
ENDBRANCH  29  35
BRANCH  30  37
ATOM     37  O   UNL     1     -23.038  -9.366   8.026  0.00  0.00    +0.000 OA
ATOM     38  H   UNL     1     -22.403  -9.219   8.756  0.00  0.00    +0.000 HD
ENDBRANCH  30  37
BRANCH  31  39
ATOM     39  O   UNL     1     -25.864  -6.451   6.644  0.00  0.00    +0.000 OA
ATOM     40  H   UNL     1     -26.279  -5.736   6.128  0.00  0.00    +0.000 HD
ENDBRANCH  31  39
ENDBRANCH  27  33
ENDBRANCH   5  27
BRANCH   3  41
ATOM     41  O   UNL     1     -22.512   2.844   9.548  0.00  0.00    +0.000 OA
BRANCH  41  47
ATOM     42  O   UNL     1     -23.243   4.749   8.349  0.00  0.00    +0.000 OA
ATOM     43  C   UNL     1     -25.413   5.122  10.168  0.00  0.00    +0.000 C 
ATOM     44  C   UNL     1     -24.986   6.218   9.187  0.00  0.00    +0.000 C 
ATOM     45  C   UNL     1     -24.250   4.184  10.482  0.00  0.00    +0.000 C 
ATOM     46  C   UNL     1     -24.350   5.575   7.947  0.00  0.00    +0.000 C 
ATOM     47  C   UNL     1     -23.646   3.653   9.168  0.00  0.00    +0.000 C 
BRANCH  44  48
ATOM     48  O   UNL     1     -26.127   7.005   8.841  0.00  0.00    +0.000 OA
ATOM     49  H   UNL     1     -26.721   6.951   9.618  0.00  0.00    +0.000 HD
ENDBRANCH  44  48
BRANCH  45  50
ATOM     50  O   UNL     1     -24.734   3.123  11.322  0.00  0.00    +0.000 OA
ATOM     51  H   UNL     1     -25.362   3.540  11.944  0.00  0.00    +0.000 HD
ENDBRANCH  45  50
BRANCH  43  52
ATOM     52  O   UNL     1     -25.897   5.737  11.373  0.00  0.00    +0.000 OA
ATOM     53  H   UNL     1     -26.862   5.838  11.238  0.00  0.00    +0.000 HD
ENDBRANCH  43  52
BRANCH  46  54
ATOM     54  C   UNL     1     -23.832   6.642   6.974  0.00  0.00    +0.000 C 
BRANCH  54  55
ATOM     55  O   UNL     1     -23.507   7.834   7.693  0.00  0.00    +0.000 OA
ATOM     56  H   UNL     1     -22.747   7.623   8.261  0.00  0.00    +0.000 HD
ENDBRANCH  54  55
ENDBRANCH  46  54
ENDBRANCH  41  47
ENDBRANCH   3  41
TORSDOF 17
ENDMDL
MODEL 9
REMARK VINA RESULT:      -6.6     18.977     22.125
REMARK  Name = 
REMARK  21 active torsions:
REMARK  status: ('A' for Active; 'I' for Inactive)
REMARK    1  A    between atoms: O_3  and  C_22
REMARK    2  A    between atoms: O_3  and  C_28
REMARK    3  A    between atoms: O_4  and  C_25
REMARK    4  A    between atoms: O_4  and  C_30
REMARK    5  A    between atoms: O_5  and  C_16
REMARK    6  A    between atoms: O_6  and  C_17
REMARK    7  A    between atoms: O_7  and  C_18
REMARK    8  A    between atoms: O_8  and  C_20
REMARK    9  A    between atoms: O_9  and  C_21
REMARK   10  A    between atoms: O_10  and  C_23
REMARK   11  A    between atoms: O_11  and  C_26
REMARK   12  A    between atoms: O_13  and  C_36
REMARK   13  A    between atoms: O_15  and  C_45
REMARK   14  A    between atoms: O_15  and  C_48
REMARK   15  A    between atoms: C_19  and  C_26
REMARK   16  A    between atoms: C_24  and  C_27
REMARK   17  A    between atoms: C_29  and  C_37
REMARK   18  A    between atoms: C_35  and  C_38
REMARK   19  A    between atoms: C_37  and  C_39
REMARK   20  A    between atoms: C_42  and  C_46
REMARK   21  A    between atoms: C_42  and  C_47
REMARK                            x       y       z     vdW  Elec       q    Type
REMARK                         _______ _______ _______ _____ _____    ______ ____
ROOT
ATOM      1  O   UNL     1      -3.323  -3.821   1.682  0.00  0.00    +0.000 OA
ATOM      2  O   UNL     1      -5.423  -1.310  -0.719  0.00  0.00    +0.000 OA
ATOM      3  C   UNL     1      -5.329  -6.283  -0.135  0.00  0.00    +0.000 A 
ATOM      4  C   UNL     1      -4.397  -5.737   0.766  0.00  0.00    +0.000 A 
ATOM      5  C   UNL     1      -3.813  -1.551   1.014  0.00  0.00    +0.000 A 
ATOM      6  C   UNL     1      -4.238  -4.337   0.796  0.00  0.00    +0.000 A 
ATOM      7  C   UNL     1      -4.982  -3.517  -0.053  0.00  0.00    +0.000 A 
ATOM      8  C   UNL     1      -4.792  -2.062   0.022  0.00  0.00    +0.000 A 
ATOM      9  C   UNL     1      -6.043  -5.464  -1.015  0.00  0.00    +0.000 A 
ATOM     10  C   UNL     1      -3.179  -2.451   1.786  0.00  0.00    +0.000 A 
ATOM     11  C   UNL     1      -5.879  -4.085  -0.961  0.00  0.00    +0.000 A 
ENDROOT
BRANCH  10  12
ATOM     12  C   UNL     1      -2.207  -2.054   2.817  0.00  0.00    +0.000 A 
ATOM     13  C   UNL     1      -0.838  -2.084   2.532  0.00  0.00    +0.000 A 
ATOM     14  C   UNL     1      -2.625  -1.655   4.092  0.00  0.00    +0.000 A 
ATOM     15  C   UNL     1       0.092  -1.705   3.504  0.00  0.00    +0.000 A 
ATOM     16  C   UNL     1      -1.692  -1.272   5.063  0.00  0.00    +0.000 A 
ATOM     17  C   UNL     1      -0.328  -1.291   4.770  0.00  0.00    +0.000 A 
BRANCH  17  18
ATOM     18  O   UNL     1       0.682  -0.941   5.621  0.00  0.00    +0.000 OA
ATOM     19  C   UNL     1       1.993  -0.884   5.073  0.00  0.00    +0.000 C 
ENDBRANCH  17  18
ENDBRANCH  10  12
BRANCH  11  20
ATOM     20  O   UNL     1      -6.627  -3.347  -1.839  0.00  0.00    +0.000 OA
ATOM     21  H   UNL     1      -7.510  -3.191  -1.437  0.00  0.00    +0.000 HD
ENDBRANCH  11  20
BRANCH   4  22
ATOM     22  C   UNL     1      -3.605  -6.617   1.714  0.00  0.00    +0.000 C 
BRANCH  22  23
ATOM     23  C   UNL     1      -2.409  -7.246   1.048  0.00  0.00    +0.000 C 
ATOM     24  C   UNL     1      -1.115  -6.872   1.111  0.00  0.00    +0.000 C 
ATOM     25  C   UNL     1      -0.578  -5.707   1.895  0.00  0.00    +0.000 C 
ATOM     26  C   UNL     1      -0.062  -7.647   0.363  0.00  0.00    +0.000 C 
ENDBRANCH  22  23
ENDBRANCH   4  22
BRANCH   5  27
ATOM     27  O   UNL     1      -3.650  -0.185   1.162  0.00  0.00    +0.000 OA
BRANCH  27  33
ATOM     28  O   UNL     1      -1.476   0.717   0.896  0.00  0.00    +0.000 OA
ATOM     29  C   UNL     1      -3.495   2.737   0.498  0.00  0.00    +0.000 C 
ATOM     30  C   UNL     1      -2.174   3.044   1.214  0.00  0.00    +0.000 C 
ATOM     31  C   UNL     1      -3.335   1.571  -0.478  0.00  0.00    +0.000 C 
ATOM     32  C   UNL     1      -1.627   1.766   1.862  0.00  0.00    +0.000 C 
ATOM     33  C   UNL     1      -2.700   0.360   0.238  0.00  0.00    +0.000 C 
ATOM     34  C   UNL     1      -0.260   2.003   2.497  0.00  0.00    +0.000 C 
BRANCH  29  35
ATOM     35  O   UNL     1      -3.913   3.920  -0.208  0.00  0.00    +0.000 OA
ATOM     36  H   UNL     1      -4.476   3.590  -0.940  0.00  0.00    +0.000 HD
ENDBRANCH  29  35
BRANCH  30  37
ATOM     37  O   UNL     1      -2.406   4.063   2.193  0.00  0.00    +0.000 OA
ATOM     38  H   UNL     1      -3.070   4.659   1.791  0.00  0.00    +0.000 HD
ENDBRANCH  30  37
BRANCH  31  39
ATOM     39  O   UNL     1      -2.531   2.036  -1.583  0.00  0.00    +0.000 OA
ATOM     40  H   UNL     1      -2.579   1.356  -2.280  0.00  0.00    +0.000 HD
ENDBRANCH  31  39
ENDBRANCH  27  33
ENDBRANCH   5  27
BRANCH   3  41
ATOM     41  O   UNL     1      -5.460  -7.646  -0.219  0.00  0.00    +0.000 OA
BRANCH  41  47
ATOM     42  O   UNL     1      -7.771  -8.103  -0.440  0.00  0.00    +0.000 OA
ATOM     43  C   UNL     1      -7.249  -9.986  -2.523  0.00  0.00    +0.000 C 
ATOM     44  C   UNL     1      -8.606  -9.921  -1.817  0.00  0.00    +0.000 C 
ATOM     45  C   UNL     1      -6.137  -9.449  -1.624  0.00  0.00    +0.000 C 
ATOM     46  C   UNL     1      -8.850  -8.494  -1.307  0.00  0.00    +0.000 C 
ATOM     47  C   UNL     1      -6.516  -8.045  -1.117  0.00  0.00    +0.000 C 
BRANCH  44  48
ATOM     48  O   UNL     1      -9.627 -10.332  -2.729  0.00  0.00    +0.000 OA
ATOM     49  H   UNL     1      -9.632  -9.648  -3.432  0.00  0.00    +0.000 HD
ENDBRANCH  44  48
BRANCH  45  50
ATOM     50  O   UNL     1      -4.910  -9.440  -2.372  0.00  0.00    +0.000 OA
ATOM     51  H   UNL     1      -4.211  -9.705  -1.742  0.00  0.00    +0.000 HD
ENDBRANCH  45  50
BRANCH  43  52
ATOM     52  O   UNL     1      -6.979 -11.349  -2.891  0.00  0.00    +0.000 OA
ATOM     53  H   UNL     1      -6.747 -11.315  -3.841  0.00  0.00    +0.000 HD
ENDBRANCH  43  52
BRANCH  46  54
ATOM     54  C   UNL     1     -10.163  -8.404  -0.520  0.00  0.00    +0.000 C 
BRANCH  54  55
ATOM     55  O   UNL     1     -10.209  -7.171   0.203  0.00  0.00    +0.000 OA
ATOM     56  H   UNL     1      -9.493  -6.614  -0.144  0.00  0.00    +0.000 HD
ENDBRANCH  54  55
ENDBRANCH  46  54
ENDBRANCH  41  47
ENDBRANCH   3  41
TORSDOF 17
ENDMDL
