MODEL 1
REMARK VINA RESULT:      -6.0      0.000      0.000
REMARK  Name = 
REMARK  6 active torsions:
REMARK  status: ('A' for Active; 'I' for Inactive)
REMARK    1  A    between atoms: O_3  and  C_16
REMARK    2  A    between atoms: O_4  and  C_17
REMARK    3  A    between atoms: O_4  and  C_22
REMARK    4  A    between atoms: O_5  and  C_19
REMARK    5  A    between atoms: O_5  and  C_23
REMARK    6  A    between atoms: O_6  and  C_21
REMARK                            x       y       z     vdW  Elec       q    Type
REMARK                         _______ _______ _______ _____ _____    ______ ____
ROOT
ATOM      1  O   UNL     1      -7.823  -4.345  22.761  0.00  0.00    +0.000 OA
ATOM      2  O   UNL     1      -9.875  -1.997  20.340  0.00  0.00    +0.000 OA
ATOM      3  C   UNL     1      -8.998  -4.270  20.650  0.00  0.00    +0.000 C 
ATOM      4  C   UNL     1      -7.813  -3.722  21.451  0.00  0.00    +0.000 C 
ATOM      5  C   UNL     1      -9.876  -4.707  21.771  0.00  0.00    +0.000 A 
ATOM      6  C   UNL     1      -9.547  -3.228  19.698  0.00  0.00    +0.000 C 
ATOM      7  C   UNL     1      -7.817  -2.216  21.600  0.00  0.00    +0.000 A 
ATOM      8  C   UNL     1      -9.121  -4.756  22.934  0.00  0.00    +0.000 A 
ATOM      9  C   UNL     1      -8.850  -1.435  21.055  0.00  0.00    +0.000 A 
ATOM     10  C   UNL     1     -11.206  -5.093  21.772  0.00  0.00    +0.000 A 
ATOM     11  C   UNL     1      -6.770  -1.590  22.302  0.00  0.00    +0.000 A 
ATOM     12  C   UNL     1      -9.669  -5.194  24.122  0.00  0.00    +0.000 A 
ATOM     13  C   UNL     1      -8.856  -0.047  21.258  0.00  0.00    +0.000 A 
ATOM     14  C   UNL     1     -11.779  -5.526  22.976  0.00  0.00    +0.000 A 
ATOM     15  C   UNL     1     -11.015  -5.581  24.155  0.00  0.00    +0.000 A 
ATOM     16  C   UNL     1      -6.747  -0.207  22.457  0.00  0.00    +0.000 A 
ATOM     17  C   UNL     1      -7.783   0.548  21.930  0.00  0.00    +0.000 A 
ENDROOT
BRANCH  12  18
ATOM     18  O   UNL     1      -8.909  -5.246  25.257  0.00  0.00    +0.000 OA
ATOM     19  H   UNL     1      -9.454  -5.727  25.906  0.00  0.00    +0.000 HD
ENDBRANCH  12  18
BRANCH  13  20
ATOM     20  O   UNL     1      -9.806   0.834  20.798  0.00  0.00    +0.000 OA
ATOM     21  C   UNL     1      -9.603   1.272  19.455  0.00  0.00    +0.000 C 
ENDBRANCH  13  20
BRANCH  15  22
ATOM     22  O   UNL     1     -11.465  -5.994  25.385  0.00  0.00    +0.000 OA
ATOM     23  C   UNL     1     -12.145  -7.244  25.431  0.00  0.00    +0.000 C 
ENDBRANCH  15  22
BRANCH  17  24
ATOM     24  O   UNL     1      -7.742   1.908  22.094  0.00  0.00    +0.000 OA
ATOM     25  H   UNL     1      -7.769   2.044  23.060  0.00  0.00    +0.000 HD
ENDBRANCH  17  24
TORSDOF 4
ENDMDL
MODEL 2
REMARK VINA RESULT:      -5.4      1.902      6.214
REMARK  Name = 
REMARK  6 active torsions:
REMARK  status: ('A' for Active; 'I' for Inactive)
REMARK    1  A    between atoms: O_3  and  C_16
REMARK    2  A    between atoms: O_4  and  C_17
REMARK    3  A    between atoms: O_4  and  C_22
REMARK    4  A    between atoms: O_5  and  C_19
REMARK    5  A    between atoms: O_5  and  C_23
REMARK    6  A    between atoms: O_6  and  C_21
REMARK                            x       y       z     vdW  Elec       q    Type
REMARK                         _______ _______ _______ _____ _____    ______ ____
ROOT
ATOM      1  O   UNL     1     -10.430  -1.577  21.778  0.00  0.00    +0.000 OA
ATOM      2  O   UNL     1     -10.355  -5.487  22.316  0.00  0.00    +0.000 OA
ATOM      3  C   UNL     1      -9.807  -3.675  20.751  0.00  0.00    +0.000 C 
ATOM      4  C   UNL     1     -10.967  -2.834  21.293  0.00  0.00    +0.000 C 
ATOM      5  C   UNL     1      -8.679  -3.055  21.500  0.00  0.00    +0.000 A 
ATOM      6  C   UNL     1     -10.056  -5.154  20.962  0.00  0.00    +0.000 C 
ATOM      7  C   UNL     1     -11.755  -3.512  22.393  0.00  0.00    +0.000 A 
ATOM      8  C   UNL     1      -9.106  -1.845  22.026  0.00  0.00    +0.000 A 
ATOM      9  C   UNL     1     -11.402  -4.790  22.859  0.00  0.00    +0.000 A 
ATOM     10  C   UNL     1      -7.368  -3.474  21.657  0.00  0.00    +0.000 A 
ATOM     11  C   UNL     1     -12.857  -2.846  22.961  0.00  0.00    +0.000 A 
ATOM     12  C   UNL     1      -8.240  -1.022  22.717  0.00  0.00    +0.000 A 
ATOM     13  C   UNL     1     -12.116  -5.368  23.917  0.00  0.00    +0.000 A 
ATOM     14  C   UNL     1      -6.482  -2.653  22.370  0.00  0.00    +0.000 A 
ATOM     15  C   UNL     1      -6.911  -1.425  22.901  0.00  0.00    +0.000 A 
ATOM     16  C   UNL     1     -13.601  -3.444  23.975  0.00  0.00    +0.000 A 
ATOM     17  C   UNL     1     -13.228  -4.696  24.437  0.00  0.00    +0.000 A 
ENDROOT
BRANCH  12  18
ATOM     18  O   UNL     1      -8.675   0.172  23.221  0.00  0.00    +0.000 OA
ATOM     19  H   UNL     1      -9.534   0.332  22.789  0.00  0.00    +0.000 HD
ENDBRANCH  12  18
BRANCH  13  20
ATOM     20  O   UNL     1     -11.874  -6.599  24.481  0.00  0.00    +0.000 OA
ATOM     21  C   UNL     1     -10.854  -6.600  25.478  0.00  0.00    +0.000 C 
ENDBRANCH  13  20
BRANCH  15  22
ATOM     22  O   UNL     1      -6.134  -0.539  23.606  0.00  0.00    +0.000 OA
ATOM     23  C   UNL     1      -4.758  -0.871  23.752  0.00  0.00    +0.000 C 
ENDBRANCH  15  22
BRANCH  17  24
ATOM     24  O   UNL     1     -13.973  -5.266  25.435  0.00  0.00    +0.000 OA
ATOM     25  H   UNL     1     -14.501  -4.532  25.803  0.00  0.00    +0.000 HD
ENDBRANCH  17  24
TORSDOF 4
ENDMDL
MODEL 3
REMARK VINA RESULT:      -5.4      3.204      5.512
REMARK  Name = 
REMARK  6 active torsions:
REMARK  status: ('A' for Active; 'I' for Inactive)
REMARK    1  A    between atoms: O_3  and  C_16
REMARK    2  A    between atoms: O_4  and  C_17
REMARK    3  A    between atoms: O_4  and  C_22
REMARK    4  A    between atoms: O_5  and  C_19
REMARK    5  A    between atoms: O_5  and  C_23
REMARK    6  A    between atoms: O_6  and  C_21
REMARK                            x       y       z     vdW  Elec       q    Type
REMARK                         _______ _______ _______ _____ _____    ______ ____
ROOT
ATOM      1  O   UNL     1      -8.057   0.187  22.176  0.00  0.00    +0.000 OA
ATOM      2  O   UNL     1      -4.463  -1.132  23.140  0.00  0.00    +0.000 OA
ATOM      3  C   UNL     1      -6.823  -1.084  23.821  0.00  0.00    +0.000 C 
ATOM      4  C   UNL     1      -7.001   0.290  23.165  0.00  0.00    +0.000 C 
ATOM      5  C   UNL     1      -7.391  -1.948  22.749  0.00  0.00    +0.000 A 
ATOM      6  C   UNL     1      -5.380  -1.321  24.216  0.00  0.00    +0.000 C 
ATOM      7  C   UNL     1      -5.743   0.828  22.518  0.00  0.00    +0.000 A 
ATOM      8  C   UNL     1      -8.109  -1.150  21.870  0.00  0.00    +0.000 A 
ATOM      9  C   UNL     1      -4.549   0.088  22.522  0.00  0.00    +0.000 A 
ATOM     10  C   UNL     1      -7.345  -3.322  22.584  0.00  0.00    +0.000 A 
ATOM     11  C   UNL     1      -5.775   2.090  21.896  0.00  0.00    +0.000 A 
ATOM     12  C   UNL     1      -8.801  -1.700  20.810  0.00  0.00    +0.000 A 
ATOM     13  C   UNL     1      -3.416   0.588  21.866  0.00  0.00    +0.000 A 
ATOM     14  C   UNL     1      -8.032  -3.892  21.503  0.00  0.00    +0.000 A 
ATOM     15  C   UNL     1      -8.763  -3.087  20.613  0.00  0.00    +0.000 A 
ATOM     16  C   UNL     1      -4.636   2.612  21.291  0.00  0.00    +0.000 A 
ATOM     17  C   UNL     1      -3.470   1.862  21.287  0.00  0.00    +0.000 A 
ENDROOT
BRANCH  12  18
ATOM     18  O   UNL     1      -9.512  -0.902  19.958  0.00  0.00    +0.000 OA
ATOM     19  H   UNL     1     -10.447  -1.054  20.189  0.00  0.00    +0.000 HD
ENDBRANCH  12  18
BRANCH  13  20
ATOM     20  O   UNL     1      -2.191  -0.031  21.777  0.00  0.00    +0.000 OA
ATOM     21  C   UNL     1      -1.370   0.119  22.934  0.00  0.00    +0.000 C 
ENDBRANCH  13  20
BRANCH  15  22
ATOM     22  O   UNL     1      -9.478  -3.534  19.528  0.00  0.00    +0.000 OA
ATOM     23  C   UNL     1      -9.041  -4.749  18.930  0.00  0.00    +0.000 C 
ENDBRANCH  15  22
BRANCH  17  24
ATOM     24  O   UNL     1      -2.360   2.393  20.686  0.00  0.00    +0.000 OA
ATOM     25  H   UNL     1      -1.645   1.755  20.873  0.00  0.00    +0.000 HD
ENDBRANCH  17  24
TORSDOF 4
ENDMDL
MODEL 4
REMARK VINA RESULT:      -5.3     19.808     22.181
REMARK  Name = 
REMARK  6 active torsions:
REMARK  status: ('A' for Active; 'I' for Inactive)
REMARK    1  A    between atoms: O_3  and  C_16
REMARK    2  A    between atoms: O_4  and  C_17
REMARK    3  A    between atoms: O_4  and  C_22
REMARK    4  A    between atoms: O_5  and  C_19
REMARK    5  A    between atoms: O_5  and  C_23
REMARK    6  A    between atoms: O_6  and  C_21
REMARK                            x       y       z     vdW  Elec       q    Type
REMARK                         _______ _______ _______ _____ _____    ______ ____
ROOT
ATOM      1  O   UNL     1      -2.554  -1.803   3.060  0.00  0.00    +0.000 OA
ATOM      2  O   UNL     1      -1.112  -4.149   0.231  0.00  0.00    +0.000 OA
ATOM      3  C   UNL     1      -1.508  -1.813   0.881  0.00  0.00    +0.000 C 
ATOM      4  C   UNL     1      -2.743  -2.229   1.686  0.00  0.00    +0.000 C 
ATOM      5  C   UNL     1      -0.514  -1.708   1.985  0.00  0.00    +0.000 A 
ATOM      6  C   UNL     1      -1.217  -2.802  -0.229  0.00  0.00    +0.000 C 
ATOM      7  C   UNL     1      -3.030  -3.715   1.646  0.00  0.00    +0.000 A 
ATOM      8  C   UNL     1      -1.194  -1.673   3.193  0.00  0.00    +0.000 A 
ATOM      9  C   UNL     1      -2.196  -4.597   0.938  0.00  0.00    +0.000 A 
ATOM     10  C   UNL     1       0.865  -1.586   1.943  0.00  0.00    +0.000 A 
ATOM     11  C   UNL     1      -4.149  -4.218   2.334  0.00  0.00    +0.000 A 
ATOM     12  C   UNL     1      -0.520  -1.513   4.387  0.00  0.00    +0.000 A 
ATOM     13  C   UNL     1      -2.456  -5.975   0.966  0.00  0.00    +0.000 A 
ATOM     14  C   UNL     1       1.563  -1.436   3.150  0.00  0.00    +0.000 A 
ATOM     15  C   UNL     1       0.876  -1.397   4.375  0.00  0.00    +0.000 A 
ATOM     16  C   UNL     1      -4.438  -5.580   2.317  0.00  0.00    +0.000 A 
ATOM     17  C   UNL     1      -3.596  -6.440   1.630  0.00  0.00    +0.000 A 
ENDROOT
BRANCH  12  18
ATOM     18  O   UNL     1      -1.206  -1.472   5.569  0.00  0.00    +0.000 OA
ATOM     19  H   UNL     1      -0.822  -2.187   6.109  0.00  0.00    +0.000 HD
ENDBRANCH  12  18
BRANCH  13  20
ATOM     20  O   UNL     1      -1.720  -6.950   0.336  0.00  0.00    +0.000 OA
ATOM     21  C   UNL     1      -0.573  -7.387   1.063  0.00  0.00    +0.000 C 
ENDBRANCH  13  20
BRANCH  15  22
ATOM     22  O   UNL     1       1.451  -1.248   5.614  0.00  0.00    +0.000 OA
ATOM     23  C   UNL     1       2.018   0.024   5.907  0.00  0.00    +0.000 C 
ENDBRANCH  15  22
BRANCH  17  24
ATOM     24  O   UNL     1      -3.898  -7.776   1.626  0.00  0.00    +0.000 OA
ATOM     25  H   UNL     1      -4.680  -7.857   2.205  0.00  0.00    +0.000 HD
ENDBRANCH  17  24
TORSDOF 4
ENDMDL
MODEL 5
REMARK VINA RESULT:      -5.2      1.609      2.186
REMARK  Name = 
REMARK  6 active torsions:
REMARK  status: ('A' for Active; 'I' for Inactive)
REMARK    1  A    between atoms: O_3  and  C_16
REMARK    2  A    between atoms: O_4  and  C_17
REMARK    3  A    between atoms: O_4  and  C_22
REMARK    4  A    between atoms: O_5  and  C_19
REMARK    5  A    between atoms: O_5  and  C_23
REMARK    6  A    between atoms: O_6  and  C_21
REMARK                            x       y       z     vdW  Elec       q    Type
REMARK                         _______ _______ _______ _____ _____    ______ ____
ROOT
ATOM      1  O   UNL     1      -9.645  -5.587  23.454  0.00  0.00    +0.000 OA
ATOM      2  O   UNL     1     -10.869  -2.690  21.067  0.00  0.00    +0.000 OA
ATOM      3  C   UNL     1     -11.045  -5.093  21.546  0.00  0.00    +0.000 C 
ATOM      4  C   UNL     1      -9.611  -5.107  22.085  0.00  0.00    +0.000 C 
ATOM      5  C   UNL     1     -11.794  -5.018  22.832  0.00  0.00    +0.000 A 
ATOM      6  C   UNL     1     -11.248  -3.966  20.555  0.00  0.00    +0.000 C 
ATOM      7  C   UNL     1      -8.921  -3.761  22.031  0.00  0.00    +0.000 A 
ATOM      8  C   UNL     1     -10.932  -5.348  23.868  0.00  0.00    +0.000 A 
ATOM      9  C   UNL     1      -9.586  -2.623  21.543  0.00  0.00    +0.000 A 
ATOM     10  C   UNL     1     -13.130  -4.751  23.079  0.00  0.00    +0.000 A 
ATOM     11  C   UNL     1      -7.593  -3.650  22.482  0.00  0.00    +0.000 A 
ATOM     12  C   UNL     1     -11.378  -5.423  25.171  0.00  0.00    +0.000 A 
ATOM     13  C   UNL     1      -8.940  -1.379  21.558  0.00  0.00    +0.000 A 
ATOM     14  C   UNL     1     -13.593  -4.811  24.401  0.00  0.00    +0.000 A 
ATOM     15  C   UNL     1     -12.723  -5.147  25.452  0.00  0.00    +0.000 A 
ATOM     16  C   UNL     1      -6.933  -2.425  22.446  0.00  0.00    +0.000 A 
ATOM     17  C   UNL     1      -7.607  -1.308  21.980  0.00  0.00    +0.000 A 
ENDROOT
BRANCH  12  18
ATOM     18  O   UNL     1     -10.518  -5.757  26.180  0.00  0.00    +0.000 OA
ATOM     19  H   UNL     1     -10.703  -6.696  26.370  0.00  0.00    +0.000 HD
ENDBRANCH  12  18
BRANCH  13  20
ATOM     20  O   UNL     1      -9.471  -0.186  21.128  0.00  0.00    +0.000 OA
ATOM     21  C   UNL     1     -10.238   0.507  22.111  0.00  0.00    +0.000 C 
ENDBRANCH  13  20
BRANCH  15  22
ATOM     22  O   UNL     1     -13.066  -5.243  26.779  0.00  0.00    +0.000 OA
ATOM     23  C   UNL     1     -14.401  -4.891  27.122  0.00  0.00    +0.000 C 
ENDBRANCH  15  22
BRANCH  17  24
ATOM     24  O   UNL     1      -6.940  -0.112  21.953  0.00  0.00    +0.000 OA
ATOM     25  H   UNL     1      -7.621   0.559  22.148  0.00  0.00    +0.000 HD
ENDBRANCH  17  24
TORSDOF 4
ENDMDL
MODEL 6
REMARK VINA RESULT:      -5.2     13.304     15.206
REMARK  Name = 
REMARK  6 active torsions:
REMARK  status: ('A' for Active; 'I' for Inactive)
REMARK    1  A    between atoms: O_3  and  C_16
REMARK    2  A    between atoms: O_4  and  C_17
REMARK    3  A    between atoms: O_4  and  C_22
REMARK    4  A    between atoms: O_5  and  C_19
REMARK    5  A    between atoms: O_5  and  C_23
REMARK    6  A    between atoms: O_6  and  C_21
REMARK                            x       y       z     vdW  Elec       q    Type
REMARK                         _______ _______ _______ _____ _____    ______ ____
ROOT
ATOM      1  O   UNL     1      -4.218 -14.472  21.203  0.00  0.00    +0.000 OA
ATOM      2  O   UNL     1      -1.474 -17.310  21.198  0.00  0.00    +0.000 OA
ATOM      3  C   UNL     1      -3.271 -16.270  22.511  0.00  0.00    +0.000 C 
ATOM      4  C   UNL     1      -2.997 -14.917  21.845  0.00  0.00    +0.000 C 
ATOM      5  C   UNL     1      -4.438 -16.715  21.700  0.00  0.00    +0.000 A 
ATOM      6  C   UNL     1      -2.037 -17.148  22.499  0.00  0.00    +0.000 C 
ATOM      7  C   UNL     1      -1.868 -14.947  20.837  0.00  0.00    +0.000 A 
ATOM      8  C   UNL     1      -4.942 -15.623  21.009  0.00  0.00    +0.000 A 
ATOM      9  C   UNL     1      -1.179 -16.138  20.553  0.00  0.00    +0.000 A 
ATOM     10  C   UNL     1      -5.054 -17.952  21.617  0.00  0.00    +0.000 A 
ATOM     11  C   UNL     1      -1.510 -13.761  20.171  0.00  0.00    +0.000 A 
ATOM     12  C   UNL     1      -6.072 -15.733  20.225  0.00  0.00    +0.000 A 
ATOM     13  C   UNL     1      -0.176 -16.145  19.573  0.00  0.00    +0.000 A 
ATOM     14  C   UNL     1      -6.195 -18.082  20.811  0.00  0.00    +0.000 A 
ATOM     15  C   UNL     1      -6.710 -16.976  20.114  0.00  0.00    +0.000 A 
ATOM     16  C   UNL     1      -0.478 -13.756  19.237  0.00  0.00    +0.000 A 
ATOM     17  C   UNL     1       0.181 -14.942  18.954  0.00  0.00    +0.000 A 
ENDROOT
BRANCH  12  18
ATOM     18  O   UNL     1      -6.561 -14.645  19.558  0.00  0.00    +0.000 OA
ATOM     19  H   UNL     1      -7.047 -15.011  18.796  0.00  0.00    +0.000 HD
ENDBRANCH  12  18
BRANCH  13  20
ATOM     20  O   UNL     1       0.567 -17.234  19.184  0.00  0.00    +0.000 OA
ATOM     21  C   UNL     1      -0.066 -18.062  18.210  0.00  0.00    +0.000 C 
ENDBRANCH  13  20
BRANCH  15  22
ATOM     22  O   UNL     1      -7.820 -16.982  19.305  0.00  0.00    +0.000 OA
ATOM     23  C   UNL     1      -8.349 -18.256  18.954  0.00  0.00    +0.000 C 
ENDBRANCH  15  22
BRANCH  17  24
ATOM     24  O   UNL     1       1.194 -14.916  18.032  0.00  0.00    +0.000 OA
ATOM     25  H   UNL     1       1.788 -14.203  18.334  0.00  0.00    +0.000 HD
ENDBRANCH  17  24
TORSDOF 4
ENDMDL
MODEL 7
REMARK VINA RESULT:      -5.2      2.168      3.578
REMARK  Name = 
REMARK  6 active torsions:
REMARK  status: ('A' for Active; 'I' for Inactive)
REMARK    1  A    between atoms: O_3  and  C_16
REMARK    2  A    between atoms: O_4  and  C_17
REMARK    3  A    between atoms: O_4  and  C_22
REMARK    4  A    between atoms: O_5  and  C_19
REMARK    5  A    between atoms: O_5  and  C_23
REMARK    6  A    between atoms: O_6  and  C_21
REMARK                            x       y       z     vdW  Elec       q    Type
REMARK                         _______ _______ _______ _____ _____    ______ ____
ROOT
ATOM      1  O   UNL     1     -11.268  -5.877  22.871  0.00  0.00    +0.000 OA
ATOM      2  O   UNL     1     -12.228  -2.078  23.355  0.00  0.00    +0.000 OA
ATOM      3  C   UNL     1     -13.096  -4.376  23.370  0.00  0.00    +0.000 C 
ATOM      4  C   UNL     1     -12.059  -4.792  22.322  0.00  0.00    +0.000 C 
ATOM      5  C   UNL     1     -12.419  -4.871  24.601  0.00  0.00    +0.000 A 
ATOM      6  C   UNL     1     -13.397  -2.894  23.288  0.00  0.00    +0.000 C 
ATOM      7  C   UNL     1     -11.149  -3.667  21.879  0.00  0.00    +0.000 A 
ATOM      8  C   UNL     1     -11.410  -5.749  24.231  0.00  0.00    +0.000 A 
ATOM      9  C   UNL     1     -11.267  -2.378  22.426  0.00  0.00    +0.000 A 
ATOM     10  C   UNL     1     -12.696  -4.633  25.937  0.00  0.00    +0.000 A 
ATOM     11  C   UNL     1     -10.165  -3.921  20.906  0.00  0.00    +0.000 A 
ATOM     12  C   UNL     1     -10.657  -6.412  25.179  0.00  0.00    +0.000 A 
ATOM     13  C   UNL     1     -10.373  -1.371  22.037  0.00  0.00    +0.000 A 
ATOM     14  C   UNL     1     -11.929  -5.289  26.910  0.00  0.00    +0.000 A 
ATOM     15  C   UNL     1     -10.909  -6.181  26.538  0.00  0.00    +0.000 A 
ATOM     16  C   UNL     1      -9.312  -2.907  20.478  0.00  0.00    +0.000 A 
ATOM     17  C   UNL     1      -9.428  -1.646  21.041  0.00  0.00    +0.000 A 
ENDROOT
BRANCH  12  18
ATOM     18  O   UNL     1      -9.673  -7.280  24.797  0.00  0.00    +0.000 OA
ATOM     19  H   UNL     1      -9.208  -7.515  25.621  0.00  0.00    +0.000 HD
ENDBRANCH  12  18
BRANCH  13  20
ATOM     20  O   UNL     1     -10.362  -0.076  22.498  0.00  0.00    +0.000 OA
ATOM     21  C   UNL     1      -9.663   0.107  23.728  0.00  0.00    +0.000 C 
ENDBRANCH  13  20
BRANCH  15  22
ATOM     22  O   UNL     1     -10.101  -6.883  27.399  0.00  0.00    +0.000 OA
ATOM     23  C   UNL     1     -10.721  -7.913  28.161  0.00  0.00    +0.000 C 
ENDBRANCH  15  22
BRANCH  17  24
ATOM     24  O   UNL     1      -8.579  -0.662  20.607  0.00  0.00    +0.000 OA
ATOM     25  H   UNL     1      -8.571  -0.004  21.328  0.00  0.00    +0.000 HD
ENDBRANCH  17  24
TORSDOF 4
ENDMDL
MODEL 8
REMARK VINA RESULT:      -4.8      2.634      4.141
REMARK  Name = 
REMARK  6 active torsions:
REMARK  status: ('A' for Active; 'I' for Inactive)
REMARK    1  A    between atoms: O_3  and  C_16
REMARK    2  A    between atoms: O_4  and  C_17
REMARK    3  A    between atoms: O_4  and  C_22
REMARK    4  A    between atoms: O_5  and  C_19
REMARK    5  A    between atoms: O_5  and  C_23
REMARK    6  A    between atoms: O_6  and  C_21
REMARK                            x       y       z     vdW  Elec       q    Type
REMARK                         _______ _______ _______ _____ _____    ______ ____
ROOT
ATOM      1  O   UNL     1      -9.319  -6.327  23.881  0.00  0.00    +0.000 OA
ATOM      2  O   UNL     1     -10.707  -2.699  24.582  0.00  0.00    +0.000 OA
ATOM      3  C   UNL     1     -11.131  -5.097  24.903  0.00  0.00    +0.000 C 
ATOM      4  C   UNL     1     -10.409  -5.417  23.590  0.00  0.00    +0.000 C 
ATOM      5  C   UNL     1     -10.037  -5.399  25.868  0.00  0.00    +0.000 A 
ATOM      6  C   UNL     1     -11.686  -3.688  24.895  0.00  0.00    +0.000 C 
ATOM      7  C   UNL     1      -9.880  -4.197  22.867  0.00  0.00    +0.000 A 
ATOM      8  C   UNL     1      -9.058  -6.133  25.215  0.00  0.00    +0.000 A 
ATOM      9  C   UNL     1     -10.039  -2.908  23.405  0.00  0.00    +0.000 A 
ATOM     10  C   UNL     1      -9.929  -5.117  27.220  0.00  0.00    +0.000 A 
ATOM     11  C   UNL     1      -9.212  -4.360  21.640  0.00  0.00    +0.000 A 
ATOM     12  C   UNL     1      -7.952  -6.607  25.890  0.00  0.00    +0.000 A 
ATOM     13  C   UNL     1      -9.488  -1.804  22.740  0.00  0.00    +0.000 A 
ATOM     14  C   UNL     1      -8.803  -5.581  27.915  0.00  0.00    +0.000 A 
ATOM     15  C   UNL     1      -7.812  -6.328  27.256  0.00  0.00    +0.000 A 
ATOM     16  C   UNL     1      -8.713  -3.258  20.952  0.00  0.00    +0.000 A 
ATOM     17  C   UNL     1      -8.860  -1.995  21.504  0.00  0.00    +0.000 A 
ENDROOT
BRANCH  12  18
ATOM     18  O   UNL     1      -7.001  -7.337  25.234  0.00  0.00    +0.000 OA
ATOM     19  H   UNL     1      -6.214  -6.761  25.206  0.00  0.00    +0.000 HD
ENDBRANCH  12  18
BRANCH  13  20
ATOM     20  O   UNL     1      -9.553  -0.494  23.154  0.00  0.00    +0.000 OA
ATOM     21  C   UNL     1      -8.551  -0.124  24.099  0.00  0.00    +0.000 C 
ENDBRANCH  13  20
BRANCH  15  22
ATOM     22  O   UNL     1      -6.674  -6.838  27.834  0.00  0.00    +0.000 OA
ATOM     23  C   UNL     1      -6.849  -7.909  28.754  0.00  0.00    +0.000 C 
ENDBRANCH  15  22
BRANCH  17  24
ATOM     24  O   UNL     1      -8.362  -0.923  20.812  0.00  0.00    +0.000 OA
ATOM     25  H   UNL     1      -7.650  -1.294  20.257  0.00  0.00    +0.000 HD
ENDBRANCH  17  24
TORSDOF 4
ENDMDL
MODEL 9
REMARK VINA RESULT:      -4.8     18.012     20.594
REMARK  Name = 
REMARK  6 active torsions:
REMARK  status: ('A' for Active; 'I' for Inactive)
REMARK    1  A    between atoms: O_3  and  C_16
REMARK    2  A    between atoms: O_4  and  C_17
REMARK    3  A    between atoms: O_4  and  C_22
REMARK    4  A    between atoms: O_5  and  C_19
REMARK    5  A    between atoms: O_5  and  C_23
REMARK    6  A    between atoms: O_6  and  C_21
REMARK                            x       y       z     vdW  Elec       q    Type
REMARK                         _______ _______ _______ _____ _____    ______ ____
ROOT
ATOM      1  O   UNL     1     -10.347   5.244   3.521  0.00  0.00    +0.000 OA
ATOM      2  O   UNL     1     -12.570   7.493   5.884  0.00  0.00    +0.000 OA
ATOM      3  C   UNL     1     -11.795   5.201   5.456  0.00  0.00    +0.000 C 
ATOM      4  C   UNL     1     -11.708   5.494   3.955  0.00  0.00    +0.000 C 
ATOM      5  C   UNL     1     -10.361   5.369   5.826  0.00  0.00    +0.000 A 
ATOM      6  C   UNL     1     -12.801   6.107   6.135  0.00  0.00    +0.000 C 
ATOM      7  C   UNL     1     -12.115   6.902   3.579  0.00  0.00    +0.000 A 
ATOM      8  C   UNL     1      -9.598   5.348   4.668  0.00  0.00    +0.000 A 
ATOM      9  C   UNL     1     -12.507   7.831   4.558  0.00  0.00    +0.000 A 
ATOM     10  C   UNL     1      -9.760   5.465   7.069  0.00  0.00    +0.000 A 
ATOM     11  C   UNL     1     -12.093   7.287   2.226  0.00  0.00    +0.000 A 
ATOM     12  C   UNL     1      -8.221   5.418   4.719  0.00  0.00    +0.000 A 
ATOM     13  C   UNL     1     -12.823   9.145   4.185  0.00  0.00    +0.000 A 
ATOM     14  C   UNL     1      -8.362   5.552   7.135  0.00  0.00    +0.000 A 
ATOM     15  C   UNL     1      -7.587   5.527   5.964  0.00  0.00    +0.000 A 
ATOM     16  C   UNL     1     -12.461   8.576   1.849  0.00  0.00    +0.000 A 
ATOM     17  C   UNL     1     -12.827   9.486   2.828  0.00  0.00    +0.000 A 
ENDROOT
BRANCH  12  18
ATOM     18  O   UNL     1      -7.483   5.387   3.569  0.00  0.00    +0.000 OA
ATOM     19  H   UNL     1      -6.940   4.580   3.638  0.00  0.00    +0.000 HD
ENDBRANCH  12  18
BRANCH  13  20
ATOM     20  O   UNL     1     -13.207  10.157   5.033  0.00  0.00    +0.000 OA
ATOM     21  C   UNL     1     -12.125  10.840   5.663  0.00  0.00    +0.000 C 
ENDBRANCH  13  20
BRANCH  15  22
ATOM     22  O   UNL     1      -6.216   5.597   5.906  0.00  0.00    +0.000 OA
ATOM     23  C   UNL     1      -5.512   5.363   7.120  0.00  0.00    +0.000 C 
ENDBRANCH  15  22
BRANCH  17  24
ATOM     24  O   UNL     1     -13.184  10.749   2.436  0.00  0.00    +0.000 OA
ATOM     25  H   UNL     1     -12.457  11.046   1.857  0.00  0.00    +0.000 HD
ENDBRANCH  17  24
TORSDOF 4
ENDMDL
