MODEL 1
REMARK VINA RESULT:      -6.9      0.000      0.000
REMARK  Name = IPA3.pdbqt.pdb
REMARK  5 active torsions:
REMARK  status: ('A' for Active; 'I' for Inactive)
REMARK    1  A    between atoms: S_1  and  S_2
REMARK    2  A    between atoms: S_1  and  C_15
REMARK    3  A    between atoms: S_2  and  C_3
REMARK    4  A    between atoms: C_10  and  O_13
REMARK    5  A    between atoms: C_22  and  O_25
REMARK                            x       y       z     vdW  Elec       q    Type
REMARK                         _______ _______ _______ _____ _____    ______ ____
ROOT
ATOM      1  S   UNL     1      -7.851  -2.356  24.594  0.00  0.00    +0.000 S 
ENDROOT
BRANCH   1   2
ATOM      2  C   UNL     1      -9.182  -3.501  24.201  0.00  0.00    +0.000 A 
ATOM      3  C   UNL     1     -10.471  -3.033  23.850  0.00  0.00    +0.000 A 
ATOM      4  C   UNL     1     -11.475  -3.974  23.522  0.00  0.00    +0.000 A 
ATOM      5  C   UNL     1     -10.814  -1.671  23.794  0.00  0.00    +0.000 A 
ATOM      6  C   UNL     1     -11.205  -5.340  23.561  0.00  0.00    +0.000 A 
ATOM      7  C   UNL     1     -12.750  -3.549  23.149  0.00  0.00    +0.000 A 
ATOM      8  C   UNL     1      -9.944  -5.797  23.922  0.00  0.00    +0.000 A 
ATOM      9  C   UNL     1      -8.943  -4.885  24.237  0.00  0.00    +0.000 A 
ATOM     10  C   UNL     1     -13.056  -2.192  23.095  0.00  0.00    +0.000 A 
ATOM     11  C   UNL     1     -12.088  -1.251  23.419  0.00  0.00    +0.000 A 
BRANCH   9  12
ATOM     12  O   UNL     1      -7.723  -5.410  24.573  0.00  0.00    +0.000 OA
ATOM     13  H   UNL     1      -7.823  -6.377  24.633  0.00  0.00    +0.000 HD
ENDBRANCH   9  12
ENDBRANCH   1   2
BRANCH   1  14
ATOM     14  S   UNL     1      -6.762  -2.368  22.845  0.00  0.00    +0.000 S 
BRANCH  14  15
ATOM     15  C   UNL     1      -7.906  -1.591  21.697  0.00  0.00    +0.000 A 
ATOM     16  C   UNL     1      -8.688  -2.365  20.806  0.00  0.00    +0.000 A 
ATOM     17  C   UNL     1      -9.594  -1.708  19.942  0.00  0.00    +0.000 A 
ATOM     18  C   UNL     1      -8.626  -3.769  20.736  0.00  0.00    +0.000 A 
ATOM     19  C   UNL     1      -9.704  -0.320  19.955  0.00  0.00    +0.000 A 
ATOM     20  C   UNL     1     -10.397  -2.439  19.066  0.00  0.00    +0.000 A 
ATOM     21  C   UNL     1      -8.924   0.440  20.819  0.00  0.00    +0.000 A 
ATOM     22  C   UNL     1      -8.036  -0.192  21.682  0.00  0.00    +0.000 A 
ATOM     23  C   UNL     1     -10.319  -3.829  19.028  0.00  0.00    +0.000 A 
ATOM     24  C   UNL     1      -9.430  -4.495  19.862  0.00  0.00    +0.000 A 
BRANCH  22  25
ATOM     25  O   UNL     1      -7.310   0.621  22.511  0.00  0.00    +0.000 OA
ATOM     26  H   UNL     1      -7.332   0.229  23.403  0.00  0.00    +0.000 HD
ENDBRANCH  22  25
ENDBRANCH  14  15
ENDBRANCH   1  14
TORSDOF 5
ENDMDL
MODEL 2
REMARK VINA RESULT:      -6.8      0.190      5.074
REMARK  Name = IPA3.pdbqt.pdb
REMARK  5 active torsions:
REMARK  status: ('A' for Active; 'I' for Inactive)
REMARK    1  A    between atoms: S_1  and  S_2
REMARK    2  A    between atoms: S_1  and  C_15
REMARK    3  A    between atoms: S_2  and  C_3
REMARK    4  A    between atoms: C_10  and  O_13
REMARK    5  A    between atoms: C_22  and  O_25
REMARK                            x       y       z     vdW  Elec       q    Type
REMARK                         _______ _______ _______ _____ _____    ______ ____
ROOT
ATOM      1  S   UNL     1      -6.704  -2.245  23.032  0.00  0.00    +0.000 S 
ENDROOT
BRANCH   1   2
ATOM      2  C   UNL     1      -7.826  -1.474  21.857  0.00  0.00    +0.000 A 
ATOM      3  C   UNL     1      -8.568  -2.251  20.934  0.00  0.00    +0.000 A 
ATOM      4  C   UNL     1      -9.458  -1.599  20.049  0.00  0.00    +0.000 A 
ATOM      5  C   UNL     1      -8.482  -3.652  20.853  0.00  0.00    +0.000 A 
ATOM      6  C   UNL     1      -9.590  -0.213  20.072  0.00  0.00    +0.000 A 
ATOM      7  C   UNL     1     -10.222  -2.334  19.144  0.00  0.00    +0.000 A 
ATOM      8  C   UNL     1      -8.848   0.549  20.967  0.00  0.00    +0.000 A 
ATOM      9  C   UNL     1      -7.977  -0.078  21.851  0.00  0.00    +0.000 A 
ATOM     10  C   UNL     1     -10.121  -3.721  19.094  0.00  0.00    +0.000 A 
ATOM     11  C   UNL     1      -9.248  -4.383  19.949  0.00  0.00    +0.000 A 
BRANCH   9  12
ATOM     12  O   UNL     1      -7.288   0.738  22.710  0.00  0.00    +0.000 OA
ATOM     13  H   UNL     1      -7.375   1.652  22.385  0.00  0.00    +0.000 HD
ENDBRANCH   9  12
ENDBRANCH   1   2
BRANCH   1  14
ATOM     14  S   UNL     1      -7.853  -2.281  24.742  0.00  0.00    +0.000 S 
BRANCH  14  15
ATOM     15  C   UNL     1      -9.181  -3.397  24.265  0.00  0.00    +0.000 A 
ATOM     16  C   UNL     1     -10.460  -2.903  23.914  0.00  0.00    +0.000 A 
ATOM     17  C   UNL     1     -11.463  -3.819  23.519  0.00  0.00    +0.000 A 
ATOM     18  C   UNL     1     -10.796  -1.537  23.923  0.00  0.00    +0.000 A 
ATOM     19  C   UNL     1     -11.201  -5.186  23.492  0.00  0.00    +0.000 A 
ATOM     20  C   UNL     1     -12.729  -3.368  23.145  0.00  0.00    +0.000 A 
ATOM     21  C   UNL     1      -9.949  -5.670  23.852  0.00  0.00    +0.000 A 
ATOM     22  C   UNL     1      -8.950  -4.782  24.233  0.00  0.00    +0.000 A 
ATOM     23  C   UNL     1     -13.027  -2.008  23.155  0.00  0.00    +0.000 A 
ATOM     24  C   UNL     1     -12.060  -1.091  23.547  0.00  0.00    +0.000 A 
BRANCH  22  25
ATOM     25  O   UNL     1      -7.739  -5.332  24.564  0.00  0.00    +0.000 OA
ATOM     26  H   UNL     1      -7.859  -5.834  25.391  0.00  0.00    +0.000 HD
ENDBRANCH  22  25
ENDBRANCH  14  15
ENDBRANCH   1  14
TORSDOF 5
ENDMDL
MODEL 3
REMARK VINA RESULT:      -5.9      1.969      3.508
REMARK  Name = IPA3.pdbqt.pdb
REMARK  5 active torsions:
REMARK  status: ('A' for Active; 'I' for Inactive)
REMARK    1  A    between atoms: S_1  and  S_2
REMARK    2  A    between atoms: S_1  and  C_15
REMARK    3  A    between atoms: S_2  and  C_3
REMARK    4  A    between atoms: C_10  and  O_13
REMARK    5  A    between atoms: C_22  and  O_25
REMARK                            x       y       z     vdW  Elec       q    Type
REMARK                         _______ _______ _______ _____ _____    ______ ____
ROOT
ATOM      1  S   UNL     1      -8.799  -4.515  23.640  0.00  0.00    +0.000 S 
ENDROOT
BRANCH   1   2
ATOM      2  C   UNL     1     -10.212  -3.409  23.510  0.00  0.00    +0.000 A 
ATOM      3  C   UNL     1     -10.178  -2.110  24.072  0.00  0.00    +0.000 A 
ATOM      4  C   UNL     1     -11.305  -1.268  23.918  0.00  0.00    +0.000 A 
ATOM      5  C   UNL     1      -9.073  -1.594  24.771  0.00  0.00    +0.000 A 
ATOM      6  C   UNL     1     -12.436  -1.717  23.240  0.00  0.00    +0.000 A 
ATOM      7  C   UNL     1     -11.299   0.026  24.437  0.00  0.00    +0.000 A 
ATOM      8  C   UNL     1     -12.472  -2.998  22.704  0.00  0.00    +0.000 A 
ATOM      9  C   UNL     1     -11.369  -3.834  22.837  0.00  0.00    +0.000 A 
ATOM     10  C   UNL     1     -10.186   0.510  25.118  0.00  0.00    +0.000 A 
ATOM     11  C   UNL     1      -9.071  -0.300  25.287  0.00  0.00    +0.000 A 
BRANCH   9  12
ATOM     12  O   UNL     1     -11.474  -5.078  22.274  0.00  0.00    +0.000 OA
ATOM     13  H   UNL     1     -12.153  -5.031  21.576  0.00  0.00    +0.000 HD
ENDBRANCH   9  12
ENDBRANCH   1   2
BRANCH   1  14
ATOM     14  S   UNL     1      -7.458  -3.631  22.349  0.00  0.00    +0.000 S 
BRANCH  14  15
ATOM     15  C   UNL     1      -8.543  -3.053  21.036  0.00  0.00    +0.000 A 
ATOM     16  C   UNL     1      -8.773  -1.672  20.831  0.00  0.00    +0.000 A 
ATOM     17  C   UNL     1      -9.613  -1.267  19.767  0.00  0.00    +0.000 A 
ATOM     18  C   UNL     1      -8.198  -0.662  21.624  0.00  0.00    +0.000 A 
ATOM     19  C   UNL     1     -10.219  -2.213  18.946  0.00  0.00    +0.000 A 
ATOM     20  C   UNL     1      -9.844   0.086  19.521  0.00  0.00    +0.000 A 
ATOM     21  C   UNL     1     -10.005  -3.570  19.158  0.00  0.00    +0.000 A 
ATOM     22  C   UNL     1      -9.174  -3.983  20.193  0.00  0.00    +0.000 A 
ATOM     23  C   UNL     1      -9.251   1.062  20.318  0.00  0.00    +0.000 A 
ATOM     24  C   UNL     1      -8.429   0.688  21.374  0.00  0.00    +0.000 A 
BRANCH  22  25
ATOM     25  O   UNL     1      -9.004  -5.335  20.335  0.00  0.00    +0.000 OA
ATOM     26  H   UNL     1      -8.950  -5.722  19.441  0.00  0.00    +0.000 HD
ENDBRANCH  22  25
ENDBRANCH  14  15
ENDBRANCH   1  14
TORSDOF 5
ENDMDL
MODEL 4
REMARK VINA RESULT:      -5.7      2.234      3.445
REMARK  Name = IPA3.pdbqt.pdb
REMARK  5 active torsions:
REMARK  status: ('A' for Active; 'I' for Inactive)
REMARK    1  A    between atoms: S_1  and  S_2
REMARK    2  A    between atoms: S_1  and  C_15
REMARK    3  A    between atoms: S_2  and  C_3
REMARK    4  A    between atoms: C_10  and  O_13
REMARK    5  A    between atoms: C_22  and  O_25
REMARK                            x       y       z     vdW  Elec       q    Type
REMARK                         _______ _______ _______ _____ _____    ______ ____
ROOT
ATOM      1  S   UNL     1     -11.536  -1.095  24.574  0.00  0.00    +0.000 S 
ENDROOT
BRANCH   1   2
ATOM      2  C   UNL     1     -11.967  -2.811  24.248  0.00  0.00    +0.000 A 
ATOM      3  C   UNL     1     -11.060  -3.861  24.535  0.00  0.00    +0.000 A 
ATOM      4  C   UNL     1     -11.457  -5.195  24.286  0.00  0.00    +0.000 A 
ATOM      5  C   UNL     1      -9.778  -3.654  25.073  0.00  0.00    +0.000 A 
ATOM      6  C   UNL     1     -12.713  -5.472  23.750  0.00  0.00    +0.000 A 
ATOM      7  C   UNL     1     -10.600  -6.256  24.579  0.00  0.00    +0.000 A 
ATOM      8  C   UNL     1     -13.593  -4.440  23.453  0.00  0.00    +0.000 A 
ATOM      9  C   UNL     1     -13.223  -3.122  23.703  0.00  0.00    +0.000 A 
ATOM     10  C   UNL     1      -9.340  -6.019  25.118  0.00  0.00    +0.000 A 
ATOM     11  C   UNL     1      -8.926  -4.717  25.365  0.00  0.00    +0.000 A 
BRANCH   9  12
ATOM     12  O   UNL     1     -14.147  -2.160  23.394  0.00  0.00    +0.000 OA
ATOM     13  H   UNL     1     -14.885  -2.244  24.025  0.00  0.00    +0.000 HD
ENDBRANCH   9  12
ENDBRANCH   1   2
BRANCH   1  14
ATOM     14  S   UNL     1     -10.969  -0.445  22.703  0.00  0.00    +0.000 S 
BRANCH  14  15
ATOM     15  C   UNL     1      -9.493  -1.429  22.408  0.00  0.00    +0.000 A 
ATOM     16  C   UNL     1      -9.537  -2.588  21.597  0.00  0.00    +0.000 A 
ATOM     17  C   UNL     1      -8.343  -3.313  21.372  0.00  0.00    +0.000 A 
ATOM     18  C   UNL     1     -10.710  -3.064  20.983  0.00  0.00    +0.000 A 
ATOM     19  C   UNL     1      -7.147  -2.902  21.953  0.00  0.00    +0.000 A 
ATOM     20  C   UNL     1      -8.343  -4.447  20.561  0.00  0.00    +0.000 A 
ATOM     21  C   UNL     1      -7.108  -1.772  22.762  0.00  0.00    +0.000 A 
ATOM     22  C   UNL     1      -8.271  -1.044  22.984  0.00  0.00    +0.000 A 
ATOM     23  C   UNL     1      -9.520  -4.887  19.959  0.00  0.00    +0.000 A 
ATOM     24  C   UNL     1     -10.706  -4.195  20.172  0.00  0.00    +0.000 A 
BRANCH  22  25
ATOM     25  O   UNL     1      -8.153   0.063  23.783  0.00  0.00    +0.000 OA
ATOM     26  H   UNL     1      -9.008   0.533  23.765  0.00  0.00    +0.000 HD
ENDBRANCH  22  25
ENDBRANCH  14  15
ENDBRANCH   1  14
TORSDOF 5
ENDMDL
MODEL 5
REMARK VINA RESULT:      -5.4      1.631      4.718
REMARK  Name = IPA3.pdbqt.pdb
REMARK  5 active torsions:
REMARK  status: ('A' for Active; 'I' for Inactive)
REMARK    1  A    between atoms: S_1  and  S_2
REMARK    2  A    between atoms: S_1  and  C_15
REMARK    3  A    between atoms: S_2  and  C_3
REMARK    4  A    between atoms: C_10  and  O_13
REMARK    5  A    between atoms: C_22  and  O_25
REMARK                            x       y       z     vdW  Elec       q    Type
REMARK                         _______ _______ _______ _____ _____    ______ ____
ROOT
ATOM      1  S   UNL     1      -6.946  -1.650  24.078  0.00  0.00    +0.000 S 
ENDROOT
BRANCH   1   2
ATOM      2  C   UNL     1      -7.859  -2.246  22.648  0.00  0.00    +0.000 A 
ATOM      3  C   UNL     1      -8.453  -1.345  21.731  0.00  0.00    +0.000 A 
ATOM      4  C   UNL     1      -9.137  -1.864  20.606  0.00  0.00    +0.000 A 
ATOM      5  C   UNL     1      -8.391   0.053  21.865  0.00  0.00    +0.000 A 
ATOM      6  C   UNL     1      -9.240  -3.239  20.414  0.00  0.00    +0.000 A 
ATOM      7  C   UNL     1      -9.713  -1.006  19.670  0.00  0.00    +0.000 A 
ATOM      8  C   UNL     1      -8.672  -4.121  21.324  0.00  0.00    +0.000 A 
ATOM      9  C   UNL     1      -7.986  -3.627  22.429  0.00  0.00    +0.000 A 
ATOM     10  C   UNL     1      -9.627   0.374  19.827  0.00  0.00    +0.000 A 
ATOM     11  C   UNL     1      -8.966   0.906  20.926  0.00  0.00    +0.000 A 
BRANCH   9  12
ATOM     12  O   UNL     1      -7.444  -4.557  23.276  0.00  0.00    +0.000 OA
ATOM     13  H   UNL     1      -6.548  -4.765  22.954  0.00  0.00    +0.000 HD
ENDBRANCH   9  12
ENDBRANCH   1   2
BRANCH   1  14
ATOM     14  S   UNL     1      -8.472  -1.078  25.338  0.00  0.00    +0.000 S 
BRANCH  14  15
ATOM     15  C   UNL     1      -9.460  -2.578  25.418  0.00  0.00    +0.000 A 
ATOM     16  C   UNL     1     -10.676  -2.693  24.703  0.00  0.00    +0.000 A 
ATOM     17  C   UNL     1     -11.403  -3.905  24.776  0.00  0.00    +0.000 A 
ATOM     18  C   UNL     1     -11.207  -1.665  23.902  0.00  0.00    +0.000 A 
ATOM     19  C   UNL     1     -10.938  -4.961  25.554  0.00  0.00    +0.000 A 
ATOM     20  C   UNL     1     -12.593  -4.062  24.067  0.00  0.00    +0.000 A 
ATOM     21  C   UNL     1      -9.752  -4.842  26.268  0.00  0.00    +0.000 A 
ATOM     22  C   UNL     1      -9.021  -3.661  26.198  0.00  0.00    +0.000 A 
ATOM     23  C   UNL     1     -13.087  -3.029  23.275  0.00  0.00    +0.000 A 
ATOM     24  C   UNL     1     -12.395  -1.827  23.194  0.00  0.00    +0.000 A 
BRANCH  22  25
ATOM     25  O   UNL     1      -7.858  -3.621  26.921  0.00  0.00    +0.000 OA
ATOM     26  H   UNL     1      -8.084  -3.342  27.828  0.00  0.00    +0.000 HD
ENDBRANCH  22  25
ENDBRANCH  14  15
ENDBRANCH   1  14
TORSDOF 5
ENDMDL
MODEL 6
REMARK VINA RESULT:      -5.3     17.999     19.934
REMARK  Name = IPA3.pdbqt.pdb
REMARK  5 active torsions:
REMARK  status: ('A' for Active; 'I' for Inactive)
REMARK    1  A    between atoms: S_1  and  S_2
REMARK    2  A    between atoms: S_1  and  C_15
REMARK    3  A    between atoms: S_2  and  C_3
REMARK    4  A    between atoms: C_10  and  O_13
REMARK    5  A    between atoms: C_22  and  O_25
REMARK                            x       y       z     vdW  Elec       q    Type
REMARK                         _______ _______ _______ _____ _____    ______ ____
ROOT
ATOM      1  S   UNL     1       4.779 -13.517  13.327  0.00  0.00    +0.000 S 
ENDROOT
BRANCH   1   2
ATOM      2  C   UNL     1       4.932 -11.740  13.562  0.00  0.00    +0.000 A 
ATOM      3  C   UNL     1       4.151 -10.833  12.806  0.00  0.00    +0.000 A 
ATOM      4  C   UNL     1       4.287  -9.446  13.049  0.00  0.00    +0.000 A 
ATOM      5  C   UNL     1       3.226 -11.233  11.826  0.00  0.00    +0.000 A 
ATOM      6  C   UNL     1       5.188  -8.979  14.003  0.00  0.00    +0.000 A 
ATOM      7  C   UNL     1       3.518  -8.523  12.340  0.00  0.00    +0.000 A 
ATOM      8  C   UNL     1       5.965  -9.871  14.732  0.00  0.00    +0.000 A 
ATOM      9  C   UNL     1       5.835 -11.239  14.513  0.00  0.00    +0.000 A 
ATOM     10  C   UNL     1       2.604  -8.952  11.382  0.00  0.00    +0.000 A 
ATOM     11  C   UNL     1       2.458 -10.308  11.122  0.00  0.00    +0.000 A 
BRANCH   9  12
ATOM     12  O   UNL     1       6.626 -12.056  15.276  0.00  0.00    +0.000 OA
ATOM     13  H   UNL     1       6.463 -11.838  16.212  0.00  0.00    +0.000 HD
ENDBRANCH   9  12
ENDBRANCH   1   2
BRANCH   1  14
ATOM     14  S   UNL     1       2.915 -13.884  14.124  0.00  0.00    +0.000 S 
BRANCH  14  15
ATOM     15  C   UNL     1       2.554 -15.519  13.468  0.00  0.00    +0.000 A 
ATOM     16  C   UNL     1       2.247 -16.601  14.328  0.00  0.00    +0.000 A 
ATOM     17  C   UNL     1       1.943 -17.861  13.762  0.00  0.00    +0.000 A 
ATOM     18  C   UNL     1       2.214 -16.495  15.730  0.00  0.00    +0.000 A 
ATOM     19  C   UNL     1       1.963 -18.039  12.381  0.00  0.00    +0.000 A 
ATOM     20  C   UNL     1       1.614 -18.944  14.577  0.00  0.00    +0.000 A 
ATOM     21  C   UNL     1       2.279 -16.980  11.539  0.00  0.00    +0.000 A 
ATOM     22  C   UNL     1       2.570 -15.733  12.080  0.00  0.00    +0.000 A 
ATOM     23  C   UNL     1       1.581 -18.804  15.962  0.00  0.00    +0.000 A 
ATOM     24  C   UNL     1       1.883 -17.577  16.540  0.00  0.00    +0.000 A 
BRANCH  22  25
ATOM     25  O   UNL     1       2.863 -14.735  11.187  0.00  0.00    +0.000 OA
ATOM     26  H   UNL     1       2.443 -14.966  10.338  0.00  0.00    +0.000 HD
ENDBRANCH  22  25
ENDBRANCH  14  15
ENDBRANCH   1  14
TORSDOF 5
ENDMDL
MODEL 7
REMARK VINA RESULT:      -5.2     17.028     18.856
REMARK  Name = IPA3.pdbqt.pdb
REMARK  5 active torsions:
REMARK  status: ('A' for Active; 'I' for Inactive)
REMARK    1  A    between atoms: S_1  and  S_2
REMARK    2  A    between atoms: S_1  and  C_15
REMARK    3  A    between atoms: S_2  and  C_3
REMARK    4  A    between atoms: C_10  and  O_13
REMARK    5  A    between atoms: C_22  and  O_25
REMARK                            x       y       z     vdW  Elec       q    Type
REMARK                         _______ _______ _______ _____ _____    ______ ____
ROOT
ATOM      1  S   UNL     1     -22.870  -5.379  11.485  0.00  0.00    +0.000 S 
ENDROOT
BRANCH   1   2
ATOM      2  C   UNL     1     -22.714  -6.034   9.817  0.00  0.00    +0.000 A 
ATOM      3  C   UNL     1     -21.635  -5.658   8.981  0.00  0.00    +0.000 A 
ATOM      4  C   UNL     1     -21.542  -6.223   7.687  0.00  0.00    +0.000 A 
ATOM      5  C   UNL     1     -20.629  -4.756   9.369  0.00  0.00    +0.000 A 
ATOM      6  C   UNL     1     -22.506  -7.121   7.236  0.00  0.00    +0.000 A 
ATOM      7  C   UNL     1     -20.480  -5.895   6.845  0.00  0.00    +0.000 A 
ATOM      8  C   UNL     1     -23.573  -7.476   8.052  0.00  0.00    +0.000 A 
ATOM      9  C   UNL     1     -23.673  -6.937   9.331  0.00  0.00    +0.000 A 
ATOM     10  C   UNL     1     -19.495  -5.004   7.262  0.00  0.00    +0.000 A 
ATOM     11  C   UNL     1     -19.569  -4.432   8.525  0.00  0.00    +0.000 A 
BRANCH   9  12
ATOM     12  O   UNL     1     -24.746  -7.341  10.081  0.00  0.00    +0.000 OA
ATOM     13  H   UNL     1     -24.432  -8.015  10.710  0.00  0.00    +0.000 HD
ENDBRANCH   9  12
ENDBRANCH   1   2
BRANCH   1  14
ATOM     14  S   UNL     1     -24.284  -3.904  11.223  0.00  0.00    +0.000 S 
BRANCH  14  15
ATOM     15  C   UNL     1     -23.298  -2.575  10.520  0.00  0.00    +0.000 A 
ATOM     16  C   UNL     1     -23.194  -2.403   9.119  0.00  0.00    +0.000 A 
ATOM     17  C   UNL     1     -22.428  -1.325   8.616  0.00  0.00    +0.000 A 
ATOM     18  C   UNL     1     -23.824  -3.244   8.183  0.00  0.00    +0.000 A 
ATOM     19  C   UNL     1     -21.773  -0.457   9.484  0.00  0.00    +0.000 A 
ATOM     20  C   UNL     1     -22.321  -1.111   7.242  0.00  0.00    +0.000 A 
ATOM     21  C   UNL     1     -21.864  -0.636  10.860  0.00  0.00    +0.000 A 
ATOM     22  C   UNL     1     -22.621  -1.685  11.370  0.00  0.00    +0.000 A 
ATOM     23  C   UNL     1     -22.966  -1.956   6.341  0.00  0.00    +0.000 A 
ATOM     24  C   UNL     1     -23.717  -3.026   6.813  0.00  0.00    +0.000 A 
BRANCH  22  25
ATOM     25  O   UNL     1     -22.671  -1.792  12.735  0.00  0.00    +0.000 OA
ATOM     26  H   UNL     1     -22.907  -2.713  12.950  0.00  0.00    +0.000 HD
ENDBRANCH  22  25
ENDBRANCH  14  15
ENDBRANCH   1  14
TORSDOF 5
ENDMDL
MODEL 8
REMARK VINA RESULT:      -5.1     21.426     23.989
REMARK  Name = IPA3.pdbqt.pdb
REMARK  5 active torsions:
REMARK  status: ('A' for Active; 'I' for Inactive)
REMARK    1  A    between atoms: S_1  and  S_2
REMARK    2  A    between atoms: S_1  and  C_15
REMARK    3  A    between atoms: S_2  and  C_3
REMARK    4  A    between atoms: C_10  and  O_13
REMARK    5  A    between atoms: C_22  and  O_25
REMARK                            x       y       z     vdW  Elec       q    Type
REMARK                         _______ _______ _______ _____ _____    ______ ____
ROOT
ATOM      1  S   UNL     1      -1.605  -3.947  -2.286  0.00  0.00    +0.000 S 
ENDROOT
BRANCH   1   2
ATOM      2  C   UNL     1      -1.354  -5.655  -1.780  0.00  0.00    +0.000 A 
ATOM      3  C   UNL     1      -0.849  -5.971  -0.496  0.00  0.00    +0.000 A 
ATOM      4  C   UNL     1      -0.697  -7.331  -0.136  0.00  0.00    +0.000 A 
ATOM      5  C   UNL     1      -0.498  -5.003   0.462  0.00  0.00    +0.000 A 
ATOM      6  C   UNL     1      -1.021  -8.342  -1.037  0.00  0.00    +0.000 A 
ATOM      7  C   UNL     1      -0.225  -7.681   1.129  0.00  0.00    +0.000 A 
ATOM      8  C   UNL     1      -1.501  -8.029  -2.302  0.00  0.00    +0.000 A 
ATOM      9  C   UNL     1      -1.667  -6.697  -2.668  0.00  0.00    +0.000 A 
ATOM     10  C   UNL     1       0.106  -6.698   2.057  0.00  0.00    +0.000 A 
ATOM     11  C   UNL     1      -0.029  -5.357   1.724  0.00  0.00    +0.000 A 
BRANCH   9  12
ATOM     12  O   UNL     1      -2.154  -6.466  -3.927  0.00  0.00    +0.000 OA
ATOM     13  H   UNL     1      -3.111  -6.299  -3.849  0.00  0.00    +0.000 HD
ENDBRANCH   9  12
ENDBRANCH   1   2
BRANCH   1  14
ATOM     14  S   UNL     1      -3.641  -3.736  -2.046  0.00  0.00    +0.000 S 
BRANCH  14  15
ATOM     15  C   UNL     1      -3.807  -3.814  -0.257  0.00  0.00    +0.000 A 
ATOM     16  C   UNL     1      -4.228  -5.002   0.387  0.00  0.00    +0.000 A 
ATOM     17  C   UNL     1      -4.316  -5.021   1.799  0.00  0.00    +0.000 A 
ATOM     18  C   UNL     1      -4.557  -6.185  -0.299  0.00  0.00    +0.000 A 
ATOM     19  C   UNL     1      -4.010  -3.884   2.542  0.00  0.00    +0.000 A 
ATOM     20  C   UNL     1      -4.706  -6.180   2.470  0.00  0.00    +0.000 A 
ATOM     21  C   UNL     1      -3.612  -2.714   1.906  0.00  0.00    +0.000 A 
ATOM     22  C   UNL     1      -3.510  -2.683   0.520  0.00  0.00    +0.000 A 
ATOM     23  C   UNL     1      -5.015  -7.338   1.762  0.00  0.00    +0.000 A 
ATOM     24  C   UNL     1      -4.943  -7.340   0.374  0.00  0.00    +0.000 A 
BRANCH  22  25
ATOM     25  O   UNL     1      -3.102  -1.498  -0.034  0.00  0.00    +0.000 OA
ATOM     26  H   UNL     1      -3.799  -1.204  -0.649  0.00  0.00    +0.000 HD
ENDBRANCH  22  25
ENDBRANCH  14  15
ENDBRANCH   1  14
TORSDOF 5
ENDMDL
MODEL 9
REMARK VINA RESULT:      -4.9     20.181     22.695
REMARK  Name = IPA3.pdbqt.pdb
REMARK  5 active torsions:
REMARK  status: ('A' for Active; 'I' for Inactive)
REMARK    1  A    between atoms: S_1  and  S_2
REMARK    2  A    between atoms: S_1  and  C_15
REMARK    3  A    between atoms: S_2  and  C_3
REMARK    4  A    between atoms: C_10  and  O_13
REMARK    5  A    between atoms: C_22  and  O_25
REMARK                            x       y       z     vdW  Elec       q    Type
REMARK                         _______ _______ _______ _____ _____    ______ ____
ROOT
ATOM      1  S   UNL     1      -0.343  -4.228   0.563  0.00  0.00    +0.000 S 
ENDROOT
BRANCH   1   2
ATOM      2  C   UNL     1      -0.403  -3.118   1.977  0.00  0.00    +0.000 A 
ATOM      3  C   UNL     1      -1.635  -2.762   2.576  0.00  0.00    +0.000 A 
ATOM      4  C   UNL     1      -1.627  -1.908   3.704  0.00  0.00    +0.000 A 
ATOM      5  C   UNL     1      -2.883  -3.222   2.120  0.00  0.00    +0.000 A 
ATOM      6  C   UNL     1      -0.426  -1.412   4.207  0.00  0.00    +0.000 A 
ATOM      7  C   UNL     1      -2.819  -1.555   4.335  0.00  0.00    +0.000 A 
ATOM      8  C   UNL     1       0.780  -1.750   3.607  0.00  0.00    +0.000 A 
ATOM      9  C   UNL     1       0.790  -2.597   2.504  0.00  0.00    +0.000 A 
ATOM     10  C   UNL     1      -4.038  -2.035   3.864  0.00  0.00    +0.000 A 
ATOM     11  C   UNL     1      -4.071  -2.868   2.754  0.00  0.00    +0.000 A 
BRANCH   9  12
ATOM     12  O   UNL     1       2.017  -2.893   1.973  0.00  0.00    +0.000 OA
ATOM     13  H   UNL     1       2.330  -3.716   2.390  0.00  0.00    +0.000 HD
ENDBRANCH   9  12
ENDBRANCH   1   2
BRANCH   1  14
ATOM     14  S   UNL     1      -0.462  -6.072   1.475  0.00  0.00    +0.000 S 
BRANCH  14  15
ATOM     15  C   UNL     1      -1.575  -6.953   0.371  0.00  0.00    +0.000 A 
ATOM     16  C   UNL     1      -2.944  -7.118   0.691  0.00  0.00    +0.000 A 
ATOM     17  C   UNL     1      -3.784  -7.795  -0.224  0.00  0.00    +0.000 A 
ATOM     18  C   UNL     1      -3.530  -6.632   1.874  0.00  0.00    +0.000 A 
ATOM     19  C   UNL     1      -3.270  -8.306  -1.411  0.00  0.00    +0.000 A 
ATOM     20  C   UNL     1      -5.143  -7.956   0.047  0.00  0.00    +0.000 A 
ATOM     21  C   UNL     1      -1.922  -8.157  -1.717  0.00  0.00    +0.000 A 
ATOM     22  C   UNL     1      -1.085  -7.486  -0.833  0.00  0.00    +0.000 A 
ATOM     23  C   UNL     1      -5.695  -7.455   1.223  0.00  0.00    +0.000 A 
ATOM     24  C   UNL     1      -4.887  -6.793   2.140  0.00  0.00    +0.000 A 
BRANCH  22  25
ATOM     25  O   UNL     1       0.228  -7.370  -1.206  0.00  0.00    +0.000 OA
ATOM     26  H   UNL     1       0.710  -8.131  -0.833  0.00  0.00    +0.000 HD
ENDBRANCH  22  25
ENDBRANCH  14  15
ENDBRANCH   1  14
TORSDOF 5
ENDMDL
