MODEL 1
REMARK VINA RESULT:      -7.4      0.000      0.000
REMARK  Name = 
REMARK  8 active torsions:
REMARK  status: ('A' for Active; 'I' for Inactive)
REMARK    1  A    between atoms: O_1  and  C_21
REMARK    2  A    between atoms: O_1  and  C_38
REMARK    3  A    between atoms: O_4  and  C_26
REMARK    4  A    between atoms: N_7  and  C_11
REMARK    5  A    between atoms: C_26  and  C_33
REMARK    6  A    between atoms: C_29  and  C_37
REMARK    7  A    between atoms: C_33  and  C_42
REMARK    8  A    between atoms: C_37  and  C_43
REMARK                            x       y       z     vdW  Elec       q    Type
REMARK                         _______ _______ _______ _____ _____    ______ ____
ROOT
ATOM      1  O   UNL     1      -9.180  -4.973  22.398  0.00  0.00    +0.000 OA
ATOM      2  O   UNL     1      -6.828  -1.615  23.369  0.00  0.00    +0.000 OA
ATOM      3  O   UNL     1     -11.220  -5.485  21.608  0.00  0.00    +0.000 OA
ATOM      4  N   UNL     1      -7.889  -0.315  21.803  0.00  0.00    +0.000 N 
ATOM      5  N   UNL     1      -9.496   1.726  19.330  0.00  0.00    +0.000 NA
ATOM      6  C   UNL     1      -8.784  -0.182  20.761  0.00  0.00    +0.000 A 
ATOM      7  C   UNL     1      -7.862   1.900  21.120  0.00  0.00    +0.000 A 
ATOM      8  C   UNL     1      -7.243   0.962  22.115  0.00  0.00    +0.000 C 
ATOM      9  C   UNL     1      -9.300  -2.528  20.943  0.00  0.00    +0.000 A 
ATOM     10  C   UNL     1     -10.047  -3.731  20.424  0.00  0.00    +0.000 C 
ATOM     11  C   UNL     1      -8.770   1.210  20.325  0.00  0.00    +0.000 A 
ATOM     12  C   UNL     1      -8.428  -2.666  21.961  0.00  0.00    +0.000 A 
ATOM     13  C   UNL     1      -7.661   3.255  20.899  0.00  0.00    +0.000 A 
ATOM     14  C   UNL     1      -9.486  -1.226  20.312  0.00  0.00    +0.000 A 
ATOM     15  C   UNL     1      -7.637  -1.494  22.455  0.00  0.00    +0.000 A 
ATOM     16  C   UNL     1      -8.401   3.852  19.838  0.00  0.00    +0.000 A 
ATOM     17  C   UNL     1      -8.176  -3.966  22.640  0.00  0.00    +0.000 C 
ATOM     18  C   UNL     1      -9.308   3.032  19.091  0.00  0.00    +0.000 A 
ATOM     19  C   UNL     1     -10.207  -4.786  21.542  0.00  0.00    +0.000 C 
ATOM     20  C   UNL     1      -9.029   5.736  18.424  0.00  0.00    +0.000 A 
ATOM     21  C   UNL     1      -8.286   5.214  19.482  0.00  0.00    +0.000 A 
ATOM     22  C   UNL     1     -10.043   3.601  18.059  0.00  0.00    +0.000 A 
ATOM     23  C   UNL     1      -9.922   4.949  17.718  0.00  0.00    +0.000 A 
ENDROOT
BRANCH  10  24
ATOM     24  O   UNL     1     -11.355  -3.316  20.004  0.00  0.00    +0.000 OA
ATOM     25  H   UNL     1     -11.531  -3.780  19.161  0.00  0.00    +0.000 HD
ENDBRANCH  10  24
BRANCH  10  26
ATOM     26  C   UNL     1      -9.307  -4.349  19.219  0.00  0.00    +0.000 C 
ATOM     27  C   UNL     1      -9.939  -4.045  17.863  0.00  0.00    +0.000 C 
ENDBRANCH  10  26
BRANCH  13  28
ATOM     28  C   UNL     1      -6.668   4.013  21.746  0.00  0.00    +0.000 C 
ATOM     29  C   UNL     1      -7.308   4.594  22.998  0.00  0.00    +0.000 C 
ENDBRANCH  13  28
BRANCH  20  30
ATOM     30  O   UNL     1      -8.925   7.095  18.126  0.00  0.00    +0.000 OA
BRANCH  30  38
ATOM     31  O   UNL     1     -10.525   7.863  19.614  0.00  0.00    +0.000 OA
ATOM     32  N   UNL     1     -10.579   8.543  17.415  0.00  0.00    +0.000 N 
ATOM     33  C   UNL     1     -12.292   9.197  15.134  0.00  0.00    +0.000 C 
ATOM     34  C   UNL     1     -11.054   8.273  15.021  0.00  0.00    +0.000 C 
ATOM     35  C   UNL     1     -12.815   9.134  16.592  0.00  0.00    +0.000 C 
ATOM     36  C   UNL     1      -9.999   8.571  16.083  0.00  0.00    +0.000 C 
ATOM     37  C   UNL     1     -11.720   9.415  17.617  0.00  0.00    +0.000 C 
ATOM     38  C   UNL     1     -10.047   7.836  18.483  0.00  0.00    +0.000 C 
BRANCH  33  39
ATOM     39  N   UNL     1     -13.357   8.835  14.146  0.00  0.00    +0.000 NA
ATOM     40  C   UNL     1     -13.648   7.386  14.150  0.00  0.00    +0.000 C 
ATOM     41  C   UNL     1     -14.603   9.599  14.362  0.00  0.00    +0.000 C 
ATOM     42  C   UNL     1     -14.713   6.991  13.123  0.00  0.00    +0.000 C 
ATOM     43  C   UNL     1     -15.693   9.260  13.342  0.00  0.00    +0.000 C 
ATOM     44  C   UNL     1     -15.999   7.773  13.327  0.00  0.00    +0.000 C 
ENDBRANCH  33  39
ENDBRANCH  30  38
ENDBRANCH  20  30
TORSDOF 6
ENDMDL
MODEL 2
REMARK VINA RESULT:      -7.3     19.816     22.921
REMARK  Name = 
REMARK  8 active torsions:
REMARK  status: ('A' for Active; 'I' for Inactive)
REMARK    1  A    between atoms: O_1  and  C_21
REMARK    2  A    between atoms: O_1  and  C_38
REMARK    3  A    between atoms: O_4  and  C_26
REMARK    4  A    between atoms: N_7  and  C_11
REMARK    5  A    between atoms: C_26  and  C_33
REMARK    6  A    between atoms: C_29  and  C_37
REMARK    7  A    between atoms: C_33  and  C_42
REMARK    8  A    between atoms: C_37  and  C_43
REMARK                            x       y       z     vdW  Elec       q    Type
REMARK                         _______ _______ _______ _____ _____    ______ ____
ROOT
ATOM      1  O   UNL     1      -0.094   0.359   6.040  0.00  0.00    +0.000 OA
ATOM      2  O   UNL     1      -3.622  -1.401   4.556  0.00  0.00    +0.000 OA
ATOM      3  O   UNL     1       2.051  -0.160   6.463  0.00  0.00    +0.000 OA
ATOM      4  N   UNL     1      -2.439  -2.861   3.237  0.00  0.00    +0.000 N 
ATOM      5  N   UNL     1      -0.616  -5.119   1.129  0.00  0.00    +0.000 NA
ATOM      6  C   UNL     1      -1.241  -3.307   2.717  0.00  0.00    +0.000 A 
ATOM      7  C   UNL     1      -2.894  -4.644   1.829  0.00  0.00    +0.000 A 
ATOM      8  C   UNL     1      -3.565  -3.651   2.733  0.00  0.00    +0.000 C 
ATOM      9  C   UNL     1      -0.093  -1.602   3.975  0.00  0.00    +0.000 A 
ATOM     10  C   UNL     1       1.196  -0.902   4.325  0.00  0.00    +0.000 C 
ATOM     11  C   UNL     1      -1.521  -4.429   1.828  0.00  0.00    +0.000 A 
ATOM     12  C   UNL     1      -1.259  -1.161   4.486  0.00  0.00    +0.000 A 
ATOM     13  C   UNL     1      -3.421  -5.665   1.049  0.00  0.00    +0.000 A 
ATOM     14  C   UNL     1      -0.083  -2.727   3.046  0.00  0.00    +0.000 A 
ATOM     15  C   UNL     1      -2.555  -1.810   4.109  0.00  0.00    +0.000 A 
ATOM     16  C   UNL     1      -2.499  -6.424   0.272  0.00  0.00    +0.000 A 
ATOM     17  C   UNL     1      -1.346  -0.010   5.426  0.00  0.00    +0.000 C 
ATOM     18  C   UNL     1      -1.105  -6.103   0.359  0.00  0.00    +0.000 A 
ATOM     19  C   UNL     1       1.079  -0.224   5.709  0.00  0.00    +0.000 C 
ATOM     20  C   UNL     1      -1.938  -8.174  -1.329  0.00  0.00    +0.000 A 
ATOM     21  C   UNL     1      -2.888  -7.478  -0.584  0.00  0.00    +0.000 A 
ATOM     22  C   UNL     1      -0.192  -6.839  -0.386  0.00  0.00    +0.000 A 
ATOM     23  C   UNL     1      -0.589  -7.879  -1.226  0.00  0.00    +0.000 A 
ENDROOT
BRANCH  10  24
ATOM     24  O   UNL     1       2.247  -1.876   4.386  0.00  0.00    +0.000 OA
ATOM     25  H   UNL     1       2.780  -1.754   3.574  0.00  0.00    +0.000 HD
ENDBRANCH  10  24
BRANCH  10  26
ATOM     26  C   UNL     1       1.548   0.150   3.251  0.00  0.00    +0.000 C 
ATOM     27  C   UNL     1       3.032   0.225   2.902  0.00  0.00    +0.000 C 
ENDBRANCH  10  26
BRANCH  13  28
ATOM     28  C   UNL     1      -4.911  -5.901   1.030  0.00  0.00    +0.000 C 
ATOM     29  C   UNL     1      -5.346  -6.911   2.082  0.00  0.00    +0.000 C 
ENDBRANCH  13  28
BRANCH  20  30
ATOM     30  O   UNL     1      -2.350  -9.238  -2.131  0.00  0.00    +0.000 OA
BRANCH  30  38
ATOM     31  O   UNL     1      -2.493  -8.260  -4.226  0.00  0.00    +0.000 OA
ATOM     32  N   UNL     1      -4.367  -9.182  -3.256  0.00  0.00    +0.000 N 
ATOM     33  C   UNL     1      -7.256  -8.921  -2.866  0.00  0.00    +0.000 C 
ATOM     34  C   UNL     1      -6.272  -9.219  -1.707  0.00  0.00    +0.000 C 
ATOM     35  C   UNL     1      -6.483  -8.169  -3.979  0.00  0.00    +0.000 C 
ATOM     36  C   UNL     1      -5.003  -9.922  -2.180  0.00  0.00    +0.000 C 
ATOM     37  C   UNL     1      -5.211  -8.897  -4.401  0.00  0.00    +0.000 C 
ATOM     38  C   UNL     1      -3.022  -8.845  -3.285  0.00  0.00    +0.000 C 
BRANCH  33  39
ATOM     39  N   UNL     1      -8.454  -8.152  -2.403  0.00  0.00    +0.000 NA
ATOM     40  C   UNL     1      -9.623  -8.363  -3.284  0.00  0.00    +0.000 C 
ATOM     41  C   UNL     1      -8.815  -8.467  -1.005  0.00  0.00    +0.000 C 
ATOM     42  C   UNL     1     -10.850  -7.561  -2.845  0.00  0.00    +0.000 C 
ATOM     43  C   UNL     1     -10.022  -7.668  -0.509  0.00  0.00    +0.000 C 
ATOM     44  C   UNL     1     -11.230  -7.868  -1.407  0.00  0.00    +0.000 C 
ENDBRANCH  33  39
ENDBRANCH  30  38
ENDBRANCH  20  30
TORSDOF 6
ENDMDL
MODEL 3
REMARK VINA RESULT:      -7.2      3.242      6.033
REMARK  Name = 
REMARK  8 active torsions:
REMARK  status: ('A' for Active; 'I' for Inactive)
REMARK    1  A    between atoms: O_1  and  C_21
REMARK    2  A    between atoms: O_1  and  C_38
REMARK    3  A    between atoms: O_4  and  C_26
REMARK    4  A    between atoms: N_7  and  C_11
REMARK    5  A    between atoms: C_26  and  C_33
REMARK    6  A    between atoms: C_29  and  C_37
REMARK    7  A    between atoms: C_33  and  C_42
REMARK    8  A    between atoms: C_37  and  C_43
REMARK                            x       y       z     vdW  Elec       q    Type
REMARK                         _______ _______ _______ _____ _____    ______ ____
ROOT
ATOM      1  O   UNL     1      -9.256  -5.007  22.475  0.00  0.00    +0.000 OA
ATOM      2  O   UNL     1      -6.837  -1.686  23.409  0.00  0.00    +0.000 OA
ATOM      3  O   UNL     1     -11.306  -5.486  21.689  0.00  0.00    +0.000 OA
ATOM      4  N   UNL     1      -7.871  -0.383  21.828  0.00  0.00    +0.000 N 
ATOM      5  N   UNL     1      -9.435   1.662  19.330  0.00  0.00    +0.000 NA
ATOM      6  C   UNL     1      -8.762  -0.243  20.783  0.00  0.00    +0.000 A 
ATOM      7  C   UNL     1      -7.799   1.823  21.119  0.00  0.00    +0.000 A 
ATOM      8  C   UNL     1      -7.199   0.885  22.126  0.00  0.00    +0.000 C 
ATOM      9  C   UNL     1      -9.326  -2.577  20.991  0.00  0.00    +0.000 A 
ATOM     10  C   UNL     1     -10.097  -3.770  20.486  0.00  0.00    +0.000 C 
ATOM     11  C   UNL     1      -8.720   1.143  20.331  0.00  0.00    +0.000 A 
ATOM     12  C   UNL     1      -8.457  -2.720  22.012  0.00  0.00    +0.000 A 
ATOM     13  C   UNL     1      -7.571   3.171  20.884  0.00  0.00    +0.000 A 
ATOM     14  C   UNL     1      -9.485  -1.279  20.346  0.00  0.00    +0.000 A 
ATOM     15  C   UNL     1      -7.643  -1.559  22.493  0.00  0.00    +0.000 A 
ATOM     16  C   UNL     1      -8.298   3.772  19.815  0.00  0.00    +0.000 A 
ATOM     17  C   UNL     1      -8.232  -4.017  22.706  0.00  0.00    +0.000 C 
ATOM     18  C   UNL     1      -9.220   2.962  19.076  0.00  0.00    +0.000 A 
ATOM     19  C   UNL     1     -10.279  -4.809  21.616  0.00  0.00    +0.000 C 
ATOM     20  C   UNL     1      -8.886   5.651  18.380  0.00  0.00    +0.000 A 
ATOM     21  C   UNL     1      -8.155   5.127  19.444  0.00  0.00    +0.000 A 
ATOM     22  C   UNL     1      -9.944   3.533  18.037  0.00  0.00    +0.000 A 
ATOM     23  C   UNL     1      -9.795   4.874  17.682  0.00  0.00    +0.000 A 
ENDROOT
BRANCH  10  24
ATOM     24  O   UNL     1     -11.395  -3.333  20.060  0.00  0.00    +0.000 OA
ATOM     25  H   UNL     1     -11.683  -3.965  19.371  0.00  0.00    +0.000 HD
ENDBRANCH  10  24
BRANCH  10  26
ATOM     26  C   UNL     1      -9.368  -4.417  19.288  0.00  0.00    +0.000 C 
ATOM     27  C   UNL     1      -9.962  -4.072  17.925  0.00  0.00    +0.000 C 
ENDBRANCH  10  26
BRANCH  13  28
ATOM     28  C   UNL     1      -6.563   3.919  21.723  0.00  0.00    +0.000 C 
ATOM     29  C   UNL     1      -5.148   3.774  21.185  0.00  0.00    +0.000 C 
ENDBRANCH  13  28
BRANCH  20  30
ATOM     30  O   UNL     1      -8.755   7.004  18.066  0.00  0.00    +0.000 OA
BRANCH  30  38
ATOM     31  O   UNL     1      -8.563   7.197  15.766  0.00  0.00    +0.000 OA
ATOM     32  N   UNL     1      -6.720   7.532  17.106  0.00  0.00    +0.000 N 
ATOM     33  C   UNL     1      -3.834   7.138  17.379  0.00  0.00    +0.000 C 
ATOM     34  C   UNL     1      -4.840   6.812  18.511  0.00  0.00    +0.000 C 
ATOM     35  C   UNL     1      -4.576   7.031  16.022  0.00  0.00    +0.000 C 
ATOM     36  C   UNL     1      -6.115   7.645  18.422  0.00  0.00    +0.000 C 
ATOM     37  C   UNL     1      -5.855   7.862  15.990  0.00  0.00    +0.000 C 
ATOM     38  C   UNL     1      -8.059   7.243  16.884  0.00  0.00    +0.000 C 
BRANCH  33  39
ATOM     39  N   UNL     1      -2.628   6.251  17.425  0.00  0.00    +0.000 NA
ATOM     40  C   UNL     1      -1.369   7.025  17.393  0.00  0.00    +0.000 C 
ATOM     41  C   UNL     1      -2.638   5.355  18.599  0.00  0.00    +0.000 C 
ATOM     42  C   UNL     1      -0.124   6.134  17.408  0.00  0.00    +0.000 C 
ATOM     43  C   UNL     1      -1.425   4.423  18.646  0.00  0.00    +0.000 C 
ATOM     44  C   UNL     1      -0.122   5.201  18.607  0.00  0.00    +0.000 C 
ENDBRANCH  33  39
ENDBRANCH  30  38
ENDBRANCH  20  30
TORSDOF 6
ENDMDL
MODEL 4
REMARK VINA RESULT:      -6.4     10.557     16.117
REMARK  Name = 
REMARK  8 active torsions:
REMARK  status: ('A' for Active; 'I' for Inactive)
REMARK    1  A    between atoms: O_1  and  C_21
REMARK    2  A    between atoms: O_1  and  C_38
REMARK    3  A    between atoms: O_4  and  C_26
REMARK    4  A    between atoms: N_7  and  C_11
REMARK    5  A    between atoms: C_26  and  C_33
REMARK    6  A    between atoms: C_29  and  C_37
REMARK    7  A    between atoms: C_33  and  C_42
REMARK    8  A    between atoms: C_37  and  C_43
REMARK                            x       y       z     vdW  Elec       q    Type
REMARK                         _______ _______ _______ _____ _____    ______ ____
ROOT
ATOM      1  O   UNL     1     -15.656   7.465  16.669  0.00  0.00    +0.000 OA
ATOM      2  O   UNL     1     -19.726   6.395  16.854  0.00  0.00    +0.000 OA
ATOM      3  O   UNL     1     -13.687   6.659  15.944  0.00  0.00    +0.000 OA
ATOM      4  N   UNL     1     -19.560   5.107  14.961  0.00  0.00    +0.000 N 
ATOM      5  N   UNL     1     -19.340   3.127  11.978  0.00  0.00    +0.000 NA
ATOM      6  C   UNL     1     -18.833   4.650  13.880  0.00  0.00    +0.000 A 
ATOM      7  C   UNL     1     -20.922   3.686  13.736  0.00  0.00    +0.000 A 
ATOM      8  C   UNL     1     -20.915   4.548  14.966  0.00  0.00    +0.000 C 
ATOM      9  C   UNL     1     -16.951   5.953  14.632  0.00  0.00    +0.000 A 
ATOM     10  C   UNL     1     -15.541   6.438  14.405  0.00  0.00    +0.000 C 
ATOM     11  C   UNL     1     -19.686   3.757  13.104  0.00  0.00    +0.000 A 
ATOM     12  C   UNL     1     -17.655   6.403  15.690  0.00  0.00    +0.000 A 
ATOM     13  C   UNL     1     -21.920   2.895  13.186  0.00  0.00    +0.000 A 
ATOM     14  C   UNL     1     -17.569   5.035  13.682  0.00  0.00    +0.000 A 
ATOM     15  C   UNL     1     -19.074   5.975  15.904  0.00  0.00    +0.000 A 
ATOM     16  C   UNL     1     -21.608   2.213  11.975  0.00  0.00    +0.000 A 
ATOM     17  C   UNL     1     -17.094   7.352  16.690  0.00  0.00    +0.000 C 
ATOM     18  C   UNL     1     -20.295   2.367  11.422  0.00  0.00    +0.000 A 
ATOM     19  C   UNL     1     -14.890   6.842  15.747  0.00  0.00    +0.000 C 
ATOM     20  C   UNL     1     -22.165   0.759  10.100  0.00  0.00    +0.000 A 
ATOM     21  C   UNL     1     -22.528   1.390  11.288  0.00  0.00    +0.000 A 
ATOM     22  C   UNL     1     -19.972   1.701  10.246  0.00  0.00    +0.000 A 
ATOM     23  C   UNL     1     -20.889   0.889   9.579  0.00  0.00    +0.000 A 
ENDROOT
BRANCH  10  24
ATOM     24  O   UNL     1     -14.773   5.369  13.834  0.00  0.00    +0.000 OA
ATOM     25  H   UNL     1     -15.277   5.056  13.057  0.00  0.00    +0.000 HD
ENDBRANCH  10  24
BRANCH  10  26
ATOM     26  C   UNL     1     -15.531   7.636  13.433  0.00  0.00    +0.000 C 
ATOM     27  C   UNL     1     -14.317   8.551  13.567  0.00  0.00    +0.000 C 
ENDBRANCH  10  26
BRANCH  13  28
ATOM     28  C   UNL     1     -23.271   2.820  13.855  0.00  0.00    +0.000 C 
ATOM     29  C   UNL     1     -23.312   1.763  14.948  0.00  0.00    +0.000 C 
ENDBRANCH  13  28
BRANCH  20  30
ATOM     30  O   UNL     1     -23.083  -0.082   9.469  0.00  0.00    +0.000 OA
BRANCH  30  38
ATOM     31  O   UNL     1     -22.464  -0.264   7.244  0.00  0.00    +0.000 OA
ATOM     32  N   UNL     1     -22.174  -2.050   8.669  0.00  0.00    +0.000 N 
ATOM     33  C   UNL     1     -22.293  -4.961   8.941  0.00  0.00    +0.000 C 
ATOM     34  C   UNL     1     -22.923  -3.992   9.972  0.00  0.00    +0.000 C 
ATOM     35  C   UNL     1     -22.238  -4.243   7.569  0.00  0.00    +0.000 C 
ATOM     36  C   UNL     1     -22.231  -2.632   9.999  0.00  0.00    +0.000 C 
ATOM     37  C   UNL     1     -21.559  -2.880   7.650  0.00  0.00    +0.000 C 
ATOM     38  C   UNL     1     -22.564  -0.754   8.366  0.00  0.00    +0.000 C 
BRANCH  33  39
ATOM     39  N   UNL     1     -23.037  -6.258   8.861  0.00  0.00    +0.000 NA
ATOM     40  C   UNL     1     -22.220  -7.330   8.255  0.00  0.00    +0.000 C 
ATOM     41  C   UNL     1     -23.543  -6.695  10.179  0.00  0.00    +0.000 C 
ATOM     42  C   UNL     1     -22.974  -8.657   8.136  0.00  0.00    +0.000 C 
ATOM     43  C   UNL     1     -24.329  -8.006  10.109  0.00  0.00    +0.000 C 
ATOM     44  C   UNL     1     -23.506  -9.117   9.482  0.00  0.00    +0.000 C 
ENDBRANCH  33  39
ENDBRANCH  30  38
ENDBRANCH  20  30
TORSDOF 6
ENDMDL
MODEL 5
REMARK VINA RESULT:      -6.4     20.572     25.142
REMARK  Name = 
REMARK  8 active torsions:
REMARK  status: ('A' for Active; 'I' for Inactive)
REMARK    1  A    between atoms: O_1  and  C_21
REMARK    2  A    between atoms: O_1  and  C_38
REMARK    3  A    between atoms: O_4  and  C_26
REMARK    4  A    between atoms: N_7  and  C_11
REMARK    5  A    between atoms: C_26  and  C_33
REMARK    6  A    between atoms: C_29  and  C_37
REMARK    7  A    between atoms: C_33  and  C_42
REMARK    8  A    between atoms: C_37  and  C_43
REMARK                            x       y       z     vdW  Elec       q    Type
REMARK                         _______ _______ _______ _____ _____    ______ ____
ROOT
ATOM      1  O   UNL     1      -3.008 -24.003   6.140  0.00  0.00    +0.000 OA
ATOM      2  O   UNL     1      -6.003 -24.321   9.087  0.00  0.00    +0.000 OA
ATOM      3  O   UNL     1      -2.596 -22.944   4.202  0.00  0.00    +0.000 OA
ATOM      4  N   UNL     1      -6.744 -22.187   8.683  0.00  0.00    +0.000 N 
ATOM      5  N   UNL     1      -7.892 -18.838   8.106  0.00  0.00    +0.000 NA
ATOM      6  C   UNL     1      -6.612 -20.971   8.043  0.00  0.00    +0.000 A 
ATOM      7  C   UNL     1      -8.467 -20.812   9.401  0.00  0.00    +0.000 A 
ATOM      8  C   UNL     1      -7.905 -22.193   9.577  0.00  0.00    +0.000 C 
ATOM      9  C   UNL     1      -4.659 -21.813   6.910  0.00  0.00    +0.000 A 
ATOM     10  C   UNL     1      -3.502 -21.569   5.974  0.00  0.00    +0.000 C 
ATOM     11  C   UNL     1      -7.692 -20.100   8.493  0.00  0.00    +0.000 A 
ATOM     12  C   UNL     1      -4.783 -23.003   7.531  0.00  0.00    +0.000 A 
ATOM     13  C   UNL     1      -9.566 -20.196   9.983  0.00  0.00    +0.000 A 
ATOM     14  C   UNL     1      -5.617 -20.747   7.179  0.00  0.00    +0.000 A 
ATOM     15  C   UNL     1      -5.895 -23.247   8.504  0.00  0.00    +0.000 A 
ATOM     16  C   UNL     1      -9.816 -18.842   9.615  0.00  0.00    +0.000 A 
ATOM     17  C   UNL     1      -3.835 -24.130   7.316  0.00  0.00    +0.000 C 
ATOM     18  C   UNL     1      -8.943 -18.219   8.666  0.00  0.00    +0.000 A 
ATOM     19  C   UNL     1      -3.020 -22.903   5.358  0.00  0.00    +0.000 C 
ATOM     20  C   UNL     1     -11.068 -16.755   9.748  0.00  0.00    +0.000 A 
ATOM     21  C   UNL     1     -10.883 -18.080  10.139  0.00  0.00    +0.000 A 
ATOM     22  C   UNL     1      -9.178 -16.903   8.289  0.00  0.00    +0.000 A 
ATOM     23  C   UNL     1     -10.237 -16.161   8.813  0.00  0.00    +0.000 A 
ENDROOT
BRANCH  10  24
ATOM     24  O   UNL     1      -3.942 -20.713   4.911  0.00  0.00    +0.000 OA
ATOM     25  H   UNL     1      -3.136 -20.443   4.426  0.00  0.00    +0.000 HD
ENDBRANCH  10  24
BRANCH  10  26
ATOM     26  C   UNL     1      -2.338 -20.884   6.721  0.00  0.00    +0.000 C 
ATOM     27  C   UNL     1      -1.092 -20.648   5.871  0.00  0.00    +0.000 C 
ENDBRANCH  10  26
BRANCH  13  28
ATOM     28  C   UNL     1     -10.408 -20.953  10.981  0.00  0.00    +0.000 C 
ATOM     29  C   UNL     1     -11.526 -21.737  10.310  0.00  0.00    +0.000 C 
ENDBRANCH  13  28
BRANCH  20  30
ATOM     30  O   UNL     1     -12.157 -16.043  10.252  0.00  0.00    +0.000 OA
BRANCH  30  38
ATOM     31  O   UNL     1     -13.974 -17.151   9.337  0.00  0.00    +0.000 OA
ATOM     32  N   UNL     1     -13.710 -17.066  11.623  0.00  0.00    +0.000 N 
ATOM     33  C   UNL     1     -15.076 -16.821  14.200  0.00  0.00    +0.000 C 
ATOM     34  C   UNL     1     -13.819 -15.993  13.829  0.00  0.00    +0.000 C 
ATOM     35  C   UNL     1     -15.808 -17.206  12.889  0.00  0.00    +0.000 C 
ATOM     36  C   UNL     1     -12.939 -16.692  12.796  0.00  0.00    +0.000 C 
ATOM     37  C   UNL     1     -14.884 -17.878  11.880  0.00  0.00    +0.000 C 
ATOM     38  C   UNL     1     -13.332 -16.786  10.318  0.00  0.00    +0.000 C 
BRANCH  33  39
ATOM     39  N   UNL     1     -15.975 -16.085  15.144  0.00  0.00    +0.000 NA
ATOM     40  C   UNL     1     -16.875 -15.149  14.438  0.00  0.00    +0.000 C 
ATOM     41  C   UNL     1     -16.767 -17.003  15.990  0.00  0.00    +0.000 C 
ATOM     42  C   UNL     1     -17.781 -14.364  15.390  0.00  0.00    +0.000 C 
ATOM     43  C   UNL     1     -17.672 -16.266  16.980  0.00  0.00    +0.000 C 
ATOM     44  C   UNL     1     -18.598 -15.293  16.271  0.00  0.00    +0.000 C 
ENDBRANCH  33  39
ENDBRANCH  30  38
ENDBRANCH  20  30
TORSDOF 6
ENDMDL
MODEL 6
REMARK VINA RESULT:      -6.3      8.924     16.743
REMARK  Name = 
REMARK  8 active torsions:
REMARK  status: ('A' for Active; 'I' for Inactive)
REMARK    1  A    between atoms: O_1  and  C_21
REMARK    2  A    between atoms: O_1  and  C_38
REMARK    3  A    between atoms: O_4  and  C_26
REMARK    4  A    between atoms: N_7  and  C_11
REMARK    5  A    between atoms: C_26  and  C_33
REMARK    6  A    between atoms: C_29  and  C_37
REMARK    7  A    between atoms: C_33  and  C_42
REMARK    8  A    between atoms: C_37  and  C_43
REMARK                            x       y       z     vdW  Elec       q    Type
REMARK                         _______ _______ _______ _____ _____    ______ ____
ROOT
ATOM      1  O   UNL     1     -12.194  -2.942  22.233  0.00  0.00    +0.000 OA
ATOM      2  O   UNL     1     -12.501  -6.678  24.157  0.00  0.00    +0.000 OA
ATOM      3  O   UNL     1     -11.346  -0.888  22.570  0.00  0.00    +0.000 OA
ATOM      4  N   UNL     1     -10.542  -6.342  25.304  0.00  0.00    +0.000 N 
ATOM      5  N   UNL     1      -7.458  -5.865  27.073  0.00  0.00    +0.000 NA
ATOM      6  C   UNL     1      -9.410  -5.593  25.552  0.00  0.00    +0.000 A 
ATOM      7  C   UNL     1      -9.308  -7.434  26.934  0.00  0.00    +0.000 A 
ATOM      8  C   UNL     1     -10.577  -7.545  26.140  0.00  0.00    +0.000 C 
ATOM      9  C   UNL     1     -10.143  -3.993  23.907  0.00  0.00    +0.000 A 
ATOM     10  C   UNL     1      -9.880  -2.731  23.123  0.00  0.00    +0.000 C 
ATOM     11  C   UNL     1      -8.627  -6.277  26.576  0.00  0.00    +0.000 A 
ATOM     12  C   UNL     1     -11.251  -4.719  23.659  0.00  0.00    +0.000 A 
ATOM     13  C   UNL     1      -8.763  -8.270  27.899  0.00  0.00    +0.000 A 
ATOM     14  C   UNL     1      -9.176  -4.451  24.898  0.00  0.00    +0.000 A 
ATOM     15  C   UNL     1     -11.505  -6.002  24.390  0.00  0.00    +0.000 A 
ATOM     16  C   UNL     1      -7.507  -7.884  28.451  0.00  0.00    +0.000 A 
ATOM     17  C   UNL     1     -12.272  -4.320  22.652  0.00  0.00    +0.000 C 
ATOM     18  C   UNL     1      -6.907  -6.665  27.997  0.00  0.00    +0.000 A 
ATOM     19  C   UNL     1     -11.211  -2.111  22.641  0.00  0.00    +0.000 C 
ATOM     20  C   UNL     1      -5.589  -8.218  29.916  0.00  0.00    +0.000 A 
ATOM     21  C   UNL     1      -6.821  -8.644  29.424  0.00  0.00    +0.000 A 
ATOM     22  C   UNL     1      -5.687  -6.270  28.532  0.00  0.00    +0.000 A 
ATOM     23  C   UNL     1      -5.020  -7.028  29.495  0.00  0.00    +0.000 A 
ENDROOT
BRANCH  10  24
ATOM     24  O   UNL     1      -9.224  -1.786  23.979  0.00  0.00    +0.000 OA
ATOM     25  H   UNL     1      -8.267  -1.974  23.912  0.00  0.00    +0.000 HD
ENDBRANCH  10  24
BRANCH  10  26
ATOM     26  C   UNL     1      -8.968  -3.027  21.913  0.00  0.00    +0.000 C 
ATOM     27  C   UNL     1      -8.055  -1.872  21.511  0.00  0.00    +0.000 C 
ENDBRANCH  10  26
BRANCH  13  28
ATOM     28  C   UNL     1      -9.485  -9.537  28.288  0.00  0.00    +0.000 C 
ATOM     29  C   UNL     1     -10.491  -9.304  29.406  0.00  0.00    +0.000 C 
ENDBRANCH  13  28
BRANCH  20  30
ATOM     30  O   UNL     1      -4.957  -8.969  30.908  0.00  0.00    +0.000 OA
BRANCH  30  38
ATOM     31  O   UNL     1      -3.653  -7.613  32.259  0.00  0.00    +0.000 OA
ATOM     32  N   UNL     1      -2.666  -8.896  30.621  0.00  0.00    +0.000 N 
ATOM     33  C   UNL     1      -0.558  -9.014  28.595  0.00  0.00    +0.000 C 
ATOM     34  C   UNL     1      -2.022  -9.435  28.314  0.00  0.00    +0.000 C 
ATOM     35  C   UNL     1      -0.561  -7.980  29.750  0.00  0.00    +0.000 C 
ATOM     36  C   UNL     1      -2.752  -9.896  29.572  0.00  0.00    +0.000 C 
ATOM     37  C   UNL     1      -1.323  -8.476  30.975  0.00  0.00    +0.000 C 
ATOM     38  C   UNL     1      -3.752  -8.425  31.344  0.00  0.00    +0.000 C 
BRANCH  33  39
ATOM     39  N   UNL     1       0.119  -8.479  27.372  0.00  0.00    +0.000 NA
ATOM     40  C   UNL     1       0.193  -7.002  27.380  0.00  0.00    +0.000 C 
ATOM     41  C   UNL     1       1.469  -9.049  27.185  0.00  0.00    +0.000 C 
ATOM     42  C   UNL     1       0.854  -6.433  26.122  0.00  0.00    +0.000 C 
ATOM     43  C   UNL     1       2.164  -8.531  25.923  0.00  0.00    +0.000 C 
ATOM     44  C   UNL     1       2.241  -7.015  25.911  0.00  0.00    +0.000 C 
ENDBRANCH  33  39
ENDBRANCH  30  38
ENDBRANCH  20  30
TORSDOF 6
ENDMDL
MODEL 7
REMARK VINA RESULT:      -6.3      4.405     13.137
REMARK  Name = 
REMARK  8 active torsions:
REMARK  status: ('A' for Active; 'I' for Inactive)
REMARK    1  A    between atoms: O_1  and  C_21
REMARK    2  A    between atoms: O_1  and  C_38
REMARK    3  A    between atoms: O_4  and  C_26
REMARK    4  A    between atoms: N_7  and  C_11
REMARK    5  A    between atoms: C_26  and  C_33
REMARK    6  A    between atoms: C_29  and  C_37
REMARK    7  A    between atoms: C_33  and  C_42
REMARK    8  A    between atoms: C_37  and  C_43
REMARK                            x       y       z     vdW  Elec       q    Type
REMARK                         _______ _______ _______ _____ _____    ______ ____
ROOT
ATOM      1  O   UNL     1      -8.771   7.219  19.821  0.00  0.00    +0.000 OA
ATOM      2  O   UNL     1     -11.288   5.074  22.431  0.00  0.00    +0.000 OA
ATOM      3  O   UNL     1      -6.721   7.098  18.908  0.00  0.00    +0.000 OA
ATOM      4  N   UNL     1     -10.333   3.072  21.841  0.00  0.00    +0.000 N 
ATOM      5  N   UNL     1      -8.893  -0.076  20.901  0.00  0.00    +0.000 NA
ATOM      6  C   UNL     1      -9.469   2.341  21.053  0.00  0.00    +0.000 A 
ATOM      7  C   UNL     1     -10.498   0.848  22.474  0.00  0.00    +0.000 A 
ATOM      8  C   UNL     1     -11.044   2.211  22.790  0.00  0.00    +0.000 C 
ATOM      9  C   UNL     1      -8.817   4.374  19.934  0.00  0.00    +0.000 A 
ATOM     10  C   UNL     1      -8.014   5.054  18.854  0.00  0.00    +0.000 C 
ATOM     11  C   UNL     1      -9.569   0.940  21.445  0.00  0.00    +0.000 A 
ATOM     12  C   UNL     1      -9.660   5.094  20.701  0.00  0.00    +0.000 A 
ATOM     13  C   UNL     1     -10.780  -0.394  23.025  0.00  0.00    +0.000 A 
ATOM     14  C   UNL     1      -8.718   2.930  20.117  0.00  0.00    +0.000 A 
ATOM     15  C   UNL     1     -10.505   4.428  21.743  0.00  0.00    +0.000 A 
ATOM     16  C   UNL     1     -10.096  -1.515  22.471  0.00  0.00    +0.000 A 
ATOM     17  C   UNL     1      -9.825   6.566  20.559  0.00  0.00    +0.000 C 
ATOM     18  C   UNL     1      -9.160  -1.288  21.410  0.00  0.00    +0.000 A 
ATOM     19  C   UNL     1      -7.773   6.537  19.219  0.00  0.00    +0.000 C 
ATOM     20  C   UNL     1      -9.604  -3.897  22.320  0.00  0.00    +0.000 A 
ATOM     21  C   UNL     1     -10.295  -2.841  22.912  0.00  0.00    +0.000 A 
ATOM     22  C   UNL     1      -8.478  -2.369  20.865  0.00  0.00    +0.000 A 
ATOM     23  C   UNL     1      -8.682  -3.675  21.311  0.00  0.00    +0.000 A 
ENDROOT
BRANCH  10  24
ATOM     24  O   UNL     1      -6.741   4.402  18.747  0.00  0.00    +0.000 OA
ATOM     25  H   UNL     1      -6.431   4.258  19.663  0.00  0.00    +0.000 HD
ENDBRANCH  10  24
BRANCH  10  26
ATOM     26  C   UNL     1      -8.743   4.958  17.497  0.00  0.00    +0.000 C 
ATOM     27  C   UNL     1      -8.797   6.267  16.713  0.00  0.00    +0.000 C 
ENDBRANCH  10  26
BRANCH  13  28
ATOM     28  C   UNL     1     -11.797  -0.510  24.134  0.00  0.00    +0.000 C 
ATOM     29  C   UNL     1     -13.205  -0.724  23.602  0.00  0.00    +0.000 C 
ENDBRANCH  13  28
BRANCH  20  30
ATOM     30  O   UNL     1      -9.790  -5.191  22.808  0.00  0.00    +0.000 OA
BRANCH  30  38
ATOM     31  O   UNL     1      -8.249  -5.185  24.537  0.00  0.00    +0.000 OA
ATOM     32  N   UNL     1     -10.445  -5.737  24.956  0.00  0.00    +0.000 N 
ATOM     33  C   UNL     1     -12.248  -7.463  26.483  0.00  0.00    +0.000 C 
ATOM     34  C   UNL     1     -12.395  -7.230  24.958  0.00  0.00    +0.000 C 
ATOM     35  C   UNL     1     -10.764  -7.242  26.869  0.00  0.00    +0.000 C 
ATOM     36  C   UNL     1     -11.820  -5.889  24.511  0.00  0.00    +0.000 C 
ATOM     37  C   UNL     1     -10.228  -5.900  26.381  0.00  0.00    +0.000 C 
ATOM     38  C   UNL     1      -9.396  -5.353  24.134  0.00  0.00    +0.000 C 
BRANCH  33  39
ATOM     39  N   UNL     1     -12.733  -8.819  26.893  0.00  0.00    +0.000 NA
ATOM     40  C   UNL     1     -14.096  -8.771  27.465  0.00  0.00    +0.000 C 
ATOM     41  C   UNL     1     -12.690  -9.789  25.780  0.00  0.00    +0.000 C 
ATOM     42  C   UNL     1     -14.598 -10.144  27.920  0.00  0.00    +0.000 C 
ATOM     43  C   UNL     1     -13.158 -11.187  26.191  0.00  0.00    +0.000 C 
ATOM     44  C   UNL     1     -14.553 -11.155  26.788  0.00  0.00    +0.000 C 
ENDBRANCH  33  39
ENDBRANCH  30  38
ENDBRANCH  20  30
TORSDOF 6
ENDMDL
MODEL 8
REMARK VINA RESULT:      -6.2     19.331     22.733
REMARK  Name = 
REMARK  8 active torsions:
REMARK  status: ('A' for Active; 'I' for Inactive)
REMARK    1  A    between atoms: O_1  and  C_21
REMARK    2  A    between atoms: O_1  and  C_38
REMARK    3  A    between atoms: O_4  and  C_26
REMARK    4  A    between atoms: N_7  and  C_11
REMARK    5  A    between atoms: C_26  and  C_33
REMARK    6  A    between atoms: C_29  and  C_37
REMARK    7  A    between atoms: C_33  and  C_42
REMARK    8  A    between atoms: C_37  and  C_43
REMARK                            x       y       z     vdW  Elec       q    Type
REMARK                         _______ _______ _______ _____ _____    ______ ____
ROOT
ATOM      1  O   UNL     1       1.188 -21.946  13.301  0.00  0.00    +0.000 OA
ATOM      2  O   UNL     1       2.126 -19.373  16.503  0.00  0.00    +0.000 OA
ATOM      3  O   UNL     1       0.380 -21.875  11.205  0.00  0.00    +0.000 OA
ATOM      4  N   UNL     1       2.584 -17.632  15.079  0.00  0.00    +0.000 N 
ATOM      5  N   UNL     1       3.352 -14.908  12.876  0.00  0.00    +0.000 NA
ATOM      6  C   UNL     1       2.747 -17.138  13.801  0.00  0.00    +0.000 A 
ATOM      7  C   UNL     1       3.144 -15.389  15.248  0.00  0.00    +0.000 A 
ATOM      8  C   UNL     1       2.814 -16.591  16.085  0.00  0.00    +0.000 C 
ATOM      9  C   UNL     1       2.222 -19.319  12.922  0.00  0.00    +0.000 A 
ATOM     10  C   UNL     1       2.077 -20.232  11.731  0.00  0.00    +0.000 C 
ATOM     11  C   UNL     1       3.102 -15.727  13.901  0.00  0.00    +0.000 A 
ATOM     12  C   UNL     1       2.061 -19.809  14.168  0.00  0.00    +0.000 A 
ATOM     13  C   UNL     1       3.467 -14.089  15.612  0.00  0.00    +0.000 A 
ATOM     14  C   UNL     1       2.583 -17.920  12.729  0.00  0.00    +0.000 A 
ATOM     15  C   UNL     1       2.253 -18.931  15.366  0.00  0.00    +0.000 A 
ATOM     16  C   UNL     1       3.758 -13.178  14.556  0.00  0.00    +0.000 A 
ATOM     17  C   UNL     1       1.708 -21.229  14.440  0.00  0.00    +0.000 C 
ATOM     18  C   UNL     1       3.679 -13.649  13.205  0.00  0.00    +0.000 A 
ATOM     19  C   UNL     1       1.127 -21.404  12.066  0.00  0.00    +0.000 C 
ATOM     20  C   UNL     1       4.407 -10.992  13.695  0.00  0.00    +0.000 A 
ATOM     21  C   UNL     1       4.122 -11.831  14.771  0.00  0.00    +0.000 A 
ATOM     22  C   UNL     1       3.951 -12.771  12.163  0.00  0.00    +0.000 A 
ATOM     23  C   UNL     1       4.308 -11.442  12.389  0.00  0.00    +0.000 A 
ENDROOT
BRANCH  10  24
ATOM     24  O   UNL     1       1.508 -19.486  10.646  0.00  0.00    +0.000 OA
ATOM     25  H   UNL     1       1.450 -18.559  10.953  0.00  0.00    +0.000 HD
ENDBRANCH  10  24
BRANCH  10  26
ATOM     26  C   UNL     1       3.454 -20.778  11.296  0.00  0.00    +0.000 C 
ATOM     27  C   UNL     1       3.646 -20.881   9.786  0.00  0.00    +0.000 C 
ENDBRANCH  10  26
BRANCH  13  28
ATOM     28  C   UNL     1       3.529 -13.712  17.072  0.00  0.00    +0.000 C 
ATOM     29  C   UNL     1       2.157 -13.380  17.638  0.00  0.00    +0.000 C 
ENDBRANCH  13  28
BRANCH  20  30
ATOM     30  O   UNL     1       4.721  -9.655  13.940  0.00  0.00    +0.000 OA
BRANCH  30  38
ATOM     31  O   UNL     1       7.007 -10.027  13.963  0.00  0.00    +0.000 OA
ATOM     32  N   UNL     1       6.162  -8.113  12.999  0.00  0.00    +0.000 N 
ATOM     33  C   UNL     1       6.568  -5.247  12.575  0.00  0.00    +0.000 C 
ATOM     34  C   UNL     1       5.214  -5.848  13.028  0.00  0.00    +0.000 C 
ATOM     35  C   UNL     1       7.701  -6.201  13.028  0.00  0.00    +0.000 C 
ATOM     36  C   UNL     1       5.036  -7.297  12.581  0.00  0.00    +0.000 C 
ATOM     37  C   UNL     1       7.467  -7.640  12.579  0.00  0.00    +0.000 C 
ATOM     38  C   UNL     1       6.044  -9.328  13.659  0.00  0.00    +0.000 C 
BRANCH  33  39
ATOM     39  N   UNL     1       6.768  -3.858  13.096  0.00  0.00    +0.000 NA
ATOM     40  C   UNL     1       7.061  -3.846  14.546  0.00  0.00    +0.000 C 
ATOM     41  C   UNL     1       7.828  -3.133  12.364  0.00  0.00    +0.000 C 
ATOM     42  C   UNL     1       7.240  -2.432  15.105  0.00  0.00    +0.000 C 
ATOM     43  C   UNL     1       8.027  -1.702  12.868  0.00  0.00    +0.000 C 
ATOM     44  C   UNL     1       8.321  -1.671  14.357  0.00  0.00    +0.000 C 
ENDBRANCH  33  39
ENDBRANCH  30  38
ENDBRANCH  20  30
TORSDOF 6
ENDMDL
MODEL 9
REMARK VINA RESULT:      -6.0      9.617     18.088
REMARK  Name = 
REMARK  8 active torsions:
REMARK  status: ('A' for Active; 'I' for Inactive)
REMARK    1  A    between atoms: O_1  and  C_21
REMARK    2  A    between atoms: O_1  and  C_38
REMARK    3  A    between atoms: O_4  and  C_26
REMARK    4  A    between atoms: N_7  and  C_11
REMARK    5  A    between atoms: C_26  and  C_33
REMARK    6  A    between atoms: C_29  and  C_37
REMARK    7  A    between atoms: C_33  and  C_42
REMARK    8  A    between atoms: C_37  and  C_43
REMARK                            x       y       z     vdW  Elec       q    Type
REMARK                         _______ _______ _______ _____ _____    ______ ____
ROOT
ATOM      1  O   UNL     1     -12.163  -3.942  22.439  0.00  0.00    +0.000 OA
ATOM      2  O   UNL     1     -12.464  -7.215  25.076  0.00  0.00    +0.000 OA
ATOM      3  O   UNL     1     -11.161  -1.938  22.279  0.00  0.00    +0.000 OA
ATOM      4  N   UNL     1     -10.367  -6.830  25.925  0.00  0.00    +0.000 N 
ATOM      5  N   UNL     1      -7.073  -6.283  27.236  0.00  0.00    +0.000 NA
ATOM      6  C   UNL     1      -9.171  -6.143  25.903  0.00  0.00    +0.000 A 
ATOM      7  C   UNL     1      -9.017  -7.695  27.600  0.00  0.00    +0.000 A 
ATOM      8  C   UNL     1     -10.375  -7.849  26.979  0.00  0.00    +0.000 C 
ATOM      9  C   UNL     1      -9.996  -4.824  24.063  0.00  0.00    +0.000 A 
ATOM     10  C   UNL     1      -9.752  -3.757  23.026  0.00  0.00    +0.000 C 
ATOM     11  C   UNL     1      -8.315  -6.684  26.954  0.00  0.00    +0.000 A 
ATOM     12  C   UNL     1     -11.167  -5.492  24.079  0.00  0.00    +0.000 A 
ATOM     13  C   UNL     1      -8.413  -8.377  28.646  0.00  0.00    +0.000 A 
ATOM     14  C   UNL     1      -8.948  -5.166  25.018  0.00  0.00    +0.000 A 
ATOM     15  C   UNL     1     -11.408  -6.591  25.067  0.00  0.00    +0.000 A 
ATOM     16  C   UNL     1      -7.080  -7.998  28.979  0.00  0.00    +0.000 A 
ATOM     17  C   UNL     1     -12.273  -5.207  23.125  0.00  0.00    +0.000 C 
ATOM     18  C   UNL     1      -6.465  -6.938  28.237  0.00  0.00    +0.000 A 
ATOM     19  C   UNL     1     -11.091  -3.132  22.574  0.00  0.00    +0.000 C 
ATOM     20  C   UNL     1      -5.026  -8.207  30.273  0.00  0.00    +0.000 A 
ATOM     21  C   UNL     1      -6.331  -8.615  30.005  0.00  0.00    +0.000 A 
ATOM     22  C   UNL     1      -5.170  -6.550  28.554  0.00  0.00    +0.000 A 
ATOM     23  C   UNL     1      -4.441  -7.166  29.571  0.00  0.00    +0.000 A 
ENDROOT
BRANCH  10  24
ATOM     24  O   UNL     1      -8.945  -2.724  23.608  0.00  0.00    +0.000 OA
ATOM     25  H   UNL     1      -9.443  -1.890  23.492  0.00  0.00    +0.000 HD
ENDBRANCH  10  24
BRANCH  10  26
ATOM     26  C   UNL     1      -9.008  -4.347  21.808  0.00  0.00    +0.000 C 
ATOM     27  C   UNL     1      -8.356  -3.308  20.900  0.00  0.00    +0.000 C 
ENDBRANCH  10  26
BRANCH  13  28
ATOM     28  C   UNL     1      -9.158  -9.486  29.348  0.00  0.00    +0.000 C 
ATOM     29  C   UNL     1      -9.016 -10.819  28.628  0.00  0.00    +0.000 C 
ENDBRANCH  13  28
BRANCH  20  30
ATOM     30  O   UNL     1      -4.328  -8.807  31.322  0.00  0.00    +0.000 OA
BRANCH  30  38
ATOM     31  O   UNL     1      -3.437 -10.705  30.336  0.00  0.00    +0.000 OA
ATOM     32  N   UNL     1      -4.927 -10.906  32.080  0.00  0.00    +0.000 N 
ATOM     33  C   UNL     1      -7.161 -12.446  33.177  0.00  0.00    +0.000 C 
ATOM     34  C   UNL     1      -7.161 -10.898  33.100  0.00  0.00    +0.000 C 
ATOM     35  C   UNL     1      -6.226 -12.988  32.066  0.00  0.00    +0.000 C 
ATOM     36  C   UNL     1      -5.753 -10.309  33.116  0.00  0.00    +0.000 C 
ATOM     37  C   UNL     1      -4.840 -12.353  32.107  0.00  0.00    +0.000 C 
ATOM     38  C   UNL     1      -4.166 -10.182  31.175  0.00  0.00    +0.000 C 
BRANCH  33  39
ATOM     39  N   UNL     1      -8.542 -13.014  33.070  0.00  0.00    +0.000 NA
ATOM     40  C   UNL     1      -9.509 -12.288  33.919  0.00  0.00    +0.000 C 
ATOM     41  C   UNL     1      -9.025 -13.048  31.674  0.00  0.00    +0.000 C 
ATOM     42  C   UNL     1     -10.921 -12.874  33.847  0.00  0.00    +0.000 C 
ATOM     43  C   UNL     1     -10.426 -13.652  31.544  0.00  0.00    +0.000 C 
ATOM     44  C   UNL     1     -11.431 -12.921  32.417  0.00  0.00    +0.000 C 
ENDBRANCH  33  39
ENDBRANCH  30  38
ENDBRANCH  20  30
TORSDOF 6
ENDMDL
