MODEL 1
REMARK VINA RESULT:      -8.0      0.000      0.000
REMARK  Name = 
REMARK  8 active torsions:
REMARK  status: ('A' for Active; 'I' for Inactive)
REMARK    1  A    between atoms: O_1  and  C_21
REMARK    2  A    between atoms: O_1  and  C_38
REMARK    3  A    between atoms: O_4  and  C_26
REMARK    4  A    between atoms: N_7  and  C_11
REMARK    5  A    between atoms: C_26  and  C_33
REMARK    6  A    between atoms: C_29  and  C_37
REMARK    7  A    between atoms: C_33  and  C_42
REMARK    8  A    between atoms: C_37  and  C_43
REMARK                            x       y       z     vdW  Elec       q    Type
REMARK                         _______ _______ _______ _____ _____    ______ ____
ROOT
ATOM      1  O   UNL     1     -21.297   2.770  22.188  0.00  0.00    +0.000 OA
ATOM      2  O   UNL     1     -19.641   1.580  25.875  0.00  0.00    +0.000 OA
ATOM      3  O   UNL     1     -20.657   3.444  20.142  0.00  0.00    +0.000 OA
ATOM      4  N   UNL     1     -17.753   0.762  24.857  0.00  0.00    +0.000 N 
ATOM      5  N   UNL     1     -14.815  -0.571  23.290  0.00  0.00    +0.000 NA
ATOM      6  C   UNL     1     -17.045   0.450  23.715  0.00  0.00    +0.000 A 
ATOM      7  C   UNL     1     -15.727  -0.160  25.504  0.00  0.00    +0.000 A 
ATOM      8  C   UNL     1     -16.998   0.412  26.064  0.00  0.00    +0.000 C 
ATOM      9  C   UNL     1     -18.873   1.289  22.388  0.00  0.00    +0.000 A 
ATOM     10  C   UNL     1     -19.482   1.524  21.028  0.00  0.00    +0.000 C 
ATOM     11  C   UNL     1     -15.769  -0.133  24.115  0.00  0.00    +0.000 A 
ATOM     12  C   UNL     1     -19.570   1.596  23.500  0.00  0.00    +0.000 A 
ATOM     13  C   UNL     1     -14.607  -0.678  26.138  0.00  0.00    +0.000 A 
ATOM     14  C   UNL     1     -17.549   0.687  22.500  0.00  0.00    +0.000 A 
ATOM     15  C   UNL     1     -19.004   1.321  24.859  0.00  0.00    +0.000 A 
ATOM     16  C   UNL     1     -13.564  -1.174  25.303  0.00  0.00    +0.000 A 
ATOM     17  C   UNL     1     -20.931   2.197  23.461  0.00  0.00    +0.000 C 
ATOM     18  C   UNL     1     -13.728  -1.088  23.882  0.00  0.00    +0.000 A 
ATOM     19  C   UNL     1     -20.512   2.674  21.094  0.00  0.00    +0.000 C 
ATOM     20  C   UNL     1     -11.398  -2.227  24.933  0.00  0.00    +0.000 A 
ATOM     21  C   UNL     1     -12.375  -1.748  25.803  0.00  0.00    +0.000 A 
ATOM     22  C   UNL     1     -12.717  -1.558  23.053  0.00  0.00    +0.000 A 
ATOM     23  C   UNL     1     -11.546  -2.122  23.560  0.00  0.00    +0.000 A 
ENDROOT
BRANCH  10  24
ATOM     24  O   UNL     1     -18.441   1.900  20.116  0.00  0.00    +0.000 OA
ATOM     25  H   UNL     1     -18.252   2.844  20.292  0.00  0.00    +0.000 HD
ENDBRANCH  10  24
BRANCH  10  26
ATOM     26  C   UNL     1     -20.161   0.238  20.511  0.00  0.00    +0.000 C 
ATOM     27  C   UNL     1     -20.251   0.137  18.991  0.00  0.00    +0.000 C 
ENDBRANCH  10  26
BRANCH  13  28
ATOM     28  C   UNL     1     -14.554  -0.726  27.646  0.00  0.00    +0.000 C 
ATOM     29  C   UNL     1     -15.239  -1.964  28.205  0.00  0.00    +0.000 C 
ENDBRANCH  13  28
BRANCH  20  30
ATOM     30  O   UNL     1     -10.216  -2.749  25.459  0.00  0.00    +0.000 OA
BRANCH  30  38
ATOM     31  O   UNL     1      -8.426  -1.447  24.775  0.00  0.00    +0.000 OA
ATOM     32  N   UNL     1      -8.796  -3.500  23.797  0.00  0.00    +0.000 N 
ATOM     33  C   UNL     1      -8.716  -5.033  21.306  0.00  0.00    +0.000 C 
ATOM     34  C   UNL     1      -9.927  -5.058  22.273  0.00  0.00    +0.000 C 
ATOM     35  C   UNL     1      -7.972  -3.686  21.493  0.00  0.00    +0.000 C 
ATOM     36  C   UNL     1      -9.533  -4.749  23.715  0.00  0.00    +0.000 C 
ATOM     37  C   UNL     1      -7.622  -3.410  22.951  0.00  0.00    +0.000 C 
ATOM     38  C   UNL     1      -9.089  -2.477  24.688  0.00  0.00    +0.000 C 
BRANCH  33  39
ATOM     39  N   UNL     1      -9.129  -5.248  19.883  0.00  0.00    +0.000 NA
ATOM     40  C   UNL     1      -9.513  -3.984  19.219  0.00  0.00    +0.000 C 
ATOM     41  C   UNL     1      -8.082  -5.932  19.095  0.00  0.00    +0.000 C 
ATOM     42  C   UNL     1      -9.967  -4.187  17.772  0.00  0.00    +0.000 C 
ATOM     43  C   UNL     1      -8.500  -6.183  17.644  0.00  0.00    +0.000 C 
ATOM     44  C   UNL     1      -8.905  -4.895  16.950  0.00  0.00    +0.000 C 
ENDBRANCH  33  39
ENDBRANCH  30  38
ENDBRANCH  20  30
TORSDOF 6
ENDMDL
MODEL 2
REMARK VINA RESULT:      -7.8     20.674     24.920
REMARK  Name = 
REMARK  8 active torsions:
REMARK  status: ('A' for Active; 'I' for Inactive)
REMARK    1  A    between atoms: O_1  and  C_21
REMARK    2  A    between atoms: O_1  and  C_38
REMARK    3  A    between atoms: O_4  and  C_26
REMARK    4  A    between atoms: N_7  and  C_11
REMARK    5  A    between atoms: C_26  and  C_33
REMARK    6  A    between atoms: C_29  and  C_37
REMARK    7  A    between atoms: C_33  and  C_42
REMARK    8  A    between atoms: C_37  and  C_43
REMARK                            x       y       z     vdW  Elec       q    Type
REMARK                         _______ _______ _______ _____ _____    ______ ____
ROOT
ATOM      1  O   UNL     1      -7.331 -10.436  -2.047  0.00  0.00    +0.000 OA
ATOM      2  O   UNL     1      -3.274  -9.346  -1.722  0.00  0.00    +0.000 OA
ATOM      3  O   UNL     1      -9.258 -10.288  -0.902  0.00  0.00    +0.000 OA
ATOM      4  N   UNL     1      -3.782  -7.524  -0.422  0.00  0.00    +0.000 N 
ATOM      5  N   UNL     1      -4.550  -4.641   1.569  0.00  0.00    +0.000 NA
ATOM      6  C   UNL     1      -4.711  -6.685   0.159  0.00  0.00    +0.000 A 
ATOM      7  C   UNL     1      -2.632  -5.876   0.734  0.00  0.00    +0.000 A 
ATOM      8  C   UNL     1      -2.414  -7.096  -0.114  0.00  0.00    +0.000 C 
ATOM      9  C   UNL     1      -6.472  -8.030  -0.788  0.00  0.00    +0.000 A 
ATOM     10  C   UNL     1      -7.946  -8.258  -1.012  0.00  0.00    +0.000 C 
ATOM     11  C   UNL     1      -3.994  -5.644   0.886  0.00  0.00    +0.000 A 
ATOM     12  C   UNL     1      -5.570  -8.853  -1.358  0.00  0.00    +0.000 A 
ATOM     13  C   UNL     1      -1.726  -5.013   1.335  0.00  0.00    +0.000 A 
ATOM     14  C   UNL     1      -6.023  -6.892   0.006  0.00  0.00    +0.000 A 
ATOM     15  C   UNL     1      -4.101  -8.612  -1.190  0.00  0.00    +0.000 A 
ATOM     16  C   UNL     1      -2.268  -3.915   2.064  0.00  0.00    +0.000 A 
ATOM     17  C   UNL     1      -5.956 -10.023  -2.193  0.00  0.00    +0.000 C 
ATOM     18  C   UNL     1      -3.693  -3.786   2.148  0.00  0.00    +0.000 A 
ATOM     19  C   UNL     1      -8.221  -9.753  -1.296  0.00  0.00    +0.000 C 
ATOM     20  C   UNL     1      -2.063  -1.886   3.398  0.00  0.00    +0.000 A 
ATOM     21  C   UNL     1      -1.472  -2.944   2.710  0.00  0.00    +0.000 A 
ATOM     22  C   UNL     1      -4.237  -2.727   2.862  0.00  0.00    +0.000 A 
ATOM     23  C   UNL     1      -3.440  -1.775   3.498  0.00  0.00    +0.000 A 
ENDROOT
BRANCH  10  24
ATOM     24  O   UNL     1      -8.656  -7.886   0.177  0.00  0.00    +0.000 OA
ATOM     25  H   UNL     1      -8.167  -8.287   0.924  0.00  0.00    +0.000 HD
ENDBRANCH  10  24
BRANCH  10  26
ATOM     26  C   UNL     1      -8.453  -7.397  -2.189  0.00  0.00    +0.000 C 
ATOM     27  C   UNL     1      -9.770  -6.674  -1.922  0.00  0.00    +0.000 C 
ENDBRANCH  10  26
BRANCH  13  28
ATOM     28  C   UNL     1      -0.244  -5.245   1.167  0.00  0.00    +0.000 C 
ATOM     29  C   UNL     1       0.270  -6.350   2.078  0.00  0.00    +0.000 C 
ENDBRANCH  13  28
BRANCH  20  30
ATOM     30  O   UNL     1      -1.250  -0.967   4.062  0.00  0.00    +0.000 OA
BRANCH  30  38
ATOM     31  O   UNL     1      -2.149  -1.702   6.066  0.00  0.00    +0.000 OA
ATOM     32  N   UNL     1      -0.954   0.265   5.994  0.00  0.00    +0.000 N 
ATOM     33  C   UNL     1      -0.748   3.000   7.015  0.00  0.00    +0.000 C 
ATOM     34  C   UNL     1      -0.638   2.652   5.509  0.00  0.00    +0.000 C 
ATOM     35  C   UNL     1      -1.593   1.901   7.708  0.00  0.00    +0.000 C 
ATOM     36  C   UNL     1      -0.142   1.228   5.270  0.00  0.00    +0.000 C 
ATOM     37  C   UNL     1      -1.074   0.496   7.421  0.00  0.00    +0.000 C 
ATOM     38  C   UNL     1      -1.504  -0.875   5.427  0.00  0.00    +0.000 C 
BRANCH  33  39
ATOM     39  N   UNL     1      -1.321   4.365   7.236  0.00  0.00    +0.000 NA
ATOM     40  C   UNL     1      -2.718   4.309   7.716  0.00  0.00    +0.000 C 
ATOM     41  C   UNL     1      -0.502   5.171   8.165  0.00  0.00    +0.000 C 
ATOM     42  C   UNL     1      -3.333   5.697   7.919  0.00  0.00    +0.000 C 
ATOM     43  C   UNL     1      -1.061   6.580   8.380  0.00  0.00    +0.000 C 
ATOM     44  C   UNL     1      -2.499   6.541   8.867  0.00  0.00    +0.000 C 
ENDBRANCH  33  39
ENDBRANCH  30  38
ENDBRANCH  20  30
TORSDOF 6
ENDMDL
MODEL 3
REMARK VINA RESULT:      -7.8      7.488     11.893
REMARK  Name = 
REMARK  8 active torsions:
REMARK  status: ('A' for Active; 'I' for Inactive)
REMARK    1  A    between atoms: O_1  and  C_21
REMARK    2  A    between atoms: O_1  and  C_38
REMARK    3  A    between atoms: O_4  and  C_26
REMARK    4  A    between atoms: N_7  and  C_11
REMARK    5  A    between atoms: C_26  and  C_33
REMARK    6  A    between atoms: C_29  and  C_37
REMARK    7  A    between atoms: C_33  and  C_42
REMARK    8  A    between atoms: C_37  and  C_43
REMARK                            x       y       z     vdW  Elec       q    Type
REMARK                         _______ _______ _______ _____ _____    ______ ____
ROOT
ATOM      1  O   UNL     1      -9.053  -4.982  22.398  0.00  0.00    +0.000 OA
ATOM      2  O   UNL     1      -6.675  -1.641  23.365  0.00  0.00    +0.000 OA
ATOM      3  O   UNL     1     -11.114  -5.480  21.654  0.00  0.00    +0.000 OA
ATOM      4  N   UNL     1      -7.777  -0.314  21.851  0.00  0.00    +0.000 N 
ATOM      5  N   UNL     1      -9.448   1.770  19.457  0.00  0.00    +0.000 NA
ATOM      6  C   UNL     1      -8.699  -0.162  20.835  0.00  0.00    +0.000 A 
ATOM      7  C   UNL     1      -7.767   1.912  21.206  0.00  0.00    +0.000 A 
ATOM      8  C   UNL     1      -7.122   0.958  22.168  0.00  0.00    +0.000 C 
ATOM      9  C   UNL     1      -9.211  -2.512  20.990  0.00  0.00    +0.000 A 
ATOM     10  C   UNL     1      -9.972  -3.706  20.470  0.00  0.00    +0.000 C 
ATOM     11  C   UNL     1      -8.696   1.237  20.424  0.00  0.00    +0.000 A 
ATOM     12  C   UNL     1      -8.312  -2.667  21.981  0.00  0.00    +0.000 A 
ATOM     13  C   UNL     1      -7.572   3.272  21.004  0.00  0.00    +0.000 A 
ATOM     14  C   UNL     1      -9.413  -1.199  20.387  0.00  0.00    +0.000 A 
ATOM     15  C   UNL     1      -7.508  -1.504  22.475  0.00  0.00    +0.000 A 
ATOM     16  C   UNL     1      -8.339   3.887  19.973  0.00  0.00    +0.000 A 
ATOM     17  C   UNL     1      -8.043  -3.979  22.631  0.00  0.00    +0.000 C 
ATOM     18  C   UNL     1      -9.266   3.081  19.236  0.00  0.00    +0.000 A 
ATOM     19  C   UNL     1     -10.103  -4.780  21.573  0.00  0.00    +0.000 C 
ATOM     20  C   UNL     1      -9.004   5.795  18.611  0.00  0.00    +0.000 A 
ATOM     21  C   UNL     1      -8.233   5.255  19.639  0.00  0.00    +0.000 A 
ATOM     22  C   UNL     1     -10.028   3.668  18.235  0.00  0.00    +0.000 A 
ATOM     23  C   UNL     1      -9.916   5.021  17.915  0.00  0.00    +0.000 A 
ENDROOT
BRANCH  10  24
ATOM     24  O   UNL     1     -11.290  -3.283  20.092  0.00  0.00    +0.000 OA
ATOM     25  H   UNL     1     -11.344  -3.393  19.122  0.00  0.00    +0.000 HD
ENDBRANCH  10  24
BRANCH  10  26
ATOM     26  C   UNL     1      -9.264  -4.302  19.235  0.00  0.00    +0.000 C 
ATOM     27  C   UNL     1      -9.936  -3.980  17.903  0.00  0.00    +0.000 C 
ENDBRANCH  10  26
BRANCH  13  28
ATOM     28  C   UNL     1      -6.556   4.015  21.837  0.00  0.00    +0.000 C 
ATOM     29  C   UNL     1      -7.167   4.595  23.104  0.00  0.00    +0.000 C 
ENDBRANCH  13  28
BRANCH  20  30
ATOM     30  O   UNL     1      -8.907   7.160  18.334  0.00  0.00    +0.000 OA
BRANCH  30  38
ATOM     31  O   UNL     1      -9.994   8.127  20.136  0.00  0.00    +0.000 OA
ATOM     32  N   UNL     1     -10.804   8.437  18.002  0.00  0.00    +0.000 N 
ATOM     33  C   UNL     1     -13.204   8.673  16.346  0.00  0.00    +0.000 C 
ATOM     34  C   UNL     1     -12.005   7.768  15.968  0.00  0.00    +0.000 C 
ATOM     35  C   UNL     1     -13.223   8.839  17.887  0.00  0.00    +0.000 C 
ATOM     36  C   UNL     1     -10.689   8.258  16.565  0.00  0.00    +0.000 C 
ATOM     37  C   UNL     1     -11.880   9.306  18.439  0.00  0.00    +0.000 C 
ATOM     38  C   UNL     1      -9.906   7.926  18.928  0.00  0.00    +0.000 C 
BRANCH  33  39
ATOM     39  N   UNL     1     -14.501   8.132  15.829  0.00  0.00    +0.000 NA
ATOM     40  C   UNL     1     -14.431   7.801  14.390  0.00  0.00    +0.000 C 
ATOM     41  C   UNL     1     -14.960   6.954  16.594  0.00  0.00    +0.000 C 
ATOM     42  C   UNL     1     -15.757   7.275  13.835  0.00  0.00    +0.000 C 
ATOM     43  C   UNL     1     -16.299   6.406  16.095  0.00  0.00    +0.000 C 
ATOM     44  C   UNL     1     -16.246   6.067  14.616  0.00  0.00    +0.000 C 
ENDBRANCH  33  39
ENDBRANCH  30  38
ENDBRANCH  20  30
TORSDOF 6
ENDMDL
MODEL 4
REMARK VINA RESULT:      -7.4      9.422     12.865
REMARK  Name = 
REMARK  8 active torsions:
REMARK  status: ('A' for Active; 'I' for Inactive)
REMARK    1  A    between atoms: O_1  and  C_21
REMARK    2  A    between atoms: O_1  and  C_38
REMARK    3  A    between atoms: O_4  and  C_26
REMARK    4  A    between atoms: N_7  and  C_11
REMARK    5  A    between atoms: C_26  and  C_33
REMARK    6  A    between atoms: C_29  and  C_37
REMARK    7  A    between atoms: C_33  and  C_42
REMARK    8  A    between atoms: C_37  and  C_43
REMARK                            x       y       z     vdW  Elec       q    Type
REMARK                         _______ _______ _______ _____ _____    ______ ____
ROOT
ATOM      1  O   UNL     1      -9.310  -5.003  22.605  0.00  0.00    +0.000 OA
ATOM      2  O   UNL     1      -6.961  -1.642  23.574  0.00  0.00    +0.000 OA
ATOM      3  O   UNL     1     -11.317  -5.517  21.735  0.00  0.00    +0.000 OA
ATOM      4  N   UNL     1      -7.929  -0.384  21.916  0.00  0.00    +0.000 N 
ATOM      5  N   UNL     1      -9.388   1.590  19.300  0.00  0.00    +0.000 NA
ATOM      6  C   UNL     1      -8.771  -0.276  20.828  0.00  0.00    +0.000 A 
ATOM      7  C   UNL     1      -7.839   1.805  21.160  0.00  0.00    +0.000 A 
ATOM      8  C   UNL     1      -7.281   0.896  22.216  0.00  0.00    +0.000 C 
ATOM      9  C   UNL     1      -9.327  -2.609  21.064  0.00  0.00    +0.000 A 
ATOM     10  C   UNL     1     -10.064  -3.820  20.550  0.00  0.00    +0.000 C 
ATOM     11  C   UNL     1      -8.717   1.100  20.346  0.00  0.00    +0.000 A 
ATOM     12  C   UNL     1      -8.506  -2.722  22.127  0.00  0.00    +0.000 A 
ATOM     13  C   UNL     1      -7.609   3.150  20.904  0.00  0.00    +0.000 A 
ATOM     14  C   UNL     1      -9.465  -1.327  20.381  0.00  0.00    +0.000 A 
ATOM     15  C   UNL     1      -7.724  -1.543  22.619  0.00  0.00    +0.000 A 
ATOM     16  C   UNL     1      -8.289   3.719  19.789  0.00  0.00    +0.000 A 
ATOM     17  C   UNL     1      -8.305  -4.000  22.861  0.00  0.00    +0.000 C 
ATOM     18  C   UNL     1      -9.170   2.885  19.027  0.00  0.00    +0.000 A 
ATOM     19  C   UNL     1     -10.292  -4.834  21.694  0.00  0.00    +0.000 C 
ATOM     20  C   UNL     1      -8.823   5.560  18.284  0.00  0.00    +0.000 A 
ATOM     21  C   UNL     1      -8.139   5.066  19.393  0.00  0.00    +0.000 A 
ATOM     22  C   UNL     1      -9.848   3.427  17.942  0.00  0.00    +0.000 A 
ATOM     23  C   UNL     1      -9.692   4.760  17.562  0.00  0.00    +0.000 A 
ENDROOT
BRANCH  10  24
ATOM     24  O   UNL     1     -11.344  -3.403  20.054  0.00  0.00    +0.000 OA
ATOM     25  H   UNL     1     -11.849  -3.089  20.831  0.00  0.00    +0.000 HD
ENDBRANCH  10  24
BRANCH  10  26
ATOM     26  C   UNL     1      -9.275  -4.487  19.404  0.00  0.00    +0.000 C 
ATOM     27  C   UNL     1      -9.832  -4.213  18.009  0.00  0.00    +0.000 C 
ENDBRANCH  10  26
BRANCH  13  28
ATOM     28  C   UNL     1      -6.648   3.925  21.772  0.00  0.00    +0.000 C 
ATOM     29  C   UNL     1      -5.227   3.889  21.229  0.00  0.00    +0.000 C 
ENDBRANCH  13  28
BRANCH  20  30
ATOM     30  O   UNL     1      -8.686   6.907  17.945  0.00  0.00    +0.000 OA
BRANCH  30  38
ATOM     31  O   UNL     1      -6.878   6.779  16.503  0.00  0.00    +0.000 OA
ATOM     32  N   UNL     1      -8.838   7.767  15.806  0.00  0.00    +0.000 N 
ATOM     33  C   UNL     1     -10.019   9.936  14.237  0.00  0.00    +0.000 C 
ATOM     34  C   UNL     1     -10.478   9.591  15.675  0.00  0.00    +0.000 C 
ATOM     35  C   UNL     1      -8.547   9.480  14.072  0.00  0.00    +0.000 C 
ATOM     36  C   UNL     1     -10.226   8.129  16.037  0.00  0.00    +0.000 C 
ATOM     37  C   UNL     1      -8.341   8.021  14.468  0.00  0.00    +0.000 C 
ATOM     38  C   UNL     1      -8.036   7.119  16.733  0.00  0.00    +0.000 C 
BRANCH  33  39
ATOM     39  N   UNL     1     -10.188  11.391  13.927  0.00  0.00    +0.000 NA
ATOM     40  C   UNL     1     -11.334  11.983  14.650  0.00  0.00    +0.000 C 
ATOM     41  C   UNL     1      -8.963  12.168  14.205  0.00  0.00    +0.000 C 
ATOM     42  C   UNL     1     -11.543  13.464  14.323  0.00  0.00    +0.000 C 
ATOM     43  C   UNL     1      -9.111  13.654  13.868  0.00  0.00    +0.000 C 
ATOM     44  C   UNL     1     -10.289  14.276  14.598  0.00  0.00    +0.000 C 
ENDBRANCH  33  39
ENDBRANCH  30  38
ENDBRANCH  20  30
TORSDOF 6
ENDMDL
MODEL 5
REMARK VINA RESULT:      -7.3      5.802     11.919
REMARK  Name = 
REMARK  8 active torsions:
REMARK  status: ('A' for Active; 'I' for Inactive)
REMARK    1  A    between atoms: O_1  and  C_21
REMARK    2  A    between atoms: O_1  and  C_38
REMARK    3  A    between atoms: O_4  and  C_26
REMARK    4  A    between atoms: N_7  and  C_11
REMARK    5  A    between atoms: C_26  and  C_33
REMARK    6  A    between atoms: C_29  and  C_37
REMARK    7  A    between atoms: C_33  and  C_42
REMARK    8  A    between atoms: C_37  and  C_43
REMARK                            x       y       z     vdW  Elec       q    Type
REMARK                         _______ _______ _______ _____ _____    ______ ____
ROOT
ATOM      1  O   UNL     1      -0.089  -0.256  25.994  0.00  0.00    +0.000 OA
ATOM      2  O   UNL     1      -3.885  -0.507  27.804  0.00  0.00    +0.000 OA
ATOM      3  O   UNL     1       1.057  -1.100  24.254  0.00  0.00    +0.000 OA
ATOM      4  N   UNL     1      -4.897  -1.005  25.805  0.00  0.00    +0.000 N 
ATOM      5  N   UNL     1      -6.513  -1.736  22.687  0.00  0.00    +0.000 NA
ATOM      6  C   UNL     1      -4.838  -1.159  24.435  0.00  0.00    +0.000 A 
ATOM      7  C   UNL     1      -7.016  -1.575  25.059  0.00  0.00    +0.000 A 
ATOM      8  C   UNL     1      -6.251  -1.251  26.309  0.00  0.00    +0.000 C 
ATOM      9  C   UNL     1      -2.490  -0.621  24.507  0.00  0.00    +0.000 A 
ATOM     10  C   UNL     1      -1.198  -0.370  23.769  0.00  0.00    +0.000 C 
ATOM     11  C   UNL     1      -6.169  -1.516  23.959  0.00  0.00    +0.000 A 
ATOM     12  C   UNL     1      -2.541  -0.469  25.845  0.00  0.00    +0.000 A 
ATOM     13  C   UNL     1      -8.353  -1.895  24.868  0.00  0.00    +0.000 A 
ATOM     14  C   UNL     1      -3.694  -0.981  23.766  0.00  0.00    +0.000 A 
ATOM     15  C   UNL     1      -3.827  -0.662  26.589  0.00  0.00    +0.000 A 
ATOM     16  C   UNL     1      -8.776  -2.125  23.527  0.00  0.00    +0.000 A 
ATOM     17  C   UNL     1      -1.357  -0.088  26.662  0.00  0.00    +0.000 C 
ATOM     18  C   UNL     1      -7.804  -2.034  22.479  0.00  0.00    +0.000 A 
ATOM     19  C   UNL     1       0.009  -0.628  24.699  0.00  0.00    +0.000 C 
ATOM     20  C   UNL     1     -10.461  -2.640  21.843  0.00  0.00    +0.000 A 
ATOM     21  C   UNL     1     -10.108  -2.439  23.176  0.00  0.00    +0.000 A 
ATOM     22  C   UNL     1      -8.198  -2.265  21.167  0.00  0.00    +0.000 A 
ATOM     23  C   UNL     1      -9.516  -2.576  20.833  0.00  0.00    +0.000 A 
ENDROOT
BRANCH  10  24
ATOM     24  O   UNL     1      -1.117  -1.277  22.661  0.00  0.00    +0.000 OA
ATOM     25  H   UNL     1      -2.028  -1.369  22.317  0.00  0.00    +0.000 HD
ENDBRANCH  10  24
BRANCH  10  26
ATOM     26  C   UNL     1      -1.153   1.078  23.236  0.00  0.00    +0.000 C 
ATOM     27  C   UNL     1      -1.549   1.226  21.770  0.00  0.00    +0.000 C 
ENDBRANCH  10  26
BRANCH  13  28
ATOM     28  C   UNL     1      -9.287  -1.951  26.052  0.00  0.00    +0.000 C 
ATOM     29  C   UNL     1      -9.345  -3.338  26.674  0.00  0.00    +0.000 C 
ENDBRANCH  13  28
BRANCH  20  30
ATOM     30  O   UNL     1     -11.776  -2.991  21.534  0.00  0.00    +0.000 OA
BRANCH  30  38
ATOM     31  O   UNL     1     -13.308  -2.249  23.104  0.00  0.00    +0.000 OA
ATOM     32  N   UNL     1     -12.516  -4.410  23.201  0.00  0.00    +0.000 N 
ATOM     33  C   UNL     1     -11.675  -6.593  24.958  0.00  0.00    +0.000 C 
ATOM     34  C   UNL     1     -10.856  -6.142  23.723  0.00  0.00    +0.000 C 
ATOM     35  C   UNL     1     -12.515  -5.388  25.452  0.00  0.00    +0.000 C 
ATOM     36  C   UNL     1     -11.724  -5.494  22.647  0.00  0.00    +0.000 C 
ATOM     37  C   UNL     1     -13.346  -4.759  24.338  0.00  0.00    +0.000 C 
ATOM     38  C   UNL     1     -12.595  -3.140  22.649  0.00  0.00    +0.000 C 
BRANCH  33  39
ATOM     39  N   UNL     1     -10.801  -7.144  26.042  0.00  0.00    +0.000 NA
ATOM     40  C   UNL     1      -9.366  -7.041  25.703  0.00  0.00    +0.000 C 
ATOM     41  C   UNL     1     -11.057  -6.500  27.347  0.00  0.00    +0.000 C 
ATOM     42  C   UNL     1      -8.456  -7.627  26.786  0.00  0.00    +0.000 C 
ATOM     43  C   UNL     1     -10.189  -7.070  28.472  0.00  0.00    +0.000 C 
ATOM     44  C   UNL     1      -8.711  -6.980  28.136  0.00  0.00    +0.000 C 
ENDBRANCH  33  39
ENDBRANCH  30  38
ENDBRANCH  20  30
TORSDOF 6
ENDMDL
MODEL 6
REMARK VINA RESULT:      -7.2      9.555     15.303
REMARK  Name = 
REMARK  8 active torsions:
REMARK  status: ('A' for Active; 'I' for Inactive)
REMARK    1  A    between atoms: O_1  and  C_21
REMARK    2  A    between atoms: O_1  and  C_38
REMARK    3  A    between atoms: O_4  and  C_26
REMARK    4  A    between atoms: N_7  and  C_11
REMARK    5  A    between atoms: C_26  and  C_33
REMARK    6  A    between atoms: C_29  and  C_37
REMARK    7  A    between atoms: C_33  and  C_42
REMARK    8  A    between atoms: C_37  and  C_43
REMARK                            x       y       z     vdW  Elec       q    Type
REMARK                         _______ _______ _______ _____ _____    ______ ____
ROOT
ATOM      1  O   UNL     1     -23.601  -6.450   7.870  0.00  0.00    +0.000 OA
ATOM      2  O   UNL     1     -24.693  -4.562  11.475  0.00  0.00    +0.000 OA
ATOM      3  O   UNL     1     -22.895  -5.944   5.798  0.00  0.00    +0.000 OA
ATOM      4  N   UNL     1     -23.300  -2.785  11.063  0.00  0.00    +0.000 N 
ATOM      5  N   UNL     1     -21.094  -0.020  10.469  0.00  0.00    +0.000 NA
ATOM      6  C   UNL     1     -22.326  -2.176  10.298  0.00  0.00    +0.000 A 
ATOM      7  C   UNL     1     -22.792  -0.749  12.046  0.00  0.00    +0.000 A 
ATOM      8  C   UNL     1     -23.673  -1.953  12.210  0.00  0.00    +0.000 C 
ATOM      9  C   UNL     1     -22.352  -4.069   8.808  0.00  0.00    +0.000 A 
ATOM     10  C   UNL     1     -21.785  -4.771   7.599  0.00  0.00    +0.000 C 
ATOM     11  C   UNL     1     -22.001  -0.894  10.913  0.00  0.00    +0.000 A 
ATOM     12  C   UNL     1     -23.303  -4.670   9.550  0.00  0.00    +0.000 A 
ATOM     13  C   UNL     1     -22.668   0.398  12.818  0.00  0.00    +0.000 A 
ATOM     14  C   UNL     1     -21.838  -2.762   9.201  0.00  0.00    +0.000 A 
ATOM     15  C   UNL     1     -23.841  -4.013  10.784  0.00  0.00    +0.000 A 
ATOM     16  C   UNL     1     -21.702   1.358  12.396  0.00  0.00    +0.000 A 
ATOM     17  C   UNL     1     -23.862  -6.009   9.219  0.00  0.00    +0.000 C 
ATOM     18  C   UNL     1     -20.948   1.091  11.208  0.00  0.00    +0.000 A 
ATOM     19  C   UNL     1     -22.824  -5.753   7.013  0.00  0.00    +0.000 C 
ATOM     20  C   UNL     1     -20.481   3.453  12.632  0.00  0.00    +0.000 A 
ATOM     21  C   UNL     1     -21.449   2.561  13.090  0.00  0.00    +0.000 A 
ATOM     22  C   UNL     1     -20.009   2.020  10.777  0.00  0.00    +0.000 A 
ATOM     23  C   UNL     1     -19.769   3.206  11.471  0.00  0.00    +0.000 A 
ENDROOT
BRANCH  10  24
ATOM     24  O   UNL     1     -21.478  -3.789   6.600  0.00  0.00    +0.000 OA
ATOM     25  H   UNL     1     -20.685  -4.118   6.130  0.00  0.00    +0.000 HD
ENDBRANCH  10  24
BRANCH  10  26
ATOM     26  C   UNL     1     -20.494  -5.529   7.971  0.00  0.00    +0.000 C 
ATOM     27  C   UNL     1     -19.206  -4.756   7.704  0.00  0.00    +0.000 C 
ENDBRANCH  10  26
BRANCH  13  28
ATOM     28  C   UNL     1     -23.512   0.563  14.058  0.00  0.00    +0.000 C 
ATOM     29  C   UNL     1     -24.851   1.220  13.758  0.00  0.00    +0.000 C 
ENDBRANCH  13  28
BRANCH  20  30
ATOM     30  O   UNL     1     -20.285   4.654  13.316  0.00  0.00    +0.000 OA
BRANCH  30  38
ATOM     31  O   UNL     1     -18.001   4.701  13.698  0.00  0.00    +0.000 OA
ATOM     32  N   UNL     1     -19.463   4.612  15.476  0.00  0.00    +0.000 N 
ATOM     33  C   UNL     1     -19.951   3.512  18.143  0.00  0.00    +0.000 C 
ATOM     34  C   UNL     1     -21.015   3.495  17.016  0.00  0.00    +0.000 C 
ATOM     35  C   UNL     1     -18.547   3.543  17.486  0.00  0.00    +0.000 C 
ATOM     36  C   UNL     1     -20.816   4.620  16.004  0.00  0.00    +0.000 C 
ATOM     37  C   UNL     1     -18.405   4.668  16.466  0.00  0.00    +0.000 C 
ATOM     38  C   UNL     1     -19.152   4.662  14.125  0.00  0.00    +0.000 C 
BRANCH  33  39
ATOM     39  N   UNL     1     -20.103   2.352  19.077  0.00  0.00    +0.000 NA
ATOM     40  C   UNL     1     -19.855   2.735  20.483  0.00  0.00    +0.000 C 
ATOM     41  C   UNL     1     -21.427   1.707  18.957  0.00  0.00    +0.000 C 
ATOM     42  C   UNL     1     -19.975   1.556  21.451  0.00  0.00    +0.000 C 
ATOM     43  C   UNL     1     -21.588   0.502  19.887  0.00  0.00    +0.000 C 
ATOM     44  C   UNL     1     -21.330   0.878  21.336  0.00  0.00    +0.000 C 
ENDBRANCH  33  39
ENDBRANCH  30  38
ENDBRANCH  20  30
TORSDOF 6
ENDMDL
MODEL 7
REMARK VINA RESULT:      -6.9     16.363     20.665
REMARK  Name = 
REMARK  8 active torsions:
REMARK  status: ('A' for Active; 'I' for Inactive)
REMARK    1  A    between atoms: O_1  and  C_21
REMARK    2  A    between atoms: O_1  and  C_38
REMARK    3  A    between atoms: O_4  and  C_26
REMARK    4  A    between atoms: N_7  and  C_11
REMARK    5  A    between atoms: C_26  and  C_33
REMARK    6  A    between atoms: C_29  and  C_37
REMARK    7  A    between atoms: C_33  and  C_42
REMARK    8  A    between atoms: C_37  and  C_43
REMARK                            x       y       z     vdW  Elec       q    Type
REMARK                         _______ _______ _______ _____ _____    ______ ____
ROOT
ATOM      1  O   UNL     1     -22.991   2.111  10.645  0.00  0.00    +0.000 OA
ATOM      2  O   UNL     1     -21.935  -1.961  10.865  0.00  0.00    +0.000 OA
ATOM      3  O   UNL     1     -23.015   3.814   9.179  0.00  0.00    +0.000 OA
ATOM      4  N   UNL     1     -22.369  -2.281   8.634  0.00  0.00    +0.000 N 
ATOM      5  N   UNL     1     -23.086  -2.820   5.162  0.00  0.00    +0.000 NA
ATOM      6  C   UNL     1     -22.840  -1.813   7.424  0.00  0.00    +0.000 A 
ATOM      7  C   UNL     1     -22.174  -3.993   7.084  0.00  0.00    +0.000 A 
ATOM      8  C   UNL     1     -21.915  -3.670   8.527  0.00  0.00    +0.000 C 
ATOM      9  C   UNL     1     -23.307   0.311   8.461  0.00  0.00    +0.000 A 
ATOM     10  C   UNL     1     -23.869   1.707   8.352  0.00  0.00    +0.000 C 
ATOM     11  C   UNL     1     -22.722  -2.887   6.444  0.00  0.00    +0.000 A 
ATOM     12  C   UNL     1     -22.849  -0.139   9.645  0.00  0.00    +0.000 A 
ATOM     13  C   UNL     1     -21.962  -5.158   6.361  0.00  0.00    +0.000 A 
ATOM     14  C   UNL     1     -23.304  -0.567   7.296  0.00  0.00    +0.000 A 
ATOM     15  C   UNL     1     -22.337  -1.539   9.786  0.00  0.00    +0.000 A 
ATOM     16  C   UNL     1     -22.348  -5.145   4.989  0.00  0.00    +0.000 A 
ATOM     17  C   UNL     1     -22.836   0.696  10.878  0.00  0.00    +0.000 C 
ATOM     18  C   UNL     1     -22.903  -3.940   4.447  0.00  0.00    +0.000 A 
ATOM     19  C   UNL     1     -23.233   2.625   9.420  0.00  0.00    +0.000 C 
ATOM     20  C   UNL     1     -22.622  -6.188   2.804  0.00  0.00    +0.000 A 
ATOM     21  C   UNL     1     -22.214  -6.261   4.134  0.00  0.00    +0.000 A 
ATOM     22  C   UNL     1     -23.275  -3.908   3.109  0.00  0.00    +0.000 A 
ATOM     23  C   UNL     1     -23.136  -5.016   2.274  0.00  0.00    +0.000 A 
ENDROOT
BRANCH  10  24
ATOM     24  O   UNL     1     -23.548   2.232   7.056  0.00  0.00    +0.000 OA
ATOM     25  H   UNL     1     -23.690   1.501   6.422  0.00  0.00    +0.000 HD
ENDBRANCH  10  24
BRANCH  10  26
ATOM     26  C   UNL     1     -25.403   1.687   8.519  0.00  0.00    +0.000 C 
ATOM     27  C   UNL     1     -26.184   1.871   7.221  0.00  0.00    +0.000 C 
ENDBRANCH  10  26
BRANCH  13  28
ATOM     28  C   UNL     1     -21.380  -6.371   7.046  0.00  0.00    +0.000 C 
ATOM     29  C   UNL     1     -22.455  -7.249   7.669  0.00  0.00    +0.000 C 
ENDBRANCH  13  28
BRANCH  20  30
ATOM     30  O   UNL     1     -22.436  -7.294   1.974  0.00  0.00    +0.000 OA
BRANCH  30  38
ATOM     31  O   UNL     1     -20.365  -8.218   2.445  0.00  0.00    +0.000 OA
ATOM     32  N   UNL     1     -20.680  -7.037   0.494  0.00  0.00    +0.000 N 
ATOM     33  C   UNL     1     -19.484  -5.167  -1.413  0.00  0.00    +0.000 C 
ATOM     34  C   UNL     1     -20.917  -4.994  -0.849  0.00  0.00    +0.000 C 
ATOM     35  C   UNL     1     -18.650  -5.974  -0.386  0.00  0.00    +0.000 C 
ATOM     36  C   UNL     1     -21.545  -6.319  -0.427  0.00  0.00    +0.000 C 
ATOM     37  C   UNL     1     -19.330  -7.277   0.023  0.00  0.00    +0.000 C 
ATOM     38  C   UNL     1     -21.100  -7.574   1.702  0.00  0.00    +0.000 C 
BRANCH  33  39
ATOM     39  N   UNL     1     -18.845  -3.852  -1.738  0.00  0.00    +0.000 NA
ATOM     40  C   UNL     1     -19.191  -2.808  -0.750  0.00  0.00    +0.000 C 
ATOM     41  C   UNL     1     -17.377  -3.960  -1.863  0.00  0.00    +0.000 C 
ATOM     42  C   UNL     1     -18.572  -1.448  -1.081  0.00  0.00    +0.000 C 
ATOM     43  C   UNL     1     -16.712  -2.629  -2.221  0.00  0.00    +0.000 C 
ATOM     44  C   UNL     1     -17.062  -1.543  -1.220  0.00  0.00    +0.000 C 
ENDBRANCH  33  39
ENDBRANCH  30  38
ENDBRANCH  20  30
TORSDOF 6
ENDMDL
MODEL 8
REMARK VINA RESULT:      -6.8     10.739     14.622
REMARK  Name = 
REMARK  8 active torsions:
REMARK  status: ('A' for Active; 'I' for Inactive)
REMARK    1  A    between atoms: O_1  and  C_21
REMARK    2  A    between atoms: O_1  and  C_38
REMARK    3  A    between atoms: O_4  and  C_26
REMARK    4  A    between atoms: N_7  and  C_11
REMARK    5  A    between atoms: C_26  and  C_33
REMARK    6  A    between atoms: C_29  and  C_37
REMARK    7  A    between atoms: C_33  and  C_42
REMARK    8  A    between atoms: C_37  and  C_43
REMARK                            x       y       z     vdW  Elec       q    Type
REMARK                         _______ _______ _______ _____ _____    ______ ____
ROOT
ATOM      1  O   UNL     1     -16.444   6.568  18.440  0.00  0.00    +0.000 OA
ATOM      2  O   UNL     1     -20.490   5.645  17.715  0.00  0.00    +0.000 OA
ATOM      3  O   UNL     1     -14.384   5.831  17.928  0.00  0.00    +0.000 OA
ATOM      4  N   UNL     1     -20.000   4.721  15.672  0.00  0.00    +0.000 N 
ATOM      5  N   UNL     1     -19.269   3.315  12.454  0.00  0.00    +0.000 NA
ATOM      6  C   UNL     1     -19.097   4.442  14.667  0.00  0.00    +0.000 A 
ATOM      7  C   UNL     1     -21.133   3.605  13.986  0.00  0.00    +0.000 A 
ATOM      8  C   UNL     1     -21.338   4.225  15.337  0.00  0.00    +0.000 C 
ATOM      9  C   UNL     1     -17.368   5.508  15.964  0.00  0.00    +0.000 A 
ATOM     10  C   UNL     1     -15.937   5.970  16.078  0.00  0.00    +0.000 C 
ATOM     11  C   UNL     1     -19.804   3.741  13.601  0.00  0.00    +0.000 A 
ATOM     12  C   UNL     1     -18.245   5.784  16.949  0.00  0.00    +0.000 A 
ATOM     13  C   UNL     1     -22.023   2.968  13.133  0.00  0.00    +0.000 A 
ATOM     14  C   UNL     1     -17.814   4.806  14.766  0.00  0.00    +0.000 A 
ATOM     15  C   UNL     1     -19.683   5.381  16.830  0.00  0.00    +0.000 A 
ATOM     16  C   UNL     1     -21.506   2.508  11.887  0.00  0.00    +0.000 A 
ATOM     17  C   UNL     1     -17.864   6.510  18.191  0.00  0.00    +0.000 C 
ATOM     18  C   UNL     1     -20.115   2.709  11.608  0.00  0.00    +0.000 A 
ATOM     19  C   UNL     1     -15.531   6.095  17.565  0.00  0.00    +0.000 C 
ATOM     20  C   UNL     1     -21.732   1.446   9.706  0.00  0.00    +0.000 A 
ATOM     21  C   UNL     1     -22.295   1.862  10.910  0.00  0.00    +0.000 A 
ATOM     22  C   UNL     1     -19.593   2.257  10.403  0.00  0.00    +0.000 A 
ATOM     23  C   UNL     1     -20.383   1.619   9.446  0.00  0.00    +0.000 A 
ENDROOT
BRANCH  10  24
ATOM     24  O   UNL     1     -15.088   4.994  15.459  0.00  0.00    +0.000 OA
ATOM     25  H   UNL     1     -15.678   4.399  14.955  0.00  0.00    +0.000 HD
ENDBRANCH  10  24
BRANCH  10  26
ATOM     26  C   UNL     1     -15.747   7.325  15.365  0.00  0.00    +0.000 C 
ATOM     27  C   UNL     1     -14.469   7.432  14.538  0.00  0.00    +0.000 C 
ENDBRANCH  10  26
BRANCH  13  28
ATOM     28  C   UNL     1     -23.472   2.825  13.532  0.00  0.00    +0.000 C 
ATOM     29  C   UNL     1     -24.286   4.064  13.192  0.00  0.00    +0.000 C 
ENDBRANCH  13  28
BRANCH  20  30
ATOM     30  O   UNL     1     -22.529   0.772   8.779  0.00  0.00    +0.000 OA
BRANCH  30  38
ATOM     31  O   UNL     1     -24.711   0.901   9.545  0.00  0.00    +0.000 OA
ATOM     32  N   UNL     1     -23.593  -1.112   9.591  0.00  0.00    +0.000 N 
ATOM     33  C   UNL     1     -23.146  -3.588  11.084  0.00  0.00    +0.000 C 
ATOM     34  C   UNL     1     -21.992  -2.739  10.496  0.00  0.00    +0.000 C 
ATOM     35  C   UNL     1     -24.357  -2.654  11.340  0.00  0.00    +0.000 C 
ATOM     36  C   UNL     1     -22.424  -1.919   9.284  0.00  0.00    +0.000 C 
ATOM     37  C   UNL     1     -24.736  -1.839  10.108  0.00  0.00    +0.000 C 
ATOM     38  C   UNL     1     -23.698   0.245   9.321  0.00  0.00    +0.000 C 
BRANCH  33  39
ATOM     39  N   UNL     1     -22.733  -4.317  12.325  0.00  0.00    +0.000 NA
ATOM     40  C   UNL     1     -23.894  -4.692  13.160  0.00  0.00    +0.000 C 
ATOM     41  C   UNL     1     -21.921  -5.515  12.025  0.00  0.00    +0.000 C 
ATOM     42  C   UNL     1     -23.490  -5.411  14.450  0.00  0.00    +0.000 C 
ATOM     43  C   UNL     1     -21.468  -6.256  13.286  0.00  0.00    +0.000 C 
ATOM     44  C   UNL     1     -22.648  -6.642  14.160  0.00  0.00    +0.000 C 
ENDBRANCH  33  39
ENDBRANCH  30  38
ENDBRANCH  20  30
TORSDOF 6
ENDMDL
MODEL 9
REMARK VINA RESULT:      -6.7     17.164     20.150
REMARK  Name = 
REMARK  8 active torsions:
REMARK  status: ('A' for Active; 'I' for Inactive)
REMARK    1  A    between atoms: O_1  and  C_21
REMARK    2  A    between atoms: O_1  and  C_38
REMARK    3  A    between atoms: O_4  and  C_26
REMARK    4  A    between atoms: N_7  and  C_11
REMARK    5  A    between atoms: C_26  and  C_33
REMARK    6  A    between atoms: C_29  and  C_37
REMARK    7  A    between atoms: C_33  and  C_42
REMARK    8  A    between atoms: C_37  and  C_43
REMARK                            x       y       z     vdW  Elec       q    Type
REMARK                         _______ _______ _______ _____ _____    ______ ____
ROOT
ATOM      1  O   UNL     1       2.180 -13.999  21.579  0.00  0.00    +0.000 OA
ATOM      2  O   UNL     1      -0.154 -15.983  24.472  0.00  0.00    +0.000 OA
ATOM      3  O   UNL     1       2.329 -13.751  19.351  0.00  0.00    +0.000 OA
ATOM      4  N   UNL     1      -2.011 -15.939  23.124  0.00  0.00    +0.000 N 
ATOM      5  N   UNL     1      -4.942 -15.841  21.059  0.00  0.00    +0.000 NA
ATOM      6  C   UNL     1      -2.646 -15.532  21.968  0.00  0.00    +0.000 A 
ATOM      7  C   UNL     1      -4.181 -16.751  23.179  0.00  0.00    +0.000 A 
ATOM      8  C   UNL     1      -2.907 -16.730  23.972  0.00  0.00    +0.000 C 
ATOM      9  C   UNL     1      -0.620 -14.425  21.280  0.00  0.00    +0.000 A 
ATOM     10  C   UNL     1       0.104 -13.558  20.280  0.00  0.00    +0.000 C 
ATOM     11  C   UNL     1      -4.014 -16.038  21.998  0.00  0.00    +0.000 A 
ATOM     12  C   UNL     1       0.007 -14.819  22.406  0.00  0.00    +0.000 A 
ATOM     13  C   UNL     1      -5.411 -17.336  23.449  0.00  0.00    +0.000 A 
ATOM     14  C   UNL     1      -2.011 -14.797  21.050  0.00  0.00    +0.000 A 
ATOM     15  C   UNL     1      -0.711 -15.636  23.436  0.00  0.00    +0.000 A 
ATOM     16  C   UNL     1      -6.442 -17.143  22.485  0.00  0.00    +0.000 A 
ATOM     17  C   UNL     1       1.419 -14.464  22.713  0.00  0.00    +0.000 C 
ATOM     18  C   UNL     1      -6.143 -16.387  21.306  0.00  0.00    +0.000 A 
ATOM     19  C   UNL     1       1.628 -13.802  20.363  0.00  0.00    +0.000 C 
ATOM     20  C   UNL     1      -8.717 -17.424  21.659  0.00  0.00    +0.000 A 
ATOM     21  C   UNL     1      -7.749 -17.659  22.633  0.00  0.00    +0.000 A 
ATOM     22  C   UNL     1      -7.134 -16.197  20.352  0.00  0.00    +0.000 A 
ATOM     23  C   UNL     1      -8.421 -16.713  20.508  0.00  0.00    +0.000 A 
ENDROOT
BRANCH  10  24
ATOM     24  O   UNL     1      -0.339 -13.908  18.961  0.00  0.00    +0.000 OA
ATOM     25  H   UNL     1       0.399 -13.686  18.358  0.00  0.00    +0.000 HD
ENDBRANCH  10  24
BRANCH  10  26
ATOM     26  C   UNL     1      -0.205 -12.067  20.534  0.00  0.00    +0.000 C 
ATOM     27  C   UNL     1       1.013 -11.219  20.886  0.00  0.00    +0.000 C 
ENDBRANCH  10  26
BRANCH  13  28
ATOM     28  C   UNL     1      -5.611 -18.102  24.735  0.00  0.00    +0.000 C 
ATOM     29  C   UNL     1      -5.226 -19.567  24.595  0.00  0.00    +0.000 C 
ENDBRANCH  13  28
BRANCH  20  30
ATOM     30  O   UNL     1      -9.986 -17.984  21.813  0.00  0.00    +0.000 OA
BRANCH  30  38
ATOM     31  O   UNL     1      -9.500 -20.005  20.791  0.00  0.00    +0.000 OA
ATOM     32  N   UNL     1     -11.439 -18.883  20.257  0.00  0.00    +0.000 N 
ATOM     33  C   UNL     1     -13.301 -18.174  18.114  0.00  0.00    +0.000 C 
ATOM     34  C   UNL     1     -12.754 -17.142  19.131  0.00  0.00    +0.000 C 
ATOM     35  C   UNL     1     -12.275 -19.329  17.992  0.00  0.00    +0.000 C 
ATOM     36  C   UNL     1     -12.361 -17.779  20.461  0.00  0.00    +0.000 C 
ATOM     37  C   UNL     1     -11.894 -19.917  19.347  0.00  0.00    +0.000 C 
ATOM     38  C   UNL     1     -10.244 -19.040  20.944  0.00  0.00    +0.000 C 
BRANCH  33  39
ATOM     39  N   UNL     1     -13.599 -17.552  16.785  0.00  0.00    +0.000 NA
ATOM     40  C   UNL     1     -12.715 -18.070  15.720  0.00  0.00    +0.000 C 
ATOM     41  C   UNL     1     -15.013 -17.722  16.392  0.00  0.00    +0.000 C 
ATOM     42  C   UNL     1     -12.982 -17.423  14.358  0.00  0.00    +0.000 C 
ATOM     43  C   UNL     1     -15.339 -17.068  15.048  0.00  0.00    +0.000 C 
ATOM     44  C   UNL     1     -14.435 -17.583  13.943  0.00  0.00    +0.000 C 
ENDBRANCH  33  39
ENDBRANCH  30  38
ENDBRANCH  20  30
TORSDOF 6
ENDMDL
