MODEL 1
REMARK VINA RESULT:      -6.2      0.000      0.000
REMARK  Name = 
REMARK  4 active torsions:
REMARK  status: ('A' for Active; 'I' for Inactive)
REMARK    1  A    between atoms: C_1  and  C_6
REMARK    2  A    between atoms: C_1  and  C_7
REMARK    3  A    between atoms: C_9  and  C_14
REMARK    4  A    between atoms: C_11  and  C_15
REMARK                            x       y       z     vdW  Elec       q    Type
REMARK                         _______ _______ _______ _____ _____    ______ ____
ROOT
ATOM      1  C   UNL     1      -8.493  -3.985  22.410  0.00  0.00    +0.000 C 
ATOM      2  C   UNL     1      -9.779  -3.338  21.904  0.00  0.00    +0.000 C 
ATOM      3  C   UNL     1      -9.270  -4.602  21.259  0.00  0.00    +0.000 C 
ATOM      4  C   UNL     1      -9.733  -2.038  21.238  0.00  0.00    +0.000 C 
ATOM      5  C   UNL     1      -8.813  -4.616  19.834  0.00  0.00    +0.000 C 
ATOM      6  C   UNL     1      -7.147  -3.348  22.157  0.00  0.00    +0.000 C 
ATOM      7  C   UNL     1      -8.562  -4.696  23.740  0.00  0.00    +0.000 C 
ATOM      8  C   UNL     1      -9.785  -1.712  19.932  0.00  0.00    +0.000 C 
ATOM      9  C   UNL     1      -9.609  -0.798  22.103  0.00  0.00    +0.000 C 
ATOM     10  C   UNL     1      -9.925  -4.110  18.915  0.00  0.00    +0.000 C 
ATOM     11  C   UNL     1      -9.902  -2.583  18.702  0.00  0.00    +0.000 C 
ATOM     12  C   UNL     1      -9.658  -0.221  19.748  0.00  0.00    +0.000 C 
ATOM     13  C   UNL     1      -9.133   0.251  21.099  0.00  0.00    +0.000 C 
ATOM     14  C   UNL     1     -10.935  -0.414  22.755  0.00  0.00    +0.000 C 
ATOM     15  C   UNL     1     -11.133  -2.190  17.873  0.00  0.00    +0.000 C 
ENDROOT
TORSDOF 0
ENDMDL
MODEL 2
REMARK VINA RESULT:      -6.2      1.493      3.357
REMARK  Name = 
REMARK  4 active torsions:
REMARK  status: ('A' for Active; 'I' for Inactive)
REMARK    1  A    between atoms: C_1  and  C_6
REMARK    2  A    between atoms: C_1  and  C_7
REMARK    3  A    between atoms: C_9  and  C_14
REMARK    4  A    between atoms: C_11  and  C_15
REMARK                            x       y       z     vdW  Elec       q    Type
REMARK                         _______ _______ _______ _____ _____    ______ ____
ROOT
ATOM      1  C   UNL     1      -9.302  -4.680  19.857  0.00  0.00    +0.000 C 
ATOM      2  C   UNL     1      -9.073  -4.095  21.248  0.00  0.00    +0.000 C 
ATOM      3  C   UNL     1     -10.147  -5.131  21.036  0.00  0.00    +0.000 C 
ATOM      4  C   UNL     1      -9.372  -2.689  21.511  0.00  0.00    +0.000 C 
ATOM      5  C   UNL     1     -11.594  -4.799  21.224  0.00  0.00    +0.000 C 
ATOM      6  C   UNL     1      -9.923  -3.853  18.755  0.00  0.00    +0.000 C 
ATOM      7  C   UNL     1      -8.267  -5.653  19.344  0.00  0.00    +0.000 C 
ATOM      8  C   UNL     1     -10.427  -2.109  22.116  0.00  0.00    +0.000 C 
ATOM      9  C   UNL     1      -8.367  -1.649  21.055  0.00  0.00    +0.000 C 
ATOM     10  C   UNL     1     -11.833  -4.246  22.628  0.00  0.00    +0.000 C 
ATOM     11  C   UNL     1     -11.670  -2.716  22.726  0.00  0.00    +0.000 C 
ATOM     12  C   UNL     1     -10.289  -0.608  22.106  0.00  0.00    +0.000 C 
ATOM     13  C   UNL     1      -9.200  -0.367  21.068  0.00  0.00    +0.000 C 
ATOM     14  C   UNL     1      -7.162  -1.563  21.989  0.00  0.00    +0.000 C 
ATOM     15  C   UNL     1     -11.808  -2.306  24.199  0.00  0.00    +0.000 C 
ENDROOT
TORSDOF 0
ENDMDL
MODEL 3
REMARK VINA RESULT:      -5.6      1.465      3.816
REMARK  Name = 
REMARK  4 active torsions:
REMARK  status: ('A' for Active; 'I' for Inactive)
REMARK    1  A    between atoms: C_1  and  C_6
REMARK    2  A    between atoms: C_1  and  C_7
REMARK    3  A    between atoms: C_9  and  C_14
REMARK    4  A    between atoms: C_11  and  C_15
REMARK                            x       y       z     vdW  Elec       q    Type
REMARK                         _______ _______ _______ _____ _____    ______ ____
ROOT
ATOM      1  C   UNL     1     -10.847  -4.589  23.357  0.00  0.00    +0.000 C 
ATOM      2  C   UNL     1      -9.637  -4.089  22.573  0.00  0.00    +0.000 C 
ATOM      3  C   UNL     1     -10.107  -3.334  23.791  0.00  0.00    +0.000 C 
ATOM      4  C   UNL     1      -9.803  -3.579  21.214  0.00  0.00    +0.000 C 
ATOM      5  C   UNL     1     -10.650  -1.944  23.680  0.00  0.00    +0.000 C 
ATOM      6  C   UNL     1     -12.243  -4.484  22.789  0.00  0.00    +0.000 C 
ATOM      7  C   UNL     1     -10.652  -5.824  24.203  0.00  0.00    +0.000 C 
ATOM      8  C   UNL     1      -9.853  -2.317  20.745  0.00  0.00    +0.000 C 
ATOM      9  C   UNL     1      -9.948  -4.584  20.088  0.00  0.00    +0.000 C 
ATOM     10  C   UNL     1      -9.631  -1.029  23.002  0.00  0.00    +0.000 C 
ATOM     11  C   UNL     1      -9.760  -0.992  21.466  0.00  0.00    +0.000 C 
ATOM     12  C   UNL     1     -10.081  -2.310  19.255  0.00  0.00    +0.000 C 
ATOM     13  C   UNL     1     -10.549  -3.732  18.970  0.00  0.00    +0.000 C 
ATOM     14  C   UNL     1      -8.610  -5.201  19.688  0.00  0.00    +0.000 C 
ATOM     15  C   UNL     1      -8.609  -0.146  20.903  0.00  0.00    +0.000 C 
ENDROOT
TORSDOF 0
ENDMDL
MODEL 4
REMARK VINA RESULT:      -5.4      1.682      4.514
REMARK  Name = 
REMARK  4 active torsions:
REMARK  status: ('A' for Active; 'I' for Inactive)
REMARK    1  A    between atoms: C_1  and  C_6
REMARK    2  A    between atoms: C_1  and  C_7
REMARK    3  A    between atoms: C_9  and  C_14
REMARK    4  A    between atoms: C_11  and  C_15
REMARK                            x       y       z     vdW  Elec       q    Type
REMARK                         _______ _______ _______ _____ _____    ______ ____
ROOT
ATOM      1  C   UNL     1      -9.733  -2.062  20.358  0.00  0.00    +0.000 C 
ATOM      2  C   UNL     1      -9.919  -2.013  21.871  0.00  0.00    +0.000 C 
ATOM      3  C   UNL     1      -8.546  -2.237  21.290  0.00  0.00    +0.000 C 
ATOM      4  C   UNL     1     -10.670  -3.065  22.553  0.00  0.00    +0.000 C 
ATOM      5  C   UNL     1      -7.813  -3.524  21.504  0.00  0.00    +0.000 C 
ATOM      6  C   UNL     1     -10.236  -3.234  19.547  0.00  0.00    +0.000 C 
ATOM      7  C   UNL     1      -9.830  -0.752  19.613  0.00  0.00    +0.000 C 
ATOM      8  C   UNL     1     -10.250  -4.133  23.259  0.00  0.00    +0.000 C 
ATOM      9  C   UNL     1     -12.184  -3.008  22.501  0.00  0.00    +0.000 C 
ATOM     10  C   UNL     1      -7.675  -3.814  22.998  0.00  0.00    +0.000 C 
ATOM     11  C   UNL     1      -8.855  -4.614  23.584  0.00  0.00    +0.000 C 
ATOM     12  C   UNL     1     -11.423  -4.952  23.733  0.00  0.00    +0.000 C 
ATOM     13  C   UNL     1     -12.575  -4.436  22.880  0.00  0.00    +0.000 C 
ATOM     14  C   UNL     1     -12.757  -1.976  23.470  0.00  0.00    +0.000 C 
ATOM     15  C   UNL     1      -8.659  -4.727  25.103  0.00  0.00    +0.000 C 
ENDROOT
TORSDOF 0
ENDMDL
MODEL 5
REMARK VINA RESULT:      -5.4     19.212     21.219
REMARK  Name = 
REMARK  4 active torsions:
REMARK  status: ('A' for Active; 'I' for Inactive)
REMARK    1  A    between atoms: C_1  and  C_6
REMARK    2  A    between atoms: C_1  and  C_7
REMARK    3  A    between atoms: C_9  and  C_14
REMARK    4  A    between atoms: C_11  and  C_15
REMARK                            x       y       z     vdW  Elec       q    Type
REMARK                         _______ _______ _______ _____ _____    ______ ____
ROOT
ATOM      1  C   UNL     1      -0.750  -7.116   0.905  0.00  0.00    +0.000 C 
ATOM      2  C   UNL     1      -1.988  -6.380   0.401  0.00  0.00    +0.000 C 
ATOM      3  C   UNL     1      -0.739  -5.606   0.736  0.00  0.00    +0.000 C 
ATOM      4  C   UNL     1      -3.195  -6.326   1.223  0.00  0.00    +0.000 C 
ATOM      5  C   UNL     1      -0.714  -4.623   1.863  0.00  0.00    +0.000 C 
ATOM      6  C   UNL     1      -0.711  -7.721   2.289  0.00  0.00    +0.000 C 
ATOM      7  C   UNL     1       0.026  -7.924  -0.108  0.00  0.00    +0.000 C 
ATOM      8  C   UNL     1      -3.688  -5.345   2.004  0.00  0.00    +0.000 C 
ATOM      9  C   UNL     1      -4.096  -7.546   1.248  0.00  0.00    +0.000 C 
ATOM     10  C   UNL     1      -1.806  -3.570   1.674  0.00  0.00    +0.000 C 
ATOM     11  C   UNL     1      -3.157  -3.962   2.304  0.00  0.00    +0.000 C 
ATOM     12  C   UNL     1      -4.955  -5.793   2.687  0.00  0.00    +0.000 C 
ATOM     13  C   UNL     1      -4.930  -7.306   2.506  0.00  0.00    +0.000 C 
ATOM     14  C   UNL     1      -4.960  -7.651  -0.006  0.00  0.00    +0.000 C 
ATOM     15  C   UNL     1      -4.193  -2.891   1.937  0.00  0.00    +0.000 C 
ENDROOT
TORSDOF 0
ENDMDL
MODEL 6
REMARK VINA RESULT:      -5.4     17.120     18.922
REMARK  Name = 
REMARK  4 active torsions:
REMARK  status: ('A' for Active; 'I' for Inactive)
REMARK    1  A    between atoms: C_1  and  C_6
REMARK    2  A    between atoms: C_1  and  C_7
REMARK    3  A    between atoms: C_9  and  C_14
REMARK    4  A    between atoms: C_11  and  C_15
REMARK                            x       y       z     vdW  Elec       q    Type
REMARK                         _______ _______ _______ _____ _____    ______ ____
ROOT
ATOM      1  C   UNL     1       7.224  -9.511  13.819  0.00  0.00    +0.000 C 
ATOM      2  C   UNL     1       6.605  -9.868  12.471  0.00  0.00    +0.000 C 
ATOM      3  C   UNL     1       6.533  -8.450  12.979  0.00  0.00    +0.000 C 
ATOM      4  C   UNL     1       5.437 -10.745  12.409  0.00  0.00    +0.000 C 
ATOM      5  C   UNL     1       5.223  -7.814  13.321  0.00  0.00    +0.000 C 
ATOM      6  C   UNL     1       6.599  -9.976  15.113  0.00  0.00    +0.000 C 
ATOM      7  C   UNL     1       8.732  -9.455  13.886  0.00  0.00    +0.000 C 
ATOM      8  C   UNL     1       4.131 -10.465  12.240  0.00  0.00    +0.000 C 
ATOM      9  C   UNL     1       5.660 -12.239  12.550  0.00  0.00    +0.000 C 
ATOM     10  C   UNL     1       4.279  -7.864  12.120  0.00  0.00    +0.000 C 
ATOM     11  C   UNL     1       3.420  -9.143  12.061  0.00  0.00    +0.000 C 
ATOM     12  C   UNL     1       3.304 -11.725  12.289  0.00  0.00    +0.000 C 
ATOM     13  C   UNL     1       4.260 -12.742  12.900  0.00  0.00    +0.000 C 
ATOM     14  C   UNL     1       6.195 -12.866  11.265  0.00  0.00    +0.000 C 
ATOM     15  C   UNL     1       2.617  -9.130  10.753  0.00  0.00    +0.000 C 
ENDROOT
TORSDOF 0
ENDMDL
MODEL 7
REMARK VINA RESULT:      -5.3      1.914      3.433
REMARK  Name = 
REMARK  4 active torsions:
REMARK  status: ('A' for Active; 'I' for Inactive)
REMARK    1  A    between atoms: C_1  and  C_6
REMARK    2  A    between atoms: C_1  and  C_7
REMARK    3  A    between atoms: C_9  and  C_14
REMARK    4  A    between atoms: C_11  and  C_15
REMARK                            x       y       z     vdW  Elec       q    Type
REMARK                         _______ _______ _______ _____ _____    ______ ____
ROOT
ATOM      1  C   UNL     1     -11.543  -2.140  23.388  0.00  0.00    +0.000 C 
ATOM      2  C   UNL     1     -10.831  -2.124  22.039  0.00  0.00    +0.000 C 
ATOM      3  C   UNL     1     -11.858  -3.187  22.333  0.00  0.00    +0.000 C 
ATOM      4  C   UNL     1      -9.399  -2.407  21.961  0.00  0.00    +0.000 C 
ATOM      5  C   UNL     1     -11.475  -4.631  22.426  0.00  0.00    +0.000 C 
ATOM      6  C   UNL     1     -10.814  -2.534  24.651  0.00  0.00    +0.000 C 
ATOM      7  C   UNL     1     -12.586  -1.073  23.624  0.00  0.00    +0.000 C 
ATOM      8  C   UNL     1      -8.739  -3.525  21.601  0.00  0.00    +0.000 C 
ATOM      9  C   UNL     1      -8.433  -1.300  22.333  0.00  0.00    +0.000 C 
ATOM     10  C   UNL     1     -10.782  -5.080  21.140  0.00  0.00    +0.000 C 
ATOM     11  C   UNL     1      -9.254  -4.875  21.159  0.00  0.00    +0.000 C 
ATOM     12  C   UNL     1      -7.250  -3.328  21.726  0.00  0.00    +0.000 C 
ATOM     13  C   UNL     1      -7.137  -2.072  22.581  0.00  0.00    +0.000 C 
ATOM     14  C   UNL     1      -8.284  -0.265  21.220  0.00  0.00    +0.000 C 
ATOM     15  C   UNL     1      -8.698  -5.242  19.775  0.00  0.00    +0.000 C 
ENDROOT
TORSDOF 0
ENDMDL
MODEL 8
REMARK VINA RESULT:      -5.3      1.648      2.343
REMARK  Name = 
REMARK  4 active torsions:
REMARK  status: ('A' for Active; 'I' for Inactive)
REMARK    1  A    between atoms: C_1  and  C_6
REMARK    2  A    between atoms: C_1  and  C_7
REMARK    3  A    between atoms: C_9  and  C_14
REMARK    4  A    between atoms: C_11  and  C_15
REMARK                            x       y       z     vdW  Elec       q    Type
REMARK                         _______ _______ _______ _____ _____    ______ ____
ROOT
ATOM      1  C   UNL     1      -7.011  -1.413  23.526  0.00  0.00    +0.000 C 
ATOM      2  C   UNL     1      -8.484  -1.520  23.142  0.00  0.00    +0.000 C 
ATOM      3  C   UNL     1      -7.612  -2.750  23.127  0.00  0.00    +0.000 C 
ATOM      4  C   UNL     1      -8.973  -0.883  21.922  0.00  0.00    +0.000 C 
ATOM      5  C   UNL     1      -7.312  -3.472  21.851  0.00  0.00    +0.000 C 
ATOM      6  C   UNL     1      -6.016  -0.731  22.617  0.00  0.00    +0.000 C 
ATOM      7  C   UNL     1      -6.698  -1.214  24.990  0.00  0.00    +0.000 C 
ATOM      8  C   UNL     1      -9.256  -1.397  20.709  0.00  0.00    +0.000 C 
ATOM      9  C   UNL     1      -9.228   0.612  21.951  0.00  0.00    +0.000 C 
ATOM     10  C   UNL     1      -8.609  -3.884  21.156  0.00  0.00    +0.000 C 
ATOM     11  C   UNL     1      -9.160  -2.815  20.193  0.00  0.00    +0.000 C 
ATOM     12  C   UNL     1      -9.695  -0.313  19.759  0.00  0.00    +0.000 C 
ATOM     13  C   UNL     1      -9.258   0.964  20.464  0.00  0.00    +0.000 C 
ATOM     14  C   UNL     1     -10.539   0.959  22.653  0.00  0.00    +0.000 C 
ATOM     15  C   UNL     1     -10.520  -3.293  19.662  0.00  0.00    +0.000 C 
ENDROOT
TORSDOF 0
ENDMDL
MODEL 9
REMARK VINA RESULT:      -5.3     16.306     17.936
REMARK  Name = 
REMARK  4 active torsions:
REMARK  status: ('A' for Active; 'I' for Inactive)
REMARK    1  A    between atoms: C_1  and  C_6
REMARK    2  A    between atoms: C_1  and  C_7
REMARK    3  A    between atoms: C_9  and  C_14
REMARK    4  A    between atoms: C_11  and  C_15
REMARK                            x       y       z     vdW  Elec       q    Type
REMARK                         _______ _______ _______ _____ _____    ______ ____
ROOT
ATOM      1  C   UNL     1       6.052 -11.876  14.175  0.00  0.00    +0.000 C 
ATOM      2  C   UNL     1       4.926 -10.867  14.381  0.00  0.00    +0.000 C 
ATOM      3  C   UNL     1       4.680 -12.110  13.565  0.00  0.00    +0.000 C 
ATOM      4  C   UNL     1       5.016  -9.535  13.785  0.00  0.00    +0.000 C 
ATOM      5  C   UNL     1       4.374 -12.030  12.102  0.00  0.00    +0.000 C 
ATOM      6  C   UNL     1       7.231 -11.560  13.284  0.00  0.00    +0.000 C 
ATOM      7  C   UNL     1       6.429 -12.733  15.360  0.00  0.00    +0.000 C 
ATOM      8  C   UNL     1       4.441  -9.022  12.681  0.00  0.00    +0.000 C 
ATOM      9  C   UNL     1       5.886  -8.503  14.476  0.00  0.00    +0.000 C 
ATOM     10  C   UNL     1       3.155 -11.139  11.863  0.00  0.00    +0.000 C 
ATOM     11  C   UNL     1       3.507  -9.650  11.672  0.00  0.00    +0.000 C 
ATOM     12  C   UNL     1       4.883  -7.598  12.462  0.00  0.00    +0.000 C 
ATOM     13  C   UNL     1       6.099  -7.469  13.370  0.00  0.00    +0.000 C 
ATOM     14  C   UNL     1       5.206  -7.903  15.704  0.00  0.00    +0.000 C 
ATOM     15  C   UNL     1       2.199  -8.852  11.570  0.00  0.00    +0.000 C 
ENDROOT
TORSDOF 0
ENDMDL
