MODEL 1
REMARK VINA RESULT:      -7.1      0.000      0.000
REMARK  Name = JAK3_Inhibitor.pdbqt.pdb
REMARK  1 active torsions:
REMARK  status: ('A' for Active; 'I' for Inactive)
REMARK    1  A    between atoms: C_7  and  C_20
REMARK                            x       y       z     vdW  Elec       q    Type
REMARK                         _______ _______ _______ _____ _____    ______ ____
ROOT
ATOM      1  O   UNL     1     -10.838  -0.546  24.402  0.00  0.00    +0.000 OA
ATOM      2  N   UNL     1     -10.626  -2.791  23.769  0.00  0.00    +0.000 N 
ATOM      3  C   UNL     1      -9.963  -2.552  21.586  0.00  0.00    +0.000 A 
ATOM      4  C   UNL     1     -10.265  -3.463  22.601  0.00  0.00    +0.000 A 
ATOM      5  C   UNL     1     -10.152  -1.235  22.169  0.00  0.00    +0.000 C 
ATOM      6  C   UNL     1      -9.579  -2.985  20.332  0.00  0.00    +0.000 A 
ATOM      7  C   UNL     1      -9.492  -4.366  20.087  0.00  0.00    +0.000 A 
ATOM      8  C   UNL     1     -10.584  -1.413  23.590  0.00  0.00    +0.000 C 
ATOM      9  C   UNL     1     -10.194  -4.825  22.409  0.00  0.00    +0.000 A 
ATOM     10  C   UNL     1      -9.991  -0.083  21.600  0.00  0.00    +0.000 C 
ATOM     11  C   UNL     1      -9.804  -5.259  21.140  0.00  0.00    +0.000 A 
ATOM     12  H   UNL     1     -10.888  -3.225  24.643  0.00  0.00    +0.000 HD
ATOM     13  N   UNL     1     -10.044   2.375  21.697  0.00  0.00    +0.000 N 
ATOM     14  C   UNL     1      -9.826   1.202  21.023  0.00  0.00    +0.000 C 
ATOM     15  C   UNL     1      -9.437   1.516  19.742  0.00  0.00    +0.000 C 
ATOM     16  C   UNL     1      -9.799   3.432  20.861  0.00  0.00    +0.000 C 
ATOM     17  C   UNL     1      -9.420   2.926  19.639  0.00  0.00    +0.000 C 
ATOM     18  H   UNL     1     -10.339   2.447  22.662  0.00  0.00    +0.000 HD
ENDROOT
BRANCH   7  20
ATOM     19  N   UNL     1      -9.458  -4.973  16.362  0.00  0.00    +0.000 NA
ATOM     20  C   UNL     1      -9.087  -4.872  18.770  0.00  0.00    +0.000 A 
ATOM     21  C   UNL     1      -7.985  -5.713  18.603  0.00  0.00    +0.000 A 
ATOM     22  C   UNL     1      -9.775  -4.545  17.605  0.00  0.00    +0.000 A 
ATOM     23  C   UNL     1      -7.617  -6.182  17.347  0.00  0.00    +0.000 A 
ATOM     24  C   UNL     1      -8.383  -5.783  16.266  0.00  0.00    +0.000 A 
ENDBRANCH   7  20
TORSDOF 1
ENDMDL
MODEL 2
REMARK VINA RESULT:      -6.7      2.462      4.993
REMARK  Name = JAK3_Inhibitor.pdbqt.pdb
REMARK  1 active torsions:
REMARK  status: ('A' for Active; 'I' for Inactive)
REMARK    1  A    between atoms: C_7  and  C_20
REMARK                            x       y       z     vdW  Elec       q    Type
REMARK                         _______ _______ _______ _____ _____    ______ ____
ROOT
ATOM      1  O   UNL     1     -12.132   0.714  24.806  0.00  0.00    +0.000 OA
ATOM      2  N   UNL     1     -10.772   0.718  22.899  0.00  0.00    +0.000 N 
ATOM      3  C   UNL     1     -10.831  -1.505  22.334  0.00  0.00    +0.000 A 
ATOM      4  C   UNL     1     -10.327  -0.247  21.995  0.00  0.00    +0.000 A 
ATOM      5  C   UNL     1     -11.637  -1.298  23.526  0.00  0.00    +0.000 C 
ATOM      6  C   UNL     1     -10.525  -2.621  21.582  0.00  0.00    +0.000 A 
ATOM      7  C   UNL     1      -9.694  -2.476  20.457  0.00  0.00    +0.000 A 
ATOM      8  C   UNL     1     -11.585   0.154  23.876  0.00  0.00    +0.000 C 
ATOM      9  C   UNL     1      -9.510  -0.054  20.903  0.00  0.00    +0.000 A 
ATOM     10  C   UNL     1     -12.300  -2.183  24.200  0.00  0.00    +0.000 C 
ATOM     11  C   UNL     1      -9.203  -1.186  20.144  0.00  0.00    +0.000 A 
ATOM     12  H   UNL     1     -10.548   1.702  22.870  0.00  0.00    +0.000 HD
ATOM     13  N   UNL     1     -13.764  -2.776  26.086  0.00  0.00    +0.000 N 
ATOM     14  C   UNL     1     -13.042  -3.113  24.971  0.00  0.00    +0.000 C 
ATOM     15  C   UNL     1     -13.181  -4.467  24.769  0.00  0.00    +0.000 C 
ATOM     16  C   UNL     1     -14.361  -3.898  26.597  0.00  0.00    +0.000 C 
ATOM     17  C   UNL     1     -14.015  -4.963  25.798  0.00  0.00    +0.000 C 
ATOM     18  H   UNL     1     -13.843  -1.844  26.470  0.00  0.00    +0.000 HD
ENDROOT
BRANCH   7  20
ATOM     19  N   UNL     1      -8.270  -5.814  19.424  0.00  0.00    +0.000 NA
ATOM     20  C   UNL     1      -9.342  -3.635  19.628  0.00  0.00    +0.000 A 
ATOM     21  C   UNL     1      -9.704  -3.722  18.282  0.00  0.00    +0.000 A 
ATOM     22  C   UNL     1      -8.627  -4.718  20.129  0.00  0.00    +0.000 A 
ATOM     23  C   UNL     1      -9.362  -4.829  17.512  0.00  0.00    +0.000 A 
ATOM     24  C   UNL     1      -8.649  -5.841  18.129  0.00  0.00    +0.000 A 
ENDBRANCH   7  20
TORSDOF 1
ENDMDL
MODEL 3
REMARK VINA RESULT:      -6.5      3.351      6.126
REMARK  Name = JAK3_Inhibitor.pdbqt.pdb
REMARK  1 active torsions:
REMARK  status: ('A' for Active; 'I' for Inactive)
REMARK    1  A    between atoms: C_7  and  C_20
REMARK                            x       y       z     vdW  Elec       q    Type
REMARK                         _______ _______ _______ _____ _____    ______ ____
ROOT
ATOM      1  O   UNL     1      -8.348  -3.570  27.325  0.00  0.00    +0.000 OA
ATOM      2  N   UNL     1      -7.554  -2.598  25.348  0.00  0.00    +0.000 N 
ATOM      3  C   UNL     1      -8.795  -3.735  23.790  0.00  0.00    +0.000 A 
ATOM      4  C   UNL     1      -7.819  -2.756  23.987  0.00  0.00    +0.000 A 
ATOM      5  C   UNL     1      -9.152  -4.209  25.116  0.00  0.00    +0.000 C 
ATOM      6  C   UNL     1      -9.222  -4.068  22.520  0.00  0.00    +0.000 A 
ATOM      7  C   UNL     1      -8.660  -3.403  21.417  0.00  0.00    +0.000 A 
ATOM      8  C   UNL     1      -8.333  -3.456  26.115  0.00  0.00    +0.000 C 
ATOM      9  C   UNL     1      -7.238  -2.077  22.939  0.00  0.00    +0.000 A 
ATOM     10  C   UNL     1     -10.018  -5.119  25.428  0.00  0.00    +0.000 C 
ATOM     11  C   UNL     1      -7.674  -2.416  21.656  0.00  0.00    +0.000 A 
ATOM     12  H   UNL     1      -6.889  -1.951  25.748  0.00  0.00    +0.000 HD
ATOM     13  N   UNL     1     -11.193  -6.460  27.124  0.00  0.00    +0.000 N 
ATOM     14  C   UNL     1     -10.955  -6.108  25.821  0.00  0.00    +0.000 C 
ATOM     15  C   UNL     1     -11.772  -6.873  25.021  0.00  0.00    +0.000 C 
ATOM     16  C   UNL     1     -12.150  -7.440  27.164  0.00  0.00    +0.000 C 
ATOM     17  C   UNL     1     -12.527  -7.715  25.870  0.00  0.00    +0.000 C 
ATOM     18  H   UNL     1     -10.732  -6.058  27.930  0.00  0.00    +0.000 HD
ENDROOT
BRANCH   7  20
ATOM     19  N   UNL     1      -9.075  -5.269  18.163  0.00  0.00    +0.000 NA
ATOM     20  C   UNL     1      -9.084  -3.724  20.049  0.00  0.00    +0.000 A 
ATOM     21  C   UNL     1      -9.879  -2.858  19.295  0.00  0.00    +0.000 A 
ATOM     22  C   UNL     1      -8.721  -4.910  19.417  0.00  0.00    +0.000 A 
ATOM     23  C   UNL     1     -10.271  -3.180  18.000  0.00  0.00    +0.000 A 
ATOM     24  C   UNL     1      -9.844  -4.391  17.485  0.00  0.00    +0.000 A 
ENDBRANCH   7  20
TORSDOF 1
ENDMDL
MODEL 4
REMARK VINA RESULT:      -6.2      4.327      5.707
REMARK  Name = JAK3_Inhibitor.pdbqt.pdb
REMARK  1 active torsions:
REMARK  status: ('A' for Active; 'I' for Inactive)
REMARK    1  A    between atoms: C_7  and  C_20
REMARK                            x       y       z     vdW  Elec       q    Type
REMARK                         _______ _______ _______ _____ _____    ______ ____
ROOT
ATOM      1  O   UNL     1      -5.825   3.702  22.549  0.00  0.00    +0.000 OA
ATOM      2  N   UNL     1      -7.710   2.877  21.429  0.00  0.00    +0.000 N 
ATOM      3  C   UNL     1      -7.412   0.619  21.711  0.00  0.00    +0.000 A 
ATOM      4  C   UNL     1      -8.231   1.609  21.164  0.00  0.00    +0.000 A 
ATOM      5  C   UNL     1      -6.315   1.325  22.352  0.00  0.00    +0.000 C 
ATOM      6  C   UNL     1      -7.726  -0.719  21.576  0.00  0.00    +0.000 A 
ATOM      7  C   UNL     1      -8.891  -1.077  20.877  0.00  0.00    +0.000 A 
ATOM      8  C   UNL     1      -6.529   2.791  22.157  0.00  0.00    +0.000 C 
ATOM      9  C   UNL     1      -9.383   1.309  20.471  0.00  0.00    +0.000 A 
ATOM     10  C   UNL     1      -5.309   0.817  22.990  0.00  0.00    +0.000 C 
ATOM     11  C   UNL     1      -9.697  -0.045  20.338  0.00  0.00    +0.000 A 
ATOM     12  H   UNL     1      -8.117   3.755  21.141  0.00  0.00    +0.000 HD
ATOM     13  N   UNL     1      -3.219   1.100  24.258  0.00  0.00    +0.000 N 
ATOM     14  C   UNL     1      -4.190   0.311  23.699  0.00  0.00    +0.000 C 
ATOM     15  C   UNL     1      -3.869  -1.002  23.956  0.00  0.00    +0.000 C 
ATOM     16  C   UNL     1      -2.283   0.307  24.867  0.00  0.00    +0.000 C 
ATOM     17  C   UNL     1      -2.662  -1.004  24.694  0.00  0.00    +0.000 C 
ATOM     18  H   UNL     1      -3.199   2.111  24.225  0.00  0.00    +0.000 HD
ENDROOT
BRANCH   7  20
ATOM     19  N   UNL     1     -10.973  -4.154  20.217  0.00  0.00    +0.000 NA
ATOM     20  C   UNL     1      -9.265  -2.486  20.709  0.00  0.00    +0.000 A 
ATOM     21  C   UNL     1      -8.342  -3.523  20.863  0.00  0.00    +0.000 A 
ATOM     22  C   UNL     1     -10.560  -2.878  20.386  0.00  0.00    +0.000 A 
ATOM     23  C   UNL     1      -8.715  -4.852  20.700  0.00  0.00    +0.000 A 
ATOM     24  C   UNL     1     -10.036  -5.111  20.378  0.00  0.00    +0.000 A 
ENDBRANCH   7  20
TORSDOF 1
ENDMDL
MODEL 5
REMARK VINA RESULT:      -6.1      2.183      2.434
REMARK  Name = JAK3_Inhibitor.pdbqt.pdb
REMARK  1 active torsions:
REMARK  status: ('A' for Active; 'I' for Inactive)
REMARK    1  A    between atoms: C_7  and  C_20
REMARK                            x       y       z     vdW  Elec       q    Type
REMARK                         _______ _______ _______ _____ _____    ______ ____
ROOT
ATOM      1  O   UNL     1      -7.279   0.331  25.278  0.00  0.00    +0.000 OA
ATOM      2  N   UNL     1      -7.588  -1.920  24.709  0.00  0.00    +0.000 N 
ATOM      3  C   UNL     1      -8.073  -1.727  22.475  0.00  0.00    +0.000 A 
ATOM      4  C   UNL     1      -7.906  -2.614  23.541  0.00  0.00    +0.000 A 
ATOM      5  C   UNL     1      -7.843  -0.402  23.025  0.00  0.00    +0.000 C 
ATOM      6  C   UNL     1      -8.395  -2.185  21.213  0.00  0.00    +0.000 A 
ATOM      7  C   UNL     1      -8.552  -3.566  21.009  0.00  0.00    +0.000 A 
ATOM      8  C   UNL     1      -7.529  -0.551  24.479  0.00  0.00    +0.000 C 
ATOM      9  C   UNL     1      -8.049  -3.976  23.392  0.00  0.00    +0.000 A 
ATOM     10  C   UNL     1      -7.892   0.734  22.406  0.00  0.00    +0.000 C 
ATOM     11  C   UNL     1      -8.373  -4.434  22.113  0.00  0.00    +0.000 A 
ATOM     12  H   UNL     1      -7.417  -2.335  25.614  0.00  0.00    +0.000 HD
ATOM     13  N   UNL     1      -7.693   3.187  22.423  0.00  0.00    +0.000 N 
ATOM     14  C   UNL     1      -7.932   2.003  21.775  0.00  0.00    +0.000 C 
ATOM     15  C   UNL     1      -8.203   2.289  20.457  0.00  0.00    +0.000 C 
ATOM     16  C   UNL     1      -7.810   4.223  21.535  0.00  0.00    +0.000 C 
ATOM     17  C   UNL     1      -8.126   3.694  20.305  0.00  0.00    +0.000 C 
ATOM     18  H   UNL     1      -7.467   3.279  23.404  0.00  0.00    +0.000 HD
ENDROOT
BRANCH   7  20
ATOM     19  N   UNL     1      -8.610  -5.824  17.986  0.00  0.00    +0.000 NA
ATOM     20  C   UNL     1      -8.892  -4.098  19.684  0.00  0.00    +0.000 A 
ATOM     21  C   UNL     1      -9.790  -3.451  18.832  0.00  0.00    +0.000 A 
ATOM     22  C   UNL     1      -8.342  -5.278  19.194  0.00  0.00    +0.000 A 
ATOM     23  C   UNL     1     -10.100  -3.971  17.581  0.00  0.00    +0.000 A 
ATOM     24  C   UNL     1      -9.486  -5.153  17.209  0.00  0.00    +0.000 A 
ENDBRANCH   7  20
TORSDOF 1
ENDMDL
MODEL 6
REMARK VINA RESULT:      -6.1     15.838     17.231
REMARK  Name = JAK3_Inhibitor.pdbqt.pdb
REMARK  1 active torsions:
REMARK  status: ('A' for Active; 'I' for Inactive)
REMARK    1  A    between atoms: C_7  and  C_20
REMARK                            x       y       z     vdW  Elec       q    Type
REMARK                         _______ _______ _______ _____ _____    ______ ____
ROOT
ATOM      1  O   UNL     1     -23.126   3.901   8.756  0.00  0.00    +0.000 OA
ATOM      2  N   UNL     1     -23.776   2.046   7.482  0.00  0.00    +0.000 N 
ATOM      3  C   UNL     1     -22.385   0.436   8.341  0.00  0.00    +0.000 A 
ATOM      4  C   UNL     1     -23.396   0.705   7.415  0.00  0.00    +0.000 A 
ATOM      5  C   UNL     1     -22.128   1.695   9.021  0.00  0.00    +0.000 C 
ATOM      6  C   UNL     1     -21.846  -0.829   8.458  0.00  0.00    +0.000 A 
ATOM      7  C   UNL     1     -22.330  -1.855   7.628  0.00  0.00    +0.000 A 
ATOM      8  C   UNL     1     -23.044   2.728   8.447  0.00  0.00    +0.000 C 
ATOM      9  C   UNL     1     -23.903  -0.266   6.580  0.00  0.00    +0.000 A 
ATOM     10  C   UNL     1     -21.269   1.929   9.961  0.00  0.00    +0.000 C 
ATOM     11  C   UNL     1     -23.355  -1.545   6.703  0.00  0.00    +0.000 A 
ATOM     12  H   UNL     1     -24.487   2.487   6.916  0.00  0.00    +0.000 HD
ATOM     13  N   UNL     1     -20.206   3.482  11.546  0.00  0.00    +0.000 N 
ATOM     14  C   UNL     1     -20.346   2.237  10.992  0.00  0.00    +0.000 C 
ATOM     15  C   UNL     1     -19.451   1.395  11.612  0.00  0.00    +0.000 C 
ATOM     16  C   UNL     1     -19.234   3.445  12.510  0.00  0.00    +0.000 C 
ATOM     17  C   UNL     1     -18.748   2.160  12.572  0.00  0.00    +0.000 C 
ATOM     18  H   UNL     1     -20.740   4.300  11.283  0.00  0.00    +0.000 HD
ENDROOT
BRANCH   7  20
ATOM     19  N   UNL     1     -20.891  -5.024   9.085  0.00  0.00    +0.000 NA
ATOM     20  C   UNL     1     -21.787  -3.215   7.718  0.00  0.00    +0.000 A 
ATOM     21  C   UNL     1     -21.626  -4.027   6.594  0.00  0.00    +0.000 A 
ATOM     22  C   UNL     1     -21.398  -3.781   8.929  0.00  0.00    +0.000 A 
ATOM     23  C   UNL     1     -21.109  -5.314   6.700  0.00  0.00    +0.000 A 
ATOM     24  C   UNL     1     -20.760  -5.761   7.961  0.00  0.00    +0.000 A 
ENDBRANCH   7  20
TORSDOF 1
ENDMDL
MODEL 7
REMARK VINA RESULT:      -6.0     14.253     15.967
REMARK  Name = JAK3_Inhibitor.pdbqt.pdb
REMARK  1 active torsions:
REMARK  status: ('A' for Active; 'I' for Inactive)
REMARK    1  A    between atoms: C_7  and  C_20
REMARK                            x       y       z     vdW  Elec       q    Type
REMARK                         _______ _______ _______ _____ _____    ______ ____
ROOT
ATOM      1  O   UNL     1      -4.941 -17.243  21.777  0.00  0.00    +0.000 OA
ATOM      2  N   UNL     1      -3.949 -15.999  20.058  0.00  0.00    +0.000 N 
ATOM      3  C   UNL     1      -2.251 -14.971  21.209  0.00  0.00    +0.000 A 
ATOM      4  C   UNL     1      -2.868 -15.121  19.965  0.00  0.00    +0.000 A 
ATOM      5  C   UNL     1      -3.003 -15.810  22.126  0.00  0.00    +0.000 C 
ATOM      6  C   UNL     1      -1.154 -14.147  21.364  0.00  0.00    +0.000 A 
ATOM      7  C   UNL     1      -0.658 -13.456  20.245  0.00  0.00    +0.000 A 
ATOM      8  C   UNL     1      -4.103 -16.469  21.357  0.00  0.00    +0.000 C 
ATOM      9  C   UNL     1      -2.420 -14.466  18.839  0.00  0.00    +0.000 A 
ATOM     10  C   UNL     1      -2.797 -15.987  23.392  0.00  0.00    +0.000 C 
ATOM     11  C   UNL     1      -1.309 -13.634  19.000  0.00  0.00    +0.000 A 
ATOM     12  H   UNL     1      -4.555 -16.272  19.298  0.00  0.00    +0.000 HD
ATOM     13  N   UNL     1      -3.407 -17.040  25.530  0.00  0.00    +0.000 N 
ATOM     14  C   UNL     1      -2.612 -16.214  24.779  0.00  0.00    +0.000 C 
ATOM     15  C   UNL     1      -1.651 -15.683  25.608  0.00  0.00    +0.000 C 
ATOM     16  C   UNL     1      -2.965 -17.041  26.827  0.00  0.00    +0.000 C 
ATOM     17  C   UNL     1      -1.875 -16.206  26.903  0.00  0.00    +0.000 C 
ATOM     18  H   UNL     1      -4.196 -17.567  25.180  0.00  0.00    +0.000 HD
ENDROOT
BRANCH   7  20
ATOM     19  N   UNL     1       1.530 -10.577  21.323  0.00  0.00    +0.000 NA
ATOM     20  C   UNL     1       0.505 -12.570  20.362  0.00  0.00    +0.000 A 
ATOM     21  C   UNL     1       1.696 -12.811  19.673  0.00  0.00    +0.000 A 
ATOM     22  C   UNL     1       0.497 -11.435  21.168  0.00  0.00    +0.000 A 
ATOM     23  C   UNL     1       2.788 -11.960  19.798  0.00  0.00    +0.000 A 
ATOM     24  C   UNL     1       2.653 -10.864  20.631  0.00  0.00    +0.000 A 
ENDBRANCH   7  20
TORSDOF 1
ENDMDL
MODEL 8
REMARK VINA RESULT:      -5.8      4.601      8.083
REMARK  Name = JAK3_Inhibitor.pdbqt.pdb
REMARK  1 active torsions:
REMARK  status: ('A' for Active; 'I' for Inactive)
REMARK    1  A    between atoms: C_7  and  C_20
REMARK                            x       y       z     vdW  Elec       q    Type
REMARK                         _______ _______ _______ _____ _____    ______ ____
ROOT
ATOM      1  O   UNL     1     -12.718  -8.581  25.849  0.00  0.00    +0.000 OA
ATOM      2  N   UNL     1     -12.814  -6.942  24.179  0.00  0.00    +0.000 N 
ATOM      3  C   UNL     1     -10.765  -5.946  24.447  0.00  0.00    +0.000 A 
ATOM      4  C   UNL     1     -11.956  -5.942  23.719  0.00  0.00    +0.000 A 
ATOM      5  C   UNL     1     -10.901  -7.018  25.419  0.00  0.00    +0.000 C 
ATOM      6  C   UNL     1      -9.759  -5.041  24.172  0.00  0.00    +0.000 A 
ATOM      7  C   UNL     1      -9.948  -4.108  23.138  0.00  0.00    +0.000 A 
ATOM      8  C   UNL     1     -12.241  -7.652  25.227  0.00  0.00    +0.000 C 
ATOM      9  C   UNL     1     -12.189  -5.048  22.697  0.00  0.00    +0.000 A 
ATOM     10  C   UNL     1     -10.042  -7.394  26.313  0.00  0.00    +0.000 C 
ATOM     11  C   UNL     1     -11.168  -4.135  22.421  0.00  0.00    +0.000 A 
ATOM     12  H   UNL     1     -13.735  -7.143  23.815  0.00  0.00    +0.000 HD
ATOM     13  N   UNL     1      -9.398  -8.878  28.167  0.00  0.00    +0.000 N 
ATOM     14  C   UNL     1      -9.136  -7.843  27.307  0.00  0.00    +0.000 C 
ATOM     15  C   UNL     1      -7.881  -7.361  27.594  0.00  0.00    +0.000 C 
ATOM     16  C   UNL     1      -8.326  -9.060  28.999  0.00  0.00    +0.000 C 
ATOM     17  C   UNL     1      -7.368  -8.130  28.665  0.00  0.00    +0.000 C 
ATOM     18  H   UNL     1     -10.251  -9.421  28.183  0.00  0.00    +0.000 HD
ENDROOT
BRANCH   7  20
ATOM     19  N   UNL     1      -6.715  -2.167  23.277  0.00  0.00    +0.000 NA
ATOM     20  C   UNL     1      -8.906  -3.128  22.810  0.00  0.00    +0.000 A 
ATOM     21  C   UNL     1      -9.045  -2.219  21.759  0.00  0.00    +0.000 A 
ATOM     22  C   UNL     1      -7.715  -3.043  23.524  0.00  0.00    +0.000 A 
ATOM     23  C   UNL     1      -8.047  -1.298  21.463  0.00  0.00    +0.000 A 
ATOM     24  C   UNL     1      -6.908  -1.315  22.249  0.00  0.00    +0.000 A 
ENDBRANCH   7  20
TORSDOF 1
ENDMDL
MODEL 9
REMARK VINA RESULT:      -5.7     15.859     17.667
REMARK  Name = JAK3_Inhibitor.pdbqt.pdb
REMARK  1 active torsions:
REMARK  status: ('A' for Active; 'I' for Inactive)
REMARK    1  A    between atoms: C_7  and  C_20
REMARK                            x       y       z     vdW  Elec       q    Type
REMARK                         _______ _______ _______ _____ _____    ______ ____
ROOT
ATOM      1  O   UNL     1     -22.056  -7.801   9.612  0.00  0.00    +0.000 OA
ATOM      2  N   UNL     1     -21.780  -5.935   8.223  0.00  0.00    +0.000 N 
ATOM      3  C   UNL     1     -22.225  -4.239   9.702  0.00  0.00    +0.000 A 
ATOM      4  C   UNL     1     -21.878  -4.553   8.386  0.00  0.00    +0.000 A 
ATOM      5  C   UNL     1     -22.348  -5.512  10.392  0.00  0.00    +0.000 C 
ATOM      6  C   UNL     1     -22.382  -2.927  10.103  0.00  0.00    +0.000 A 
ATOM      7  C   UNL     1     -22.185  -1.900   9.164  0.00  0.00    +0.000 A 
ATOM      8  C   UNL     1     -22.054  -6.602   9.411  0.00  0.00    +0.000 C 
ATOM      9  C   UNL     1     -21.674  -3.583   7.430  0.00  0.00    +0.000 A 
ATOM     10  C   UNL     1     -22.656  -5.717  11.633  0.00  0.00    +0.000 C 
ATOM     11  C   UNL     1     -21.833  -2.257   7.840  0.00  0.00    +0.000 A 
ATOM     12  H   UNL     1     -21.542  -6.413   7.365  0.00  0.00    +0.000 HD
ATOM     13  N   UNL     1     -23.071  -7.259  13.505  0.00  0.00    +0.000 N 
ATOM     14  C   UNL     1     -22.988  -5.994  12.983  0.00  0.00    +0.000 C 
ATOM     15  C   UNL     1     -23.278  -5.101  13.988  0.00  0.00    +0.000 C 
ATOM     16  C   UNL     1     -23.411  -7.183  14.830  0.00  0.00    +0.000 C 
ATOM     17  C   UNL     1     -23.546  -5.853  15.156  0.00  0.00    +0.000 C 
ATOM     18  H   UNL     1     -22.906  -8.114  12.991  0.00  0.00    +0.000 HD
ENDROOT
BRANCH   7  20
ATOM     19  N   UNL     1     -23.591   1.228  10.737  0.00  0.00    +0.000 NA
ATOM     20  C   UNL     1     -22.340  -0.492   9.546  0.00  0.00    +0.000 A 
ATOM     21  C   UNL     1     -21.444   0.495   9.128  0.00  0.00    +0.000 A 
ATOM     22  C   UNL     1     -23.388  -0.051  10.348  0.00  0.00    +0.000 A 
ATOM     23  C   UNL     1     -21.608   1.824   9.500  0.00  0.00    +0.000 A 
ATOM     24  C   UNL     1     -22.692   2.135  10.302  0.00  0.00    +0.000 A 
ENDBRANCH   7  20
TORSDOF 1
ENDMDL
