MODEL 1
REMARK VINA RESULT:      -5.8      0.000      0.000
REMARK  Name = Leptomycin.pdbqt.pdb
REMARK  12 active torsions:
REMARK  status: ('A' for Active; 'I' for Inactive)
REMARK    1  A    between atoms: C_2  and  C_4
REMARK    2  A    between atoms: C_5  and  C_6
REMARK    3  A    between atoms: C_6  and  C_7
REMARK    4  A    between atoms: C_10  and  C_11
REMARK    5  A    between atoms: C_10  and  C_21
REMARK    6  A    between atoms: C_12  and  C_13
REMARK    7  A    between atoms: C_23  and  C_25
REMARK    8  A    between atoms: C_25  and  C_27
REMARK    9  A    between atoms: C_27  and  C_29
REMARK   10  A    between atoms: C_29  and  O_30
REMARK   11  A    between atoms: C_29  and  C_32
REMARK   12  A    between atoms: C_38  and  O_40
REMARK                            x       y       z     vdW  Elec       q    Type
REMARK                         _______ _______ _______ _____ _____    ______ ____
ROOT
ATOM      1  C   UNL     1     -11.128  -0.068  26.578  0.00  0.00    +0.000 C 
ATOM      2  C   UNL     1     -12.194  -0.247  25.868  0.00  0.00    +0.000 C 
ATOM      3  C   UNL     1     -13.250   0.820  25.870  0.00  0.00    +0.000 C 
ATOM      4  C   UNL     1      -9.918   0.098  27.298  0.00  0.00    +0.000 C 
ATOM      5  C   UNL     1      -9.999  -0.224  28.782  0.00  0.00    +0.000 C 
ENDROOT
BRANCH   2   6
ATOM      6  C   UNL     1     -12.142  -1.145  24.773  0.00  0.00    +0.000 C 
ATOM      7  C   UNL     1     -12.050  -1.939  23.876  0.00  0.00    +0.000 C 
BRANCH   7   8
ATOM      8  C   UNL     1     -11.838  -3.004  22.796  0.00  0.00    +0.000 C 
BRANCH   8   9
ATOM      9  C   UNL     1     -11.448  -3.981  21.847  0.00  0.00    +0.000 C 
ATOM     10  C   UNL     1     -11.736  -5.425  22.114  0.00  0.00    +0.000 C 
ATOM     11  C   UNL     1     -10.692  -3.630  20.702  0.00  0.00    +0.000 C 
ATOM     12  C   UNL     1      -9.996  -3.128  19.729  0.00  0.00    +0.000 C 
BRANCH  12  13
ATOM     13  C   UNL     1      -9.686  -1.746  19.844  0.00  0.00    +0.000 C 
ATOM     14  C   UNL     1      -9.515  -0.574  20.044  0.00  0.00    +0.000 C 
BRANCH  14  15
ATOM     15  C   UNL     1      -9.402   0.798  20.387  0.00  0.00    +0.000 A 
ATOM     16  O   UNL     1      -9.097   1.097  21.783  0.00  0.00    +0.000 OA
ATOM     17  C   UNL     1      -8.927   2.401  22.241  0.00  0.00    +0.000 A 
ATOM     18  O   UNL     1      -8.636   2.702  23.388  0.00  0.00    +0.000 OA
ATOM     19  C   UNL     1      -9.111   3.360  21.192  0.00  0.00    +0.000 A 
ATOM     20  C   UNL     1      -9.367   3.167  20.042  0.00  0.00    +0.000 A 
ATOM     21  C   UNL     1      -9.554   1.905  19.436  0.00  0.00    +0.000 A 
ATOM     22  C   UNL     1      -9.824   1.784  17.970  0.00  0.00    +0.000 C 
ENDBRANCH  14  15
ENDBRANCH  12  13
BRANCH  12  23
ATOM     23  C   UNL     1      -9.587  -3.968  18.663  0.00  0.00    +0.000 C 
ATOM     24  C   UNL     1      -9.146  -4.871  17.505  0.00  0.00    +0.000 C 
ENDBRANCH  12  23
ENDBRANCH   8   9
ENDBRANCH   7   8
ENDBRANCH   2   6
BRANCH   4  25
ATOM     25  C   UNL     1      -8.619   0.019  26.561  0.00  0.00    +0.000 C 
ATOM     26  O   UNL     1      -7.977   1.027  26.243  0.00  0.00    +0.000 OA
BRANCH  25  27
ATOM     27  C   UNL     1      -8.145  -1.341  26.163  0.00  0.00    +0.000 C 
ATOM     28  C   UNL     1      -7.193  -2.105  27.080  0.00  0.00    +0.000 C 
BRANCH  27  29
ATOM     29  C   UNL     1      -8.362  -1.781  24.789  0.00  0.00    +0.000 C 
BRANCH  29  30
ATOM     30  C   UNL     1      -8.531  -3.133  24.287  0.00  0.00    +0.000 C 
ATOM     31  C   UNL     1      -7.730  -3.613  23.096  0.00  0.00    +0.000 C 
ATOM     32  C   UNL     1      -9.287  -4.127  24.950  0.00  0.00    +0.000 C 
ATOM     33  C   UNL     1     -10.037  -5.157  25.556  0.00  0.00    +0.000 C 
ATOM     34  C   UNL     1     -11.372  -4.824  26.149  0.00  0.00    +0.000 C 
ATOM     35  C   UNL     1      -9.531  -6.333  25.699  0.00  0.00    +0.000 C 
ATOM     36  C   UNL     1      -8.946  -7.619  25.862  0.00  0.00    +0.000 C 
ATOM     37  O   UNL     1      -7.927  -7.806  26.500  0.00  0.00    +0.000 OA
BRANCH  36  38
ATOM     38  O   UNL     1      -9.606  -8.604  25.233  0.00  0.00    +0.000 OA
ATOM     39  H   UNL     1     -10.338  -8.150  24.767  0.00  0.00    +0.000 HD
ENDBRANCH  36  38
ENDBRANCH  29  30
BRANCH  29  40
ATOM     40  O   UNL     1      -8.456  -0.764  23.835  0.00  0.00    +0.000 OA
ATOM     41  H   UNL     1      -8.602   0.112  24.247  0.00  0.00    +0.000 HD
ENDBRANCH  29  40
ENDBRANCH  27  29
ENDBRANCH  25  27
ENDBRANCH   4  25
TORSDOF 12
ENDMDL
MODEL 2
REMARK VINA RESULT:      -5.7      4.024      6.789
REMARK  Name = Leptomycin.pdbqt.pdb
REMARK  12 active torsions:
REMARK  status: ('A' for Active; 'I' for Inactive)
REMARK    1  A    between atoms: C_2  and  C_4
REMARK    2  A    between atoms: C_5  and  C_6
REMARK    3  A    between atoms: C_6  and  C_7
REMARK    4  A    between atoms: C_10  and  C_11
REMARK    5  A    between atoms: C_10  and  C_21
REMARK    6  A    between atoms: C_12  and  C_13
REMARK    7  A    between atoms: C_23  and  C_25
REMARK    8  A    between atoms: C_25  and  C_27
REMARK    9  A    between atoms: C_27  and  C_29
REMARK   10  A    between atoms: C_29  and  O_30
REMARK   11  A    between atoms: C_29  and  C_32
REMARK   12  A    between atoms: C_38  and  O_40
REMARK                            x       y       z     vdW  Elec       q    Type
REMARK                         _______ _______ _______ _____ _____    ______ ____
ROOT
ATOM      1  C   UNL     1      -9.564  -1.530  20.286  0.00  0.00    +0.000 C 
ATOM      2  C   UNL     1      -9.111  -0.530  20.970  0.00  0.00    +0.000 C 
ATOM      3  C   UNL     1     -10.091   0.452  21.545  0.00  0.00    +0.000 C 
ATOM      4  C   UNL     1     -10.006  -2.671  19.570  0.00  0.00    +0.000 C 
ATOM      5  C   UNL     1     -10.354  -2.423  18.111  0.00  0.00    +0.000 C 
ENDROOT
BRANCH   2   6
ATOM      6  C   UNL     1      -7.829  -0.634  21.565  0.00  0.00    +0.000 C 
ATOM      7  C   UNL     1      -6.743  -0.658  22.077  0.00  0.00    +0.000 C 
BRANCH   7   8
ATOM      8  C   UNL     1      -5.365  -0.563  22.739  0.00  0.00    +0.000 C 
BRANCH   8   9
ATOM      9  C   UNL     1      -4.030  -0.388  23.179  0.00  0.00    +0.000 C 
ATOM     10  C   UNL     1      -3.526  -1.183  24.343  0.00  0.00    +0.000 C 
ATOM     11  C   UNL     1      -3.194   0.604  22.611  0.00  0.00    +0.000 C 
ATOM     12  C   UNL     1      -2.586   1.566  21.986  0.00  0.00    +0.000 C 
BRANCH  12  13
ATOM     13  C   UNL     1      -3.383   2.303  21.070  0.00  0.00    +0.000 C 
ATOM     14  C   UNL     1      -4.166   2.869  20.356  0.00  0.00    +0.000 C 
BRANCH  14  15
ATOM     15  C   UNL     1      -5.191   3.480  19.588  0.00  0.00    +0.000 A 
ATOM     16  O   UNL     1      -4.787   4.070  18.316  0.00  0.00    +0.000 OA
ATOM     17  C   UNL     1      -5.701   4.670  17.454  0.00  0.00    +0.000 A 
ATOM     18  O   UNL     1      -5.422   5.145  16.365  0.00  0.00    +0.000 OA
ATOM     19  C   UNL     1      -7.031   4.645  17.990  0.00  0.00    +0.000 A 
ATOM     20  C   UNL     1      -7.409   4.182  19.023  0.00  0.00    +0.000 A 
ATOM     21  C   UNL     1      -6.602   3.535  19.986  0.00  0.00    +0.000 A 
ATOM     22  C   UNL     1      -7.198   2.951  21.227  0.00  0.00    +0.000 C 
ENDBRANCH  14  15
ENDBRANCH  12  13
BRANCH  12  23
ATOM     23  C   UNL     1      -1.221   1.822  22.267  0.00  0.00    +0.000 C 
ATOM     24  C   UNL     1       0.256   2.092  22.577  0.00  0.00    +0.000 C 
ENDBRANCH  12  23
ENDBRANCH   8   9
ENDBRANCH   7   8
ENDBRANCH   2   6
BRANCH   4  25
ATOM     25  C   UNL     1      -9.600  -4.029  20.047  0.00  0.00    +0.000 C 
ATOM     26  O   UNL     1      -9.178  -4.900  19.279  0.00  0.00    +0.000 OA
BRANCH  25  27
ATOM     27  C   UNL     1      -9.782  -4.320  21.502  0.00  0.00    +0.000 C 
ATOM     28  C   UNL     1     -11.191  -4.404  22.083  0.00  0.00    +0.000 C 
BRANCH  27  29
ATOM     29  C   UNL     1      -8.622  -4.225  22.382  0.00  0.00    +0.000 C 
BRANCH  29  30
ATOM     30  C   UNL     1      -8.588  -4.187  23.833  0.00  0.00    +0.000 C 
ATOM     31  C   UNL     1      -8.612  -5.472  24.633  0.00  0.00    +0.000 C 
ATOM     32  C   UNL     1      -8.354  -3.011  24.583  0.00  0.00    +0.000 C 
ATOM     33  C   UNL     1      -8.140  -1.871  25.386  0.00  0.00    +0.000 C 
ATOM     34  C   UNL     1      -8.813  -0.587  25.008  0.00  0.00    +0.000 C 
ATOM     35  C   UNL     1      -7.290  -1.907  26.353  0.00  0.00    +0.000 C 
ATOM     36  C   UNL     1      -6.336  -1.963  27.406  0.00  0.00    +0.000 C 
ATOM     37  O   UNL     1      -5.160  -2.216  27.219  0.00  0.00    +0.000 OA
BRANCH  36  38
ATOM     38  O   UNL     1      -6.850  -1.735  28.624  0.00  0.00    +0.000 OA
ATOM     39  H   UNL     1      -7.053  -0.777  28.629  0.00  0.00    +0.000 HD
ENDBRANCH  36  38
ENDBRANCH  29  30
BRANCH  29  40
ATOM     40  O   UNL     1      -7.379  -4.206  21.746  0.00  0.00    +0.000 OA
ATOM     41  H   UNL     1      -6.905  -5.058  21.843  0.00  0.00    +0.000 HD
ENDBRANCH  29  40
ENDBRANCH  27  29
ENDBRANCH  25  27
ENDBRANCH   4  25
TORSDOF 12
ENDMDL
MODEL 3
REMARK VINA RESULT:      -5.6      4.143      7.088
REMARK  Name = Leptomycin.pdbqt.pdb
REMARK  12 active torsions:
REMARK  status: ('A' for Active; 'I' for Inactive)
REMARK    1  A    between atoms: C_2  and  C_4
REMARK    2  A    between atoms: C_5  and  C_6
REMARK    3  A    between atoms: C_6  and  C_7
REMARK    4  A    between atoms: C_10  and  C_11
REMARK    5  A    between atoms: C_10  and  C_21
REMARK    6  A    between atoms: C_12  and  C_13
REMARK    7  A    between atoms: C_23  and  C_25
REMARK    8  A    between atoms: C_25  and  C_27
REMARK    9  A    between atoms: C_27  and  C_29
REMARK   10  A    between atoms: C_29  and  O_30
REMARK   11  A    between atoms: C_29  and  C_32
REMARK   12  A    between atoms: C_38  and  O_40
REMARK                            x       y       z     vdW  Elec       q    Type
REMARK                         _______ _______ _______ _____ _____    ______ ____
ROOT
ATOM      1  C   UNL     1      -9.275  -1.943  20.536  0.00  0.00    +0.000 C 
ATOM      2  C   UNL     1      -8.943  -0.836  21.117  0.00  0.00    +0.000 C 
ATOM      3  C   UNL     1     -10.030   0.099  21.560  0.00  0.00    +0.000 C 
ATOM      4  C   UNL     1      -9.583  -3.192  19.939  0.00  0.00    +0.000 C 
ATOM      5  C   UNL     1      -9.906  -3.137  18.455  0.00  0.00    +0.000 C 
ENDROOT
BRANCH   2   6
ATOM      6  C   UNL     1      -7.676  -0.750  21.746  0.00  0.00    +0.000 C 
ATOM      7  C   UNL     1      -6.575  -0.681  22.221  0.00  0.00    +0.000 C 
BRANCH   7   8
ATOM      8  C   UNL     1      -5.125  -0.608  22.710  0.00  0.00    +0.000 C 
BRANCH   8   9
ATOM      9  C   UNL     1      -3.790  -0.347  23.105  0.00  0.00    +0.000 C 
ATOM     10  C   UNL     1      -3.215  -1.068  24.285  0.00  0.00    +0.000 C 
ATOM     11  C   UNL     1      -3.023   0.664  22.476  0.00  0.00    +0.000 C 
ATOM     12  C   UNL     1      -2.483   1.630  21.798  0.00  0.00    +0.000 C 
BRANCH  12  13
ATOM     13  C   UNL     1      -3.341   2.288  20.876  0.00  0.00    +0.000 C 
ATOM     14  C   UNL     1      -4.138   2.888  20.207  0.00  0.00    +0.000 C 
BRANCH  14  15
ATOM     15  C   UNL     1      -5.134   3.640  19.534  0.00  0.00    +0.000 A 
ATOM     16  O   UNL     1      -4.681   4.478  18.429  0.00  0.00    +0.000 OA
ATOM     17  C   UNL     1      -5.563   5.240  17.666  0.00  0.00    +0.000 A 
ATOM     18  O   UNL     1      -5.241   5.928  16.710  0.00  0.00    +0.000 OA
ATOM     19  C   UNL     1      -6.915   5.102  18.123  0.00  0.00    +0.000 A 
ATOM     20  C   UNL     1      -7.334   4.437  19.022  0.00  0.00    +0.000 A 
ATOM     21  C   UNL     1      -6.563   3.609  19.868  0.00  0.00    +0.000 A 
ATOM     22  C   UNL     1      -7.207   2.782  20.935  0.00  0.00    +0.000 C 
ENDBRANCH  14  15
ENDBRANCH  12  13
BRANCH  12  23
ATOM     23  C   UNL     1      -1.127   1.967  22.031  0.00  0.00    +0.000 C 
ATOM     24  C   UNL     1       0.343   2.324  22.282  0.00  0.00    +0.000 C 
ENDBRANCH  12  23
ENDBRANCH   8   9
ENDBRANCH   7   8
ENDBRANCH   2   6
BRANCH   4  25
ATOM     25  C   UNL     1      -9.064  -4.445  20.571  0.00  0.00    +0.000 C 
ATOM     26  O   UNL     1      -8.297  -5.214  19.980  0.00  0.00    +0.000 OA
BRANCH  25  27
ATOM     27  C   UNL     1      -9.560  -4.770  21.942  0.00  0.00    +0.000 C 
ATOM     28  C   UNL     1     -10.849  -5.572  22.107  0.00  0.00    +0.000 C 
BRANCH  27  29
ATOM     29  C   UNL     1      -8.972  -4.072  23.081  0.00  0.00    +0.000 C 
BRANCH  29  30
ATOM     30  C   UNL     1      -9.618  -3.182  24.029  0.00  0.00    +0.000 C 
ATOM     31  C   UNL     1      -8.810  -2.506  25.116  0.00  0.00    +0.000 C 
ATOM     32  C   UNL     1     -10.958  -2.746  23.909  0.00  0.00    +0.000 C 
ATOM     33  C   UNL     1     -12.291  -2.288  23.853  0.00  0.00    +0.000 C 
ATOM     34  C   UNL     1     -13.370  -3.256  23.476  0.00  0.00    +0.000 C 
ATOM     35  C   UNL     1     -12.556  -1.037  24.008  0.00  0.00    +0.000 C 
ATOM     36  C   UNL     1     -12.825   0.350  24.166  0.00  0.00    +0.000 C 
ATOM     37  O   UNL     1     -12.362   1.201  23.429  0.00  0.00    +0.000 OA
BRANCH  36  38
ATOM     38  O   UNL     1     -13.616   0.640  25.211  0.00  0.00    +0.000 OA
ATOM     39  H   UNL     1     -14.373   0.025  25.123  0.00  0.00    +0.000 HD
ENDBRANCH  36  38
ENDBRANCH  29  30
BRANCH  29  40
ATOM     40  O   UNL     1      -7.617  -4.322  23.310  0.00  0.00    +0.000 OA
ATOM     41  H   UNL     1      -7.061  -3.541  23.110  0.00  0.00    +0.000 HD
ENDBRANCH  29  40
ENDBRANCH  27  29
ENDBRANCH  25  27
ENDBRANCH   4  25
TORSDOF 12
ENDMDL
MODEL 4
REMARK VINA RESULT:      -5.1     19.563     25.171
REMARK  Name = Leptomycin.pdbqt.pdb
REMARK  12 active torsions:
REMARK  status: ('A' for Active; 'I' for Inactive)
REMARK    1  A    between atoms: C_2  and  C_4
REMARK    2  A    between atoms: C_5  and  C_6
REMARK    3  A    between atoms: C_6  and  C_7
REMARK    4  A    between atoms: C_10  and  C_11
REMARK    5  A    between atoms: C_10  and  C_21
REMARK    6  A    between atoms: C_12  and  C_13
REMARK    7  A    between atoms: C_23  and  C_25
REMARK    8  A    between atoms: C_25  and  C_27
REMARK    9  A    between atoms: C_27  and  C_29
REMARK   10  A    between atoms: C_29  and  O_30
REMARK   11  A    between atoms: C_29  and  C_32
REMARK   12  A    between atoms: C_38  and  O_40
REMARK                            x       y       z     vdW  Elec       q    Type
REMARK                         _______ _______ _______ _____ _____    ______ ____
ROOT
ATOM      1  C   UNL     1      -0.387  -5.790   1.703  0.00  0.00    +0.000 C 
ATOM      2  C   UNL     1       0.218  -6.923   1.548  0.00  0.00    +0.000 C 
ATOM      3  C   UNL     1       0.529  -7.747   2.763  0.00  0.00    +0.000 C 
ATOM      4  C   UNL     1      -1.091  -4.565   1.810  0.00  0.00    +0.000 C 
ATOM      5  C   UNL     1      -0.244  -3.363   2.196  0.00  0.00    +0.000 C 
ENDROOT
BRANCH   2   6
ATOM      6  C   UNL     1       0.133  -7.575   0.292  0.00  0.00    +0.000 C 
ATOM      7  C   UNL     1       0.112  -8.091  -0.793  0.00  0.00    +0.000 C 
BRANCH   7   8
ATOM      8  C   UNL     1       0.178  -8.671  -2.209  0.00  0.00    +0.000 C 
BRANCH   8   9
ATOM      9  C   UNL     1       0.097  -9.336  -3.456  0.00  0.00    +0.000 C 
ATOM     10  C   UNL     1       1.276  -9.320  -4.380  0.00  0.00    +0.000 C 
ATOM     11  C   UNL     1      -1.114  -9.923  -3.898  0.00  0.00    +0.000 C 
ATOM     12  C   UNL     1      -2.303 -10.386  -4.138  0.00  0.00    +0.000 C 
BRANCH  12  13
ATOM     13  C   UNL     1      -3.294 -10.064  -3.173  0.00  0.00    +0.000 C 
ATOM     14  C   UNL     1      -4.146  -9.673  -2.422  0.00  0.00    +0.000 C 
BRANCH  14  15
ATOM     15  C   UNL     1      -5.163  -9.099  -1.617  0.00  0.00    +0.000 A 
ATOM     16  O   UNL     1      -6.531  -9.525  -1.895  0.00  0.00    +0.000 OA
ATOM     17  C   UNL     1      -7.616  -9.062  -1.154  0.00  0.00    +0.000 A 
ATOM     18  O   UNL     1      -8.773  -9.414  -1.322  0.00  0.00    +0.000 OA
ATOM     19  C   UNL     1      -7.210  -8.131  -0.144  0.00  0.00    +0.000 A 
ATOM     20  C   UNL     1      -6.110  -7.747   0.118  0.00  0.00    +0.000 A 
ATOM     21  C   UNL     1      -4.920  -8.137  -0.536  0.00  0.00    +0.000 A 
ATOM     22  C   UNL     1      -3.588  -7.623  -0.088  0.00  0.00    +0.000 C 
ENDBRANCH  14  15
ENDBRANCH  12  13
BRANCH  12  23
ATOM     23  C   UNL     1      -2.528 -11.136  -5.319  0.00  0.00    +0.000 C 
ATOM     24  C   UNL     1      -2.772 -11.942  -6.601  0.00  0.00    +0.000 C 
ENDBRANCH  12  23
ENDBRANCH   8   9
ENDBRANCH   7   8
ENDBRANCH   2   6
BRANCH   4  25
ATOM     25  C   UNL     1      -2.372  -4.396   1.055  0.00  0.00    +0.000 C 
ATOM     26  O   UNL     1      -2.430  -4.490  -0.176  0.00  0.00    +0.000 OA
BRANCH  25  27
ATOM     27  C   UNL     1      -3.588  -4.045   1.849  0.00  0.00    +0.000 C 
ATOM     28  C   UNL     1      -4.516  -5.155   2.336  0.00  0.00    +0.000 C 
BRANCH  27  29
ATOM     29  C   UNL     1      -4.016  -2.651   1.890  0.00  0.00    +0.000 C 
BRANCH  29  30
ATOM     30  C   UNL     1      -4.121  -1.769   3.038  0.00  0.00    +0.000 C 
ATOM     31  C   UNL     1      -5.413  -1.033   3.322  0.00  0.00    +0.000 C 
ATOM     32  C   UNL     1      -3.133  -1.670   4.045  0.00  0.00    +0.000 C 
ATOM     33  C   UNL     1      -2.179  -1.516   5.072  0.00  0.00    +0.000 C 
ATOM     34  C   UNL     1      -0.728  -1.458   4.706  0.00  0.00    +0.000 C 
ATOM     35  C   UNL     1      -2.542  -1.545   6.308  0.00  0.00    +0.000 C 
ATOM     36  C   UNL     1      -2.963  -1.596   7.665  0.00  0.00    +0.000 C 
ATOM     37  O   UNL     1      -3.522  -2.564   8.148  0.00  0.00    +0.000 OA
BRANCH  36  38
ATOM     38  O   UNL     1      -2.709  -0.477   8.360  0.00  0.00    +0.000 OA
ATOM     39  H   UNL     1      -2.224   0.097   7.732  0.00  0.00    +0.000 HD
ENDBRANCH  36  38
ENDBRANCH  29  30
BRANCH  29  40
ATOM     40  O   UNL     1      -4.332  -2.078   0.655  0.00  0.00    +0.000 OA
ATOM     41  H   UNL     1      -3.529  -1.840   0.146  0.00  0.00    +0.000 HD
ENDBRANCH  29  40
ENDBRANCH  27  29
ENDBRANCH  25  27
ENDBRANCH   4  25
TORSDOF 12
ENDMDL
MODEL 5
REMARK VINA RESULT:      -5.0      3.313      7.896
REMARK  Name = Leptomycin.pdbqt.pdb
REMARK  12 active torsions:
REMARK  status: ('A' for Active; 'I' for Inactive)
REMARK    1  A    between atoms: C_2  and  C_4
REMARK    2  A    between atoms: C_5  and  C_6
REMARK    3  A    between atoms: C_6  and  C_7
REMARK    4  A    between atoms: C_10  and  C_11
REMARK    5  A    between atoms: C_10  and  C_21
REMARK    6  A    between atoms: C_12  and  C_13
REMARK    7  A    between atoms: C_23  and  C_25
REMARK    8  A    between atoms: C_25  and  C_27
REMARK    9  A    between atoms: C_27  and  C_29
REMARK   10  A    between atoms: C_29  and  O_30
REMARK   11  A    between atoms: C_29  and  C_32
REMARK   12  A    between atoms: C_38  and  O_40
REMARK                            x       y       z     vdW  Elec       q    Type
REMARK                         _______ _______ _______ _____ _____    ______ ____
ROOT
ATOM      1  C   UNL     1      -9.423  -1.671  20.750  0.00  0.00    +0.000 C 
ATOM      2  C   UNL     1      -9.125  -0.559  21.339  0.00  0.00    +0.000 C 
ATOM      3  C   UNL     1     -10.234   0.271  21.917  0.00  0.00    +0.000 C 
ATOM      4  C   UNL     1      -9.688  -2.922  20.138  0.00  0.00    +0.000 C 
ATOM      5  C   UNL     1     -10.155  -2.849  18.693  0.00  0.00    +0.000 C 
ENDROOT
BRANCH   2   6
ATOM      6  C   UNL     1      -7.814  -0.388  21.851  0.00  0.00    +0.000 C 
ATOM      7  C   UNL     1      -6.685  -0.295  22.250  0.00  0.00    +0.000 C 
BRANCH   7   8
ATOM      8  C   UNL     1      -5.218  -0.278  22.690  0.00  0.00    +0.000 C 
BRANCH   8   9
ATOM      9  C   UNL     1      -3.826  -0.374  22.932  0.00  0.00    +0.000 C 
ATOM     10  C   UNL     1      -2.869  -0.296  21.783  0.00  0.00    +0.000 C 
ATOM     11  C   UNL     1      -3.324  -0.653  24.227  0.00  0.00    +0.000 C 
ATOM     12  C   UNL     1      -3.053  -0.925  25.467  0.00  0.00    +0.000 C 
BRANCH  12  13
ATOM     13  C   UNL     1      -4.176  -1.163  26.303  0.00  0.00    +0.000 C 
ATOM     14  C   UNL     1      -5.154  -1.471  26.929  0.00  0.00    +0.000 C 
BRANCH  14  15
ATOM     15  C   UNL     1      -6.320  -1.943  27.585  0.00  0.00    +0.000 A 
ATOM     16  O   UNL     1      -6.597  -3.371  27.468  0.00  0.00    +0.000 OA
ATOM     17  C   UNL     1      -7.691  -3.967  28.091  0.00  0.00    +0.000 A 
ATOM     18  O   UNL     1      -7.948  -5.160  28.055  0.00  0.00    +0.000 OA
ATOM     19  C   UNL     1      -8.478  -3.009  28.811  0.00  0.00    +0.000 A 
ATOM     20  C   UNL     1      -8.297  -1.835  28.931  0.00  0.00    +0.000 A 
ATOM     21  C   UNL     1      -7.229  -1.100  28.369  0.00  0.00    +0.000 A 
ATOM     22  C   UNL     1      -7.079   0.365  28.628  0.00  0.00    +0.000 C 
ENDBRANCH  14  15
ENDBRANCH  12  13
BRANCH  12  23
ATOM     23  C   UNL     1      -1.699  -0.987  25.882  0.00  0.00    +0.000 C 
ATOM     24  C   UNL     1      -0.236  -1.047  26.335  0.00  0.00    +0.000 C 
ENDBRANCH  12  23
ENDBRANCH   8   9
ENDBRANCH   7   8
ENDBRANCH   2   6
BRANCH   4  25
ATOM     25  C   UNL     1      -9.015  -4.148  20.671  0.00  0.00    +0.000 C 
ATOM     26  O   UNL     1      -8.153  -4.759  20.031  0.00  0.00    +0.000 OA
BRANCH  25  27
ATOM     27  C   UNL     1      -9.471  -4.648  22.003  0.00  0.00    +0.000 C 
ATOM     28  C   UNL     1     -10.695  -5.557  22.088  0.00  0.00    +0.000 C 
BRANCH  27  29
ATOM     29  C   UNL     1      -8.924  -4.028  23.206  0.00  0.00    +0.000 C 
BRANCH  29  30
ATOM     30  C   UNL     1      -9.571  -3.109  24.125  0.00  0.00    +0.000 C 
ATOM     31  C   UNL     1      -8.750  -2.112  24.914  0.00  0.00    +0.000 C 
ATOM     32  C   UNL     1     -10.973  -2.951  24.220  0.00  0.00    +0.000 C 
ATOM     33  C   UNL     1     -12.362  -2.757  24.370  0.00  0.00    +0.000 C 
ATOM     34  C   UNL     1     -13.262  -3.955  24.367  0.00  0.00    +0.000 C 
ATOM     35  C   UNL     1     -12.855  -1.567  24.391  0.00  0.00    +0.000 C 
ATOM     36  C   UNL     1     -13.380  -0.245  24.396  0.00  0.00    +0.000 C 
ATOM     37  O   UNL     1     -13.240   0.524  23.463  0.00  0.00    +0.000 OA
BRANCH  36  38
ATOM     38  O   UNL     1     -14.023   0.085  25.526  0.00  0.00    +0.000 OA
ATOM     39  H   UNL     1     -14.944   0.259  25.242  0.00  0.00    +0.000 HD
ENDBRANCH  36  38
ENDBRANCH  29  30
BRANCH  29  40
ATOM     40  O   UNL     1      -7.618  -4.397  23.537  0.00  0.00    +0.000 OA
ATOM     41  H   UNL     1      -7.448  -4.320  24.498  0.00  0.00    +0.000 HD
ENDBRANCH  29  40
ENDBRANCH  27  29
ENDBRANCH  25  27
ENDBRANCH   4  25
TORSDOF 12
ENDMDL
MODEL 6
REMARK VINA RESULT:      -4.9      4.400      6.765
REMARK  Name = Leptomycin.pdbqt.pdb
REMARK  12 active torsions:
REMARK  status: ('A' for Active; 'I' for Inactive)
REMARK    1  A    between atoms: C_2  and  C_4
REMARK    2  A    between atoms: C_5  and  C_6
REMARK    3  A    between atoms: C_6  and  C_7
REMARK    4  A    between atoms: C_10  and  C_11
REMARK    5  A    between atoms: C_10  and  C_21
REMARK    6  A    between atoms: C_12  and  C_13
REMARK    7  A    between atoms: C_23  and  C_25
REMARK    8  A    between atoms: C_25  and  C_27
REMARK    9  A    between atoms: C_27  and  C_29
REMARK   10  A    between atoms: C_29  and  O_30
REMARK   11  A    between atoms: C_29  and  C_32
REMARK   12  A    between atoms: C_38  and  O_40
REMARK                            x       y       z     vdW  Elec       q    Type
REMARK                         _______ _______ _______ _____ _____    ______ ____
ROOT
ATOM      1  C   UNL     1      -9.586  -1.604  20.379  0.00  0.00    +0.000 C 
ATOM      2  C   UNL     1      -9.007  -0.559  20.875  0.00  0.00    +0.000 C 
ATOM      3  C   UNL     1      -9.843   0.649  21.184  0.00  0.00    +0.000 C 
ATOM      4  C   UNL     1     -10.175  -2.794  19.881  0.00  0.00    +0.000 C 
ATOM      5  C   UNL     1     -10.441  -2.806  18.385  0.00  0.00    +0.000 C 
ENDROOT
BRANCH   2   6
ATOM      6  C   UNL     1      -7.772  -0.719  21.551  0.00  0.00    +0.000 C 
ATOM      7  C   UNL     1      -6.727  -0.790  22.139  0.00  0.00    +0.000 C 
BRANCH   7   8
ATOM      8  C   UNL     1      -5.404  -0.758  22.909  0.00  0.00    +0.000 C 
BRANCH   8   9
ATOM      9  C   UNL     1      -4.111  -0.614  23.470  0.00  0.00    +0.000 C 
ATOM     10  C   UNL     1      -3.770  -1.338  24.735  0.00  0.00    +0.000 C 
ATOM     11  C   UNL     1      -3.168   0.288  22.919  0.00  0.00    +0.000 C 
ATOM     12  C   UNL     1      -2.449   1.167  22.290  0.00  0.00    +0.000 C 
BRANCH  12  13
ATOM     13  C   UNL     1      -3.109   1.867  21.245  0.00  0.00    +0.000 C 
ATOM     14  C   UNL     1      -3.592   2.569  20.398  0.00  0.00    +0.000 C 
BRANCH  14  15
ATOM     15  C   UNL     1      -4.075   3.496  19.439  0.00  0.00    +0.000 A 
ATOM     16  O   UNL     1      -3.084   4.079  18.542  0.00  0.00    +0.000 OA
ATOM     17  C   UNL     1      -3.432   4.976  17.535  0.00  0.00    +0.000 A 
ATOM     18  O   UNL     1      -2.648   5.464  16.736  0.00  0.00    +0.000 OA
ATOM     19  C   UNL     1      -4.840   5.246  17.530  0.00  0.00    +0.000 A 
ATOM     20  C   UNL     1      -5.687   4.801  18.243  0.00  0.00    +0.000 A 
ATOM     21  C   UNL     1      -5.484   3.878  19.293  0.00  0.00    +0.000 A 
ATOM     22  C   UNL     1      -6.634   3.352  20.093  0.00  0.00    +0.000 C 
ENDBRANCH  14  15
ENDBRANCH  12  13
BRANCH  12  23
ATOM     23  C   UNL     1      -1.106   1.377  22.691  0.00  0.00    +0.000 C 
ATOM     24  C   UNL     1       0.347   1.611  23.120  0.00  0.00    +0.000 C 
ENDBRANCH  12  23
ENDBRANCH   8   9
ENDBRANCH   7   8
ENDBRANCH   2   6
BRANCH   4  25
ATOM     25  C   UNL     1      -9.991  -4.068  20.644  0.00  0.00    +0.000 C 
ATOM     26  O   UNL     1      -9.316  -5.007  20.208  0.00  0.00    +0.000 OA
BRANCH  25  27
ATOM     27  C   UNL     1     -10.713  -4.191  21.946  0.00  0.00    +0.000 C 
ATOM     28  C   UNL     1     -11.760  -3.147  22.329  0.00  0.00    +0.000 C 
BRANCH  27  29
ATOM     29  C   UNL     1     -10.199  -5.124  22.943  0.00  0.00    +0.000 C 
BRANCH  29  30
ATOM     30  C   UNL     1      -9.000  -5.012  23.756  0.00  0.00    +0.000 C 
ATOM     31  C   UNL     1      -7.969  -3.946  23.453  0.00  0.00    +0.000 C 
ATOM     32  C   UNL     1      -8.793  -5.733  24.954  0.00  0.00    +0.000 C 
ATOM     33  C   UNL     1      -8.522  -6.435  26.147  0.00  0.00    +0.000 C 
ATOM     34  C   UNL     1      -8.874  -7.888  26.225  0.00  0.00    +0.000 C 
ATOM     35  C   UNL     1      -8.090  -5.807  27.187  0.00  0.00    +0.000 C 
ATOM     36  C   UNL     1      -7.630  -5.093  28.327  0.00  0.00    +0.000 C 
ATOM     37  O   UNL     1      -8.265  -4.193  28.844  0.00  0.00    +0.000 OA
BRANCH  36  38
ATOM     38  O   UNL     1      -6.424  -5.484  28.768  0.00  0.00    +0.000 OA
ATOM     39  H   UNL     1      -6.004  -5.908  27.992  0.00  0.00    +0.000 HD
ENDBRANCH  36  38
ENDBRANCH  29  30
BRANCH  29  40
ATOM     40  O   UNL     1     -10.983  -6.256  23.174  0.00  0.00    +0.000 OA
ATOM     41  H   UNL     1     -11.920  -6.025  23.341  0.00  0.00    +0.000 HD
ENDBRANCH  29  40
ENDBRANCH  27  29
ENDBRANCH  25  27
ENDBRANCH   4  25
TORSDOF 12
ENDMDL
MODEL 7
REMARK VINA RESULT:      -4.7      2.405      6.861
REMARK  Name = Leptomycin.pdbqt.pdb
REMARK  12 active torsions:
REMARK  status: ('A' for Active; 'I' for Inactive)
REMARK    1  A    between atoms: C_2  and  C_4
REMARK    2  A    between atoms: C_5  and  C_6
REMARK    3  A    between atoms: C_6  and  C_7
REMARK    4  A    between atoms: C_10  and  C_11
REMARK    5  A    between atoms: C_10  and  C_21
REMARK    6  A    between atoms: C_12  and  C_13
REMARK    7  A    between atoms: C_23  and  C_25
REMARK    8  A    between atoms: C_25  and  C_27
REMARK    9  A    between atoms: C_27  and  C_29
REMARK   10  A    between atoms: C_29  and  O_30
REMARK   11  A    between atoms: C_29  and  C_32
REMARK   12  A    between atoms: C_38  and  O_40
REMARK                            x       y       z     vdW  Elec       q    Type
REMARK                         _______ _______ _______ _____ _____    ______ ____
ROOT
ATOM      1  C   UNL     1      -9.477  -2.041  20.150  0.00  0.00    +0.000 C 
ATOM      2  C   UNL     1      -8.987  -0.886  20.465  0.00  0.00    +0.000 C 
ATOM      3  C   UNL     1      -9.825   0.339  20.241  0.00  0.00    +0.000 C 
ATOM      4  C   UNL     1      -9.984  -3.335  19.870  0.00  0.00    +0.000 C 
ATOM      5  C   UNL     1      -9.907  -3.758  18.412  0.00  0.00    +0.000 C 
ENDROOT
BRANCH   2   6
ATOM      6  C   UNL     1      -7.942  -0.826  21.421  0.00  0.00    +0.000 C 
ATOM      7  C   UNL     1      -7.064  -0.840  22.240  0.00  0.00    +0.000 C 
BRANCH   7   8
ATOM      8  C   UNL     1      -5.966  -0.980  23.299  0.00  0.00    +0.000 C 
BRANCH   8   9
ATOM      9  C   UNL     1      -5.088  -1.042  24.408  0.00  0.00    +0.000 C 
ATOM     10  C   UNL     1      -3.618  -1.212  24.179  0.00  0.00    +0.000 C 
ATOM     11  C   UNL     1      -5.582  -1.057  25.736  0.00  0.00    +0.000 C 
ATOM     12  C   UNL     1      -6.214  -1.075  26.869  0.00  0.00    +0.000 C 
BRANCH  12  13
ATOM     13  C   UNL     1      -7.632  -1.122  26.782  0.00  0.00    +0.000 C 
ATOM     14  C   UNL     1      -8.812  -1.217  26.583  0.00  0.00    +0.000 C 
BRANCH  14  15
ATOM     15  C   UNL     1     -10.175  -1.389  26.228  0.00  0.00    +0.000 A 
ATOM     16  O   UNL     1     -10.759  -0.363  25.370  0.00  0.00    +0.000 OA
ATOM     17  C   UNL     1     -12.076  -0.433  24.923  0.00  0.00    +0.000 A 
ATOM     18  O   UNL     1     -12.600   0.379  24.176  0.00  0.00    +0.000 OA
ATOM     19  C   UNL     1     -12.746  -1.595  25.427  0.00  0.00    +0.000 A 
ATOM     20  C   UNL     1     -12.317  -2.456  26.134  0.00  0.00    +0.000 A 
ATOM     21  C   UNL     1     -11.004  -2.524  26.651  0.00  0.00    +0.000 A 
ATOM     22  C   UNL     1     -10.563  -3.681  27.490  0.00  0.00    +0.000 C 
ENDBRANCH  14  15
ENDBRANCH  12  13
BRANCH  12  23
ATOM     23  C   UNL     1      -5.472  -1.067  28.076  0.00  0.00    +0.000 C 
ATOM     24  C   UNL     1      -4.669  -1.052  29.382  0.00  0.00    +0.000 C 
ENDBRANCH  12  23
ENDBRANCH   8   9
ENDBRANCH   7   8
ENDBRANCH   2   6
BRANCH   4  25
ATOM     25  C   UNL     1     -10.024  -4.352  20.968  0.00  0.00    +0.000 C 
ATOM     26  O   UNL     1      -9.505  -5.467  20.853  0.00  0.00    +0.000 OA
BRANCH  25  27
ATOM     27  C   UNL     1     -10.776  -3.985  22.205  0.00  0.00    +0.000 C 
ATOM     28  C   UNL     1     -11.634  -2.722  22.220  0.00  0.00    +0.000 C 
BRANCH  27  29
ATOM     29  C   UNL     1     -10.445  -4.670  23.451  0.00  0.00    +0.000 C 
BRANCH  29  30
ATOM     30  C   UNL     1      -9.148  -4.817  24.086  0.00  0.00    +0.000 C 
ATOM     31  C   UNL     1      -8.033  -3.838  23.785  0.00  0.00    +0.000 C 
ATOM     32  C   UNL     1      -8.885  -5.733  25.131  0.00  0.00    +0.000 C 
ATOM     33  C   UNL     1      -8.556  -6.635  26.164  0.00  0.00    +0.000 C 
ATOM     34  C   UNL     1      -9.082  -8.036  26.093  0.00  0.00    +0.000 C 
ATOM     35  C   UNL     1      -7.916  -6.227  27.205  0.00  0.00    +0.000 C 
ATOM     36  C   UNL     1      -7.223  -5.752  28.352  0.00  0.00    +0.000 C 
ATOM     37  O   UNL     1      -7.663  -4.878  29.076  0.00  0.00    +0.000 OA
BRANCH  36  38
ATOM     38  O   UNL     1      -6.032  -6.338  28.555  0.00  0.00    +0.000 OA
ATOM     39  H   UNL     1      -6.151  -7.254  28.230  0.00  0.00    +0.000 HD
ENDBRANCH  36  38
ENDBRANCH  29  30
BRANCH  29  40
ATOM     40  O   UNL     1     -11.525  -5.224  24.142  0.00  0.00    +0.000 OA
ATOM     41  H   UNL     1     -11.511  -4.989  25.093  0.00  0.00    +0.000 HD
ENDBRANCH  29  40
ENDBRANCH  27  29
ENDBRANCH  25  27
ENDBRANCH   4  25
TORSDOF 12
ENDMDL
MODEL 8
REMARK VINA RESULT:      -4.5      5.474      8.880
REMARK  Name = Leptomycin.pdbqt.pdb
REMARK  12 active torsions:
REMARK  status: ('A' for Active; 'I' for Inactive)
REMARK    1  A    between atoms: C_2  and  C_4
REMARK    2  A    between atoms: C_5  and  C_6
REMARK    3  A    between atoms: C_6  and  C_7
REMARK    4  A    between atoms: C_10  and  C_11
REMARK    5  A    between atoms: C_10  and  C_21
REMARK    6  A    between atoms: C_12  and  C_13
REMARK    7  A    between atoms: C_23  and  C_25
REMARK    8  A    between atoms: C_25  and  C_27
REMARK    9  A    between atoms: C_27  and  C_29
REMARK   10  A    between atoms: C_29  and  O_30
REMARK   11  A    between atoms: C_29  and  C_32
REMARK   12  A    between atoms: C_38  and  O_40
REMARK                            x       y       z     vdW  Elec       q    Type
REMARK                         _______ _______ _______ _____ _____    ______ ____
ROOT
ATOM      1  C   UNL     1      -2.077  -1.788  25.945  0.00  0.00    +0.000 C 
ATOM      2  C   UNL     1      -3.231  -1.358  26.340  0.00  0.00    +0.000 C 
ATOM      3  C   UNL     1      -3.431  -1.065  27.799  0.00  0.00    +0.000 C 
ATOM      4  C   UNL     1      -0.819  -2.214  25.450  0.00  0.00    +0.000 C 
ATOM      5  C   UNL     1      -0.528  -3.698  25.613  0.00  0.00    +0.000 C 
ENDROOT
BRANCH   2   6
ATOM      6  C   UNL     1      -4.081  -0.725  25.400  0.00  0.00    +0.000 C 
ATOM      7  C   UNL     1      -4.759  -0.139  24.600  0.00  0.00    +0.000 C 
BRANCH   7   8
ATOM      8  C   UNL     1      -5.538   0.700  23.582  0.00  0.00    +0.000 C 
BRANCH   8   9
ATOM      9  C   UNL     1      -6.192   1.636  22.744  0.00  0.00    +0.000 C 
ATOM     10  C   UNL     1      -5.851   3.090  22.854  0.00  0.00    +0.000 C 
ATOM     11  C   UNL     1      -7.242   1.240  21.880  0.00  0.00    +0.000 C 
ATOM     12  C   UNL     1      -8.183   0.698  21.170  0.00  0.00    +0.000 C 
BRANCH  12  13
ATOM     13  C   UNL     1      -8.436  -0.676  21.429  0.00  0.00    +0.000 C 
ATOM     14  C   UNL     1      -8.780  -1.800  21.674  0.00  0.00    +0.000 C 
BRANCH  14  15
ATOM     15  C   UNL     1      -9.315  -3.079  21.975  0.00  0.00    +0.000 A 
ATOM     16  O   UNL     1      -9.725  -3.303  23.357  0.00  0.00    +0.000 OA
ATOM     17  C   UNL     1     -10.296  -4.502  23.776  0.00  0.00    +0.000 A 
ATOM     18  O   UNL     1     -10.689  -4.727  24.910  0.00  0.00    +0.000 OA
ATOM     19  C   UNL     1     -10.392  -5.447  22.702  0.00  0.00    +0.000 A 
ATOM     20  C   UNL     1     -10.066  -5.315  21.562  0.00  0.00    +0.000 A 
ATOM     21  C   UNL     1      -9.489  -4.156  20.994  0.00  0.00    +0.000 A 
ATOM     22  C   UNL     1      -9.164  -4.090  19.536  0.00  0.00    +0.000 C 
ENDBRANCH  14  15
ENDBRANCH  12  13
BRANCH  12  23
ATOM     23  C   UNL     1      -8.887   1.493  20.231  0.00  0.00    +0.000 C 
ATOM     24  C   UNL     1      -9.645   2.348  19.209  0.00  0.00    +0.000 C 
ENDBRANCH  12  23
ENDBRANCH   8   9
ENDBRANCH   7   8
ENDBRANCH   2   6
BRANCH   4  25
ATOM     25  C   UNL     1      -0.150  -1.409  24.381  0.00  0.00    +0.000 C 
ATOM     26  O   UNL     1      -0.028  -1.822  23.223  0.00  0.00    +0.000 OA
BRANCH  25  27
ATOM     27  C   UNL     1       0.428  -0.092  24.784  0.00  0.00    +0.000 C 
ATOM     28  C   UNL     1       1.887  -0.012  25.228  0.00  0.00    +0.000 C 
BRANCH  27  29
ATOM     29  C   UNL     1      -0.481   1.024  25.027  0.00  0.00    +0.000 C 
BRANCH  29  30
ATOM     30  C   UNL     1      -1.226   1.811  24.061  0.00  0.00    +0.000 C 
ATOM     31  C   UNL     1      -1.354   3.310  24.231  0.00  0.00    +0.000 C 
ATOM     32  C   UNL     1      -1.715   1.297  22.838  0.00  0.00    +0.000 C 
ATOM     33  C   UNL     1      -2.239   0.839  21.611  0.00  0.00    +0.000 C 
ATOM     34  C   UNL     1      -2.901  -0.504  21.565  0.00  0.00    +0.000 C 
ATOM     35  C   UNL     1      -2.047   1.512  20.529  0.00  0.00    +0.000 C 
ATOM     36  C   UNL     1      -1.808   2.263  19.345  0.00  0.00    +0.000 C 
ATOM     37  O   UNL     1      -0.690   2.503  18.929  0.00  0.00    +0.000 OA
BRANCH  36  38
ATOM     38  O   UNL     1      -2.923   2.699  18.739  0.00  0.00    +0.000 OA
ATOM     39  H   UNL     1      -3.445   1.887  18.572  0.00  0.00    +0.000 HD
ENDBRANCH  36  38
ENDBRANCH  29  30
BRANCH  29  40
ATOM     40  O   UNL     1      -0.692   1.352  26.368  0.00  0.00    +0.000 OA
ATOM     41  H   UNL     1      -0.155   0.797  26.970  0.00  0.00    +0.000 HD
ENDBRANCH  29  40
ENDBRANCH  27  29
ENDBRANCH  25  27
ENDBRANCH   4  25
TORSDOF 12
ENDMDL
MODEL 9
REMARK VINA RESULT:      -4.5     22.511     26.857
REMARK  Name = Leptomycin.pdbqt.pdb
REMARK  12 active torsions:
REMARK  status: ('A' for Active; 'I' for Inactive)
REMARK    1  A    between atoms: C_2  and  C_4
REMARK    2  A    between atoms: C_5  and  C_6
REMARK    3  A    between atoms: C_6  and  C_7
REMARK    4  A    between atoms: C_10  and  C_11
REMARK    5  A    between atoms: C_10  and  C_21
REMARK    6  A    between atoms: C_12  and  C_13
REMARK    7  A    between atoms: C_23  and  C_25
REMARK    8  A    between atoms: C_25  and  C_27
REMARK    9  A    between atoms: C_27  and  C_29
REMARK   10  A    between atoms: C_29  and  O_30
REMARK   11  A    between atoms: C_29  and  C_32
REMARK   12  A    between atoms: C_38  and  O_40
REMARK                            x       y       z     vdW  Elec       q    Type
REMARK                         _______ _______ _______ _____ _____    ______ ____
ROOT
ATOM      1  C   UNL     1       0.137  -5.980   1.193  0.00  0.00    +0.000 C 
ATOM      2  C   UNL     1       0.250  -7.268   1.172  0.00  0.00    +0.000 C 
ATOM      3  C   UNL     1      -0.258  -8.056   2.344  0.00  0.00    +0.000 C 
ATOM      4  C   UNL     1      -0.007  -4.570   1.140  0.00  0.00    +0.000 C 
ATOM      5  C   UNL     1       1.046  -3.784   1.906  0.00  0.00    +0.000 C 
ENDROOT
BRANCH   2   6
ATOM      6  C   UNL     1       0.375  -7.921  -0.080  0.00  0.00    +0.000 C 
ATOM      7  C   UNL     1       0.547  -8.474  -1.133  0.00  0.00    +0.000 C 
BRANCH   7   8
ATOM      8  C   UNL     1       0.889  -9.168  -2.455  0.00  0.00    +0.000 C 
BRANCH   8   9
ATOM      9  C   UNL     1       1.006  -9.819  -3.707  0.00  0.00    +0.000 C 
ATOM     10  C   UNL     1       2.090 -10.831  -3.915  0.00  0.00    +0.000 C 
ATOM     11  C   UNL     1       0.188  -9.453  -4.804  0.00  0.00    +0.000 C 
ATOM     12  C   UNL     1      -0.632  -8.976  -5.690  0.00  0.00    +0.000 C 
BRANCH  12  13
ATOM     13  C   UNL     1      -1.405  -7.859  -5.275  0.00  0.00    +0.000 C 
ATOM     14  C   UNL     1      -2.040  -6.960  -4.795  0.00  0.00    +0.000 C 
BRANCH  14  15
ATOM     15  C   UNL     1      -2.757  -5.949  -4.104  0.00  0.00    +0.000 A 
ATOM     16  O   UNL     1      -3.215  -4.816  -4.902  0.00  0.00    +0.000 OA
ATOM     17  C   UNL     1      -3.958  -3.775  -4.352  0.00  0.00    +0.000 A 
ATOM     18  O   UNL     1      -4.395  -2.824  -4.981  0.00  0.00    +0.000 OA
ATOM     19  C   UNL     1      -4.172  -3.961  -2.947  0.00  0.00    +0.000 A 
ATOM     20  C   UNL     1      -3.814  -4.862  -2.251  0.00  0.00    +0.000 A 
ATOM     21  C   UNL     1      -3.070  -5.987  -2.671  0.00  0.00    +0.000 A 
ATOM     22  C   UNL     1      -2.717  -7.082  -1.715  0.00  0.00    +0.000 C 
ENDBRANCH  14  15
ENDBRANCH  12  13
BRANCH  12  23
ATOM     23  C   UNL     1      -0.683  -9.569  -6.976  0.00  0.00    +0.000 C 
ATOM     24  C   UNL     1      -0.734 -10.204  -8.371  0.00  0.00    +0.000 C 
ENDBRANCH  12  23
ENDBRANCH   8   9
ENDBRANCH   7   8
ENDBRANCH   2   6
BRANCH   4  25
ATOM     25  C   UNL     1      -0.743  -3.958  -0.009  0.00  0.00    +0.000 C 
ATOM     26  O   UNL     1      -0.483  -4.238  -1.184  0.00  0.00    +0.000 OA
BRANCH  25  27
ATOM     27  C   UNL     1      -1.781  -2.934   0.317  0.00  0.00    +0.000 C 
ATOM     28  C   UNL     1      -1.601  -1.498  -0.169  0.00  0.00    +0.000 C 
BRANCH  27  29
ATOM     29  C   UNL     1      -2.782  -3.253   1.330  0.00  0.00    +0.000 C 
BRANCH  29  30
ATOM     30  C   UNL     1      -4.132  -3.754   1.143  0.00  0.00    +0.000 C 
ATOM     31  C   UNL     1      -5.197  -2.870   0.531  0.00  0.00    +0.000 C 
ATOM     32  C   UNL     1      -4.502  -5.105   1.335  0.00  0.00    +0.000 C 
ATOM     33  C   UNL     1      -4.936  -6.434   1.524  0.00  0.00    +0.000 C 
ATOM     34  C   UNL     1      -4.432  -7.194   2.712  0.00  0.00    +0.000 C 
ATOM     35  C   UNL     1      -5.656  -7.017   0.629  0.00  0.00    +0.000 C 
ATOM     36  C   UNL     1      -6.437  -7.646  -0.379  0.00  0.00    +0.000 C 
ATOM     37  O   UNL     1      -6.044  -7.797  -1.521  0.00  0.00    +0.000 OA
BRANCH  36  38
ATOM     38  O   UNL     1      -7.651  -8.040   0.035  0.00  0.00    +0.000 OA
ATOM     39  H   UNL     1      -7.841  -8.844  -0.492  0.00  0.00    +0.000 HD
ENDBRANCH  36  38
ENDBRANCH  29  30
BRANCH  29  40
ATOM     40  O   UNL     1      -2.374  -3.091   2.656  0.00  0.00    +0.000 OA
ATOM     41  H   UNL     1      -1.706  -2.381   2.750  0.00  0.00    +0.000 HD
ENDBRANCH  29  40
ENDBRANCH  27  29
ENDBRANCH  25  27
ENDBRANCH   4  25
TORSDOF 12
ENDMDL
