MODEL 1
REMARK VINA RESULT:      -7.4      0.000      0.000
REMARK  Name = Lobelin.pdbqt.pdb
REMARK  3 active torsions:
REMARK  status: ('A' for Active; 'I' for Inactive)
REMARK    1  A    between atoms: C_9  and  O_10
REMARK    2  A    between atoms: C_9  and  C_12
REMARK    3  A    between atoms: C_19  and  C_21
REMARK                            x       y       z     vdW  Elec       q    Type
REMARK                         _______ _______ _______ _____ _____    ______ ____
ROOT
ATOM      1  N   UNL     1     -11.330  -4.886  23.217  0.00  0.00    +0.000 N 
ATOM      2  C   UNL     1     -12.304  -5.198  24.258  0.00  0.00    +0.000 C 
ATOM      3  C   UNL     1     -11.407  -3.618  22.497  0.00  0.00    +0.000 C 
ATOM      4  C   UNL     1     -13.260  -4.167  24.510  0.00  0.00    +0.000 C 
ATOM      5  C   UNL     1     -12.455  -2.749  22.927  0.00  0.00    +0.000 C 
ATOM      6  C   UNL     1     -13.566  -2.786  23.959  0.00  0.00    +0.000 C 
ATOM      7  C   UNL     1     -10.363  -5.882  22.810  0.00  0.00    +0.000 C 
ATOM      8  C   UNL     1     -12.294  -6.426  24.973  0.00  0.00    +0.000 C 
ATOM      9  C   UNL     1     -12.262  -7.644  25.700  0.00  0.00    +0.000 C 
ATOM     10  C   UNL     1     -10.502  -3.278  21.460  0.00  0.00    +0.000 C 
ATOM     11  C   UNL     1      -9.562  -2.920  20.430  0.00  0.00    +0.000 C 
ATOM     12  O   UNL     1      -8.974  -1.851  20.506  0.00  0.00    +0.000 OA
ENDROOT
BRANCH   9  13
ATOM     13  C   UNL     1     -11.155  -8.060  26.562  0.00  0.00    +0.000 A 
ATOM     14  C   UNL     1     -11.398  -8.700  27.780  0.00  0.00    +0.000 A 
ATOM     15  C   UNL     1     -10.344  -9.096  28.602  0.00  0.00    +0.000 A 
ATOM     16  C   UNL     1      -9.030  -8.857  28.211  0.00  0.00    +0.000 A 
ATOM     17  C   UNL     1      -8.772  -8.219  27.001  0.00  0.00    +0.000 A 
ATOM     18  C   UNL     1      -9.830  -7.824  26.184  0.00  0.00    +0.000 A 
ENDBRANCH   9  13
BRANCH  11  19
ATOM     19  C   UNL     1      -9.353  -3.855  19.312  0.00  0.00    +0.000 A 
ATOM     20  C   UNL     1      -9.920  -3.624  18.059  0.00  0.00    +0.000 A 
ATOM     21  C   UNL     1      -9.699  -4.523  17.020  0.00  0.00    +0.000 A 
ATOM     22  C   UNL     1      -8.910  -5.651  17.231  0.00  0.00    +0.000 A 
ATOM     23  C   UNL     1      -8.339  -5.881  18.482  0.00  0.00    +0.000 A 
ATOM     24  C   UNL     1      -8.559  -4.983  19.524  0.00  0.00    +0.000 A 
ENDBRANCH  11  19
BRANCH   9  25
ATOM     25  O   UNL     1     -13.335  -8.502  25.609  0.00  0.00    +0.000 OA
ATOM     26  H   UNL     1     -14.154  -8.095  25.938  0.00  0.00    +0.000 HD
ENDBRANCH   9  25
TORSDOF 3
ENDMDL
MODEL 2
REMARK VINA RESULT:      -7.2      1.514      8.001
REMARK  Name = Lobelin.pdbqt.pdb
REMARK  3 active torsions:
REMARK  status: ('A' for Active; 'I' for Inactive)
REMARK    1  A    between atoms: C_9  and  O_10
REMARK    2  A    between atoms: C_9  and  C_12
REMARK    3  A    between atoms: C_19  and  C_21
REMARK                            x       y       z     vdW  Elec       q    Type
REMARK                         _______ _______ _______ _____ _____    ______ ____
ROOT
ATOM      1  N   UNL     1     -10.828  -5.374  23.757  0.00  0.00    +0.000 N 
ATOM      2  C   UNL     1     -11.512  -4.485  22.824  0.00  0.00    +0.000 C 
ATOM      3  C   UNL     1     -11.544  -5.917  24.909  0.00  0.00    +0.000 C 
ATOM      4  C   UNL     1     -12.890  -4.253  23.118  0.00  0.00    +0.000 C 
ATOM      5  C   UNL     1     -12.918  -5.538  24.992  0.00  0.00    +0.000 C 
ATOM      6  C   UNL     1     -13.877  -4.680  24.189  0.00  0.00    +0.000 C 
ATOM      7  C   UNL     1      -9.410  -5.618  23.616  0.00  0.00    +0.000 C 
ATOM      8  C   UNL     1     -10.860  -3.905  21.702  0.00  0.00    +0.000 C 
ATOM      9  C   UNL     1     -10.208  -3.350  20.570  0.00  0.00    +0.000 C 
ATOM     10  C   UNL     1     -10.919  -6.763  25.859  0.00  0.00    +0.000 C 
ATOM     11  C   UNL     1     -10.294  -7.649  26.806  0.00  0.00    +0.000 C 
ATOM     12  O   UNL     1     -10.825  -8.721  27.061  0.00  0.00    +0.000 OA
ENDROOT
BRANCH   9  13
ATOM     13  C   UNL     1      -9.655  -4.140  19.469  0.00  0.00    +0.000 A 
ATOM     14  C   UNL     1      -8.735  -5.163  19.714  0.00  0.00    +0.000 A 
ATOM     15  C   UNL     1      -8.208  -5.917  18.666  0.00  0.00    +0.000 A 
ATOM     16  C   UNL     1      -8.598  -5.653  17.357  0.00  0.00    +0.000 A 
ATOM     17  C   UNL     1      -9.512  -4.637  17.096  0.00  0.00    +0.000 A 
ATOM     18  C   UNL     1     -10.035  -3.887  18.148  0.00  0.00    +0.000 A 
ENDBRANCH   9  13
BRANCH  11  19
ATOM     19  C   UNL     1      -9.036  -7.223  27.443  0.00  0.00    +0.000 A 
ATOM     20  C   UNL     1      -8.150  -8.153  27.987  0.00  0.00    +0.000 A 
ATOM     21  C   UNL     1      -6.965  -7.720  28.577  0.00  0.00    +0.000 A 
ATOM     22  C   UNL     1      -6.667  -6.360  28.623  0.00  0.00    +0.000 A 
ATOM     23  C   UNL     1      -7.552  -5.431  28.077  0.00  0.00    +0.000 A 
ATOM     24  C   UNL     1      -8.736  -5.862  27.486  0.00  0.00    +0.000 A 
ENDBRANCH  11  19
BRANCH   9  25
ATOM     25  O   UNL     1     -10.084  -1.983  20.477  0.00  0.00    +0.000 OA
ATOM     26  H   UNL     1      -9.260  -1.723  20.031  0.00  0.00    +0.000 HD
ENDBRANCH   9  25
TORSDOF 3
ENDMDL
MODEL 3
REMARK VINA RESULT:      -6.7      5.181      8.119
REMARK  Name = Lobelin.pdbqt.pdb
REMARK  3 active torsions:
REMARK  status: ('A' for Active; 'I' for Inactive)
REMARK    1  A    between atoms: C_9  and  O_10
REMARK    2  A    between atoms: C_9  and  C_12
REMARK    3  A    between atoms: C_19  and  C_21
REMARK                            x       y       z     vdW  Elec       q    Type
REMARK                         _______ _______ _______ _____ _____    ______ ____
ROOT
ATOM      1  N   UNL     1      -9.116   0.142  21.116  0.00  0.00    +0.000 N 
ATOM      2  C   UNL     1      -9.383  -1.071  21.882  0.00  0.00    +0.000 C 
ATOM      3  C   UNL     1      -8.562   1.319  21.778  0.00  0.00    +0.000 C 
ATOM      4  C   UNL     1      -9.023  -0.999  23.263  0.00  0.00    +0.000 C 
ATOM      5  C   UNL     1      -8.287   1.149  23.170  0.00  0.00    +0.000 C 
ATOM      6  C   UNL     1      -8.430   0.041  24.196  0.00  0.00    +0.000 C 
ATOM      7  C   UNL     1      -9.515   0.223  19.728  0.00  0.00    +0.000 C 
ATOM      8  C   UNL     1      -9.947  -2.238  21.297  0.00  0.00    +0.000 C 
ATOM      9  C   UNL     1     -10.486  -3.407  20.700  0.00  0.00    +0.000 C 
ATOM     10  C   UNL     1      -8.308   2.530  21.086  0.00  0.00    +0.000 C 
ATOM     11  C   UNL     1      -8.019   3.748  20.375  0.00  0.00    +0.000 C 
ATOM     12  O   UNL     1      -6.903   4.239  20.463  0.00  0.00    +0.000 OA
ENDROOT
BRANCH   9  13
ATOM     13  C   UNL     1      -9.821  -4.175  19.647  0.00  0.00    +0.000 A 
ATOM     14  C   UNL     1      -8.916  -5.192  19.966  0.00  0.00    +0.000 A 
ATOM     15  C   UNL     1      -8.283  -5.925  18.964  0.00  0.00    +0.000 A 
ATOM     16  C   UNL     1      -8.549  -5.647  17.627  0.00  0.00    +0.000 A 
ATOM     17  C   UNL     1      -9.446  -4.637  17.293  0.00  0.00    +0.000 A 
ATOM     18  C   UNL     1     -10.076  -3.907  18.299  0.00  0.00    +0.000 A 
ENDBRANCH   9  13
BRANCH  11  19
ATOM     19  C   UNL     1      -9.090   4.365  19.574  0.00  0.00    +0.000 A 
ATOM     20  C   UNL     1      -9.813   5.459  20.052  0.00  0.00    +0.000 A 
ATOM     21  C   UNL     1     -10.815   6.025  19.268  0.00  0.00    +0.000 A 
ATOM     22  C   UNL     1     -11.093   5.501  18.008  0.00  0.00    +0.000 A 
ATOM     23  C   UNL     1     -10.369   4.411  17.529  0.00  0.00    +0.000 A 
ATOM     24  C   UNL     1      -9.366   3.842  18.311  0.00  0.00    +0.000 A 
ENDBRANCH  11  19
BRANCH   9  25
ATOM     25  O   UNL     1     -11.709  -3.869  21.129  0.00  0.00    +0.000 OA
ATOM     26  H   UNL     1     -11.764  -3.904  22.099  0.00  0.00    +0.000 HD
ENDBRANCH   9  25
TORSDOF 3
ENDMDL
MODEL 4
REMARK VINA RESULT:      -6.6     17.498     19.788
REMARK  Name = Lobelin.pdbqt.pdb
REMARK  3 active torsions:
REMARK  status: ('A' for Active; 'I' for Inactive)
REMARK    1  A    between atoms: C_9  and  O_10
REMARK    2  A    between atoms: C_9  and  C_12
REMARK    3  A    between atoms: C_19  and  C_21
REMARK                            x       y       z     vdW  Elec       q    Type
REMARK                         _______ _______ _______ _____ _____    ______ ____
ROOT
ATOM      1  N   UNL     1       4.658 -10.362  12.708  0.00  0.00    +0.000 N 
ATOM      2  C   UNL     1       3.472 -11.131  12.346  0.00  0.00    +0.000 C 
ATOM      3  C   UNL     1       4.826  -8.998  12.212  0.00  0.00    +0.000 C 
ATOM      4  C   UNL     1       2.527 -10.428  11.536  0.00  0.00    +0.000 C 
ATOM      5  C   UNL     1       3.745  -8.513  11.415  0.00  0.00    +0.000 C 
ATOM      6  C   UNL     1       2.420  -9.051  10.908  0.00  0.00    +0.000 C 
ATOM      7  C   UNL     1       5.727 -10.989  13.452  0.00  0.00    +0.000 C 
ATOM      8  C   UNL     1       3.267 -12.469  12.776  0.00  0.00    +0.000 C 
ATOM      9  C   UNL     1       3.058 -13.797  13.230  0.00  0.00    +0.000 C 
ATOM     10  C   UNL     1       5.971  -8.218  12.513  0.00  0.00    +0.000 C 
ATOM     11  C   UNL     1       7.118  -7.415  12.846  0.00  0.00    +0.000 C 
ATOM     12  O   UNL     1       6.949  -6.301  13.319  0.00  0.00    +0.000 OA
ENDROOT
BRANCH   9  13
ATOM     13  C   UNL     1       2.916 -14.174  14.637  0.00  0.00    +0.000 A 
ATOM     14  C   UNL     1       2.832 -15.517  15.014  0.00  0.00    +0.000 A 
ATOM     15  C   UNL     1       2.698 -15.876  16.354  0.00  0.00    +0.000 A 
ATOM     16  C   UNL     1       2.647 -14.891  17.336  0.00  0.00    +0.000 A 
ATOM     17  C   UNL     1       2.728 -13.549  16.977  0.00  0.00    +0.000 A 
ATOM     18  C   UNL     1       2.861 -13.196  15.635  0.00  0.00    +0.000 A 
ENDBRANCH   9  13
BRANCH  11  19
ATOM     19  C   UNL     1       8.461  -7.965  12.589  0.00  0.00    +0.000 A 
ATOM     20  C   UNL     1       9.607  -7.196  12.787  0.00  0.00    +0.000 A 
ATOM     21  C   UNL     1      10.863  -7.746  12.543  0.00  0.00    +0.000 A 
ATOM     22  C   UNL     1      10.972  -9.063  12.103  0.00  0.00    +0.000 A 
ATOM     23  C   UNL     1       9.826  -9.833  11.909  0.00  0.00    +0.000 A 
ATOM     24  C   UNL     1       8.570  -9.285  12.153  0.00  0.00    +0.000 A 
ENDBRANCH  11  19
BRANCH   9  25
ATOM     25  O   UNL     1       2.972 -14.812  12.304  0.00  0.00    +0.000 OA
ATOM     26  H   UNL     1       2.053 -14.985  12.040  0.00  0.00    +0.000 HD
ENDBRANCH   9  25
TORSDOF 3
ENDMDL
MODEL 5
REMARK VINA RESULT:      -6.5     17.535     20.637
REMARK  Name = Lobelin.pdbqt.pdb
REMARK  3 active torsions:
REMARK  status: ('A' for Active; 'I' for Inactive)
REMARK    1  A    between atoms: C_9  and  O_10
REMARK    2  A    between atoms: C_9  and  C_12
REMARK    3  A    between atoms: C_19  and  C_21
REMARK                            x       y       z     vdW  Elec       q    Type
REMARK                         _______ _______ _______ _____ _____    ______ ____
ROOT
ATOM      1  N   UNL     1       3.402 -14.624  14.639  0.00  0.00    +0.000 N 
ATOM      2  C   UNL     1       3.641 -13.360  15.328  0.00  0.00    +0.000 C 
ATOM      3  C   UNL     1       2.886 -15.774  15.377  0.00  0.00    +0.000 C 
ATOM      4  C   UNL     1       3.294 -13.359  16.714  0.00  0.00    +0.000 C 
ATOM      5  C   UNL     1       2.617 -15.528  16.758  0.00  0.00    +0.000 C 
ATOM      6  C   UNL     1       2.737 -14.356  17.714  0.00  0.00    +0.000 C 
ATOM      7  C   UNL     1       3.792 -14.779  13.256  0.00  0.00    +0.000 C 
ATOM      8  C   UNL     1       4.167 -12.217  14.669  0.00  0.00    +0.000 C 
ATOM      9  C   UNL     1       4.669 -11.071  13.997  0.00  0.00    +0.000 C 
ATOM     10  C   UNL     1       2.660 -17.031  14.761  0.00  0.00    +0.000 C 
ATOM     11  C   UNL     1       2.400 -18.297  14.128  0.00  0.00    +0.000 C 
ATOM     12  O   UNL     1       1.299 -18.813  14.256  0.00  0.00    +0.000 OA
ENDROOT
BRANCH   9  13
ATOM     13  C   UNL     1       3.974 -10.387  12.906  0.00  0.00    +0.000 A 
ATOM     14  C   UNL     1       4.126  -9.011  12.713  0.00  0.00    +0.000 A 
ATOM     15  C   UNL     1       3.466  -8.358  11.674  0.00  0.00    +0.000 A 
ATOM     16  C   UNL     1       2.643  -9.078  10.813  0.00  0.00    +0.000 A 
ATOM     17  C   UNL     1       2.481 -10.448  10.992  0.00  0.00    +0.000 A 
ATOM     18  C   UNL     1       3.143 -11.095  12.034  0.00  0.00    +0.000 A 
ENDBRANCH   9  13
BRANCH  11  19
ATOM     19  C   UNL     1       3.481 -18.933  13.356  0.00  0.00    +0.000 A 
ATOM     20  C   UNL     1       3.208 -19.694  12.219  0.00  0.00    +0.000 A 
ATOM     21  C   UNL     1       4.252 -20.277  11.506  0.00  0.00    +0.000 A 
ATOM     22  C   UNL     1       5.568 -20.098  11.927  0.00  0.00    +0.000 A 
ATOM     23  C   UNL     1       5.841 -19.335  13.061  0.00  0.00    +0.000 A 
ATOM     24  C   UNL     1       4.799 -18.751  13.775  0.00  0.00    +0.000 A 
ENDBRANCH  11  19
BRANCH   9  25
ATOM     25  O   UNL     1       5.882 -10.550  14.386  0.00  0.00    +0.000 OA
ATOM     26  H   UNL     1       6.387 -10.204  13.631  0.00  0.00    +0.000 HD
ENDBRANCH   9  25
TORSDOF 3
ENDMDL
MODEL 6
REMARK VINA RESULT:      -6.5     18.358     20.473
REMARK  Name = Lobelin.pdbqt.pdb
REMARK  3 active torsions:
REMARK  status: ('A' for Active; 'I' for Inactive)
REMARK    1  A    between atoms: C_9  and  O_10
REMARK    2  A    between atoms: C_9  and  C_12
REMARK    3  A    between atoms: C_19  and  C_21
REMARK                            x       y       z     vdW  Elec       q    Type
REMARK                         _______ _______ _______ _____ _____    ______ ____
ROOT
ATOM      1  N   UNL     1       4.752 -14.513  13.617  0.00  0.00    +0.000 N 
ATOM      2  C   UNL     1       4.796 -15.643  14.538  0.00  0.00    +0.000 C 
ATOM      3  C   UNL     1       5.842 -13.541  13.596  0.00  0.00    +0.000 C 
ATOM      4  C   UNL     1       5.976 -15.715  15.342  0.00  0.00    +0.000 C 
ATOM      5  C   UNL     1       6.915 -13.826  14.496  0.00  0.00    +0.000 C 
ATOM      6  C   UNL     1       7.241 -14.896  15.521  0.00  0.00    +0.000 C 
ATOM      7  C   UNL     1       3.574 -14.282  12.812  0.00  0.00    +0.000 C 
ATOM      8  C   UNL     1       3.753 -16.604  14.622  0.00  0.00    +0.000 C 
ATOM      9  C   UNL     1       2.719 -17.574  14.681  0.00  0.00    +0.000 C 
ATOM     10  C   UNL     1       5.836 -12.412  12.739  0.00  0.00    +0.000 C 
ATOM     11  C   UNL     1       5.845 -11.284  11.845  0.00  0.00    +0.000 C 
ATOM     12  O   UNL     1       6.818 -11.099  11.128  0.00  0.00    +0.000 OA
ENDROOT
BRANCH   9  13
ATOM     13  C   UNL     1       2.346 -18.449  13.569  0.00  0.00    +0.000 A 
ATOM     14  C   UNL     1       2.795 -18.189  12.272  0.00  0.00    +0.000 A 
ATOM     15  C   UNL     1       2.441 -19.022  11.212  0.00  0.00    +0.000 A 
ATOM     16  C   UNL     1       1.630 -20.129  11.440  0.00  0.00    +0.000 A 
ATOM     17  C   UNL     1       1.173 -20.401  12.726  0.00  0.00    +0.000 A 
ATOM     18  C   UNL     1       1.530 -19.564  13.781  0.00  0.00    +0.000 A 
ENDBRANCH   9  13
BRANCH  11  19
ATOM     19  C   UNL     1       4.679 -10.384  11.836  0.00  0.00    +0.000 A 
ATOM     20  C   UNL     1       3.400 -10.860  11.545  0.00  0.00    +0.000 A 
ATOM     21  C   UNL     1       2.316  -9.986  11.552  0.00  0.00    +0.000 A 
ATOM     22  C   UNL     1       2.510  -8.639  11.850  0.00  0.00    +0.000 A 
ATOM     23  C   UNL     1       3.787  -8.164  12.144  0.00  0.00    +0.000 A 
ATOM     24  C   UNL     1       4.872  -9.037  12.138  0.00  0.00    +0.000 A 
ENDBRANCH  11  19
BRANCH   9  25
ATOM     25  O   UNL     1       2.012 -17.722  15.853  0.00  0.00    +0.000 OA
ATOM     26  H   UNL     1       1.500 -18.549  15.866  0.00  0.00    +0.000 HD
ENDBRANCH   9  25
TORSDOF 3
ENDMDL
MODEL 7
REMARK VINA RESULT:      -6.4     18.549     21.210
REMARK  Name = Lobelin.pdbqt.pdb
REMARK  3 active torsions:
REMARK  status: ('A' for Active; 'I' for Inactive)
REMARK    1  A    between atoms: C_9  and  O_10
REMARK    2  A    between atoms: C_9  and  C_12
REMARK    3  A    between atoms: C_19  and  C_21
REMARK                            x       y       z     vdW  Elec       q    Type
REMARK                         _______ _______ _______ _____ _____    ______ ____
ROOT
ATOM      1  N   UNL     1       4.209 -14.983  13.791  0.00  0.00    +0.000 N 
ATOM      2  C   UNL     1       5.226 -13.955  13.985  0.00  0.00    +0.000 C 
ATOM      3  C   UNL     1       4.104 -16.095  14.731  0.00  0.00    +0.000 C 
ATOM      4  C   UNL     1       6.032 -14.122  15.152  0.00  0.00    +0.000 C 
ATOM      5  C   UNL     1       5.025 -16.047  15.821  0.00  0.00    +0.000 C 
ATOM      6  C   UNL     1       6.139 -15.127  16.285  0.00  0.00    +0.000 C 
ATOM      7  C   UNL     1       3.388 -14.972  12.601  0.00  0.00    +0.000 C 
ATOM      8  C   UNL     1       5.393 -12.864  13.089  0.00  0.00    +0.000 C 
ATOM      9  C   UNL     1       5.537 -11.765  12.203  0.00  0.00    +0.000 C 
ATOM     10  C   UNL     1       3.152 -17.134  14.573  0.00  0.00    +0.000 C 
ATOM     11  C   UNL     1       2.163 -18.170  14.432  0.00  0.00    +0.000 C 
ATOM     12  O   UNL     1       1.433 -18.431  15.377  0.00  0.00    +0.000 OA
ENDROOT
BRANCH   9  13
ATOM     13  C   UNL     1       4.505 -10.753  11.973  0.00  0.00    +0.000 A 
ATOM     14  C   UNL     1       4.810  -9.391  12.046  0.00  0.00    +0.000 A 
ATOM     15  C   UNL     1       3.828  -8.426  11.826  0.00  0.00    +0.000 A 
ATOM     16  C   UNL     1       2.526  -8.815  11.530  0.00  0.00    +0.000 A 
ATOM     17  C   UNL     1       2.205 -10.167  11.456  0.00  0.00    +0.000 A 
ATOM     18  C   UNL     1       3.191 -11.127  11.677  0.00  0.00    +0.000 A 
ENDBRANCH   9  13
BRANCH  11  19
ATOM     19  C   UNL     1       2.076 -18.889  13.149  0.00  0.00    +0.000 A 
ATOM     20  C   UNL     1       2.729 -18.418  12.010  0.00  0.00    +0.000 A 
ATOM     21  C   UNL     1       2.634 -19.123  10.813  0.00  0.00    +0.000 A 
ATOM     22  C   UNL     1       1.888 -20.298  10.755  0.00  0.00    +0.000 A 
ATOM     23  C   UNL     1       1.238 -20.771  11.894  0.00  0.00    +0.000 A 
ATOM     24  C   UNL     1       1.333 -20.067  13.092  0.00  0.00    +0.000 A 
ENDBRANCH  11  19
BRANCH   9  25
ATOM     25  O   UNL     1       6.717 -11.618  11.511  0.00  0.00    +0.000 OA
ATOM     26  H   UNL     1       7.378 -12.279  11.776  0.00  0.00    +0.000 HD
ENDBRANCH   9  25
TORSDOF 3
ENDMDL
MODEL 8
REMARK VINA RESULT:      -6.4      1.815      2.169
REMARK  Name = Lobelin.pdbqt.pdb
REMARK  3 active torsions:
REMARK  status: ('A' for Active; 'I' for Inactive)
REMARK    1  A    between atoms: C_9  and  O_10
REMARK    2  A    between atoms: C_9  and  C_12
REMARK    3  A    between atoms: C_19  and  C_21
REMARK                            x       y       z     vdW  Elec       q    Type
REMARK                         _______ _______ _______ _____ _____    ______ ____
ROOT
ATOM      1  N   UNL     1     -10.450  -4.674  24.555  0.00  0.00    +0.000 N 
ATOM      2  C   UNL     1     -11.277  -4.745  25.755  0.00  0.00    +0.000 C 
ATOM      3  C   UNL     1      -9.815  -3.415  24.176  0.00  0.00    +0.000 C 
ATOM      4  C   UNL     1     -11.358  -3.528  26.499  0.00  0.00    +0.000 C 
ATOM      5  C   UNL     1     -10.046  -2.333  25.080  0.00  0.00    +0.000 C 
ATOM      6  C   UNL     1     -10.812  -2.118  26.371  0.00  0.00    +0.000 C 
ATOM      7  C   UNL     1     -10.358  -5.815  23.672  0.00  0.00    +0.000 C 
ATOM      8  C   UNL     1     -11.941  -5.935  26.158  0.00  0.00    +0.000 C 
ATOM      9  C   UNL     1     -12.580  -7.134  26.567  0.00  0.00    +0.000 C 
ATOM     10  C   UNL     1      -9.022  -3.286  23.007  0.00  0.00    +0.000 C 
ATOM     11  C   UNL     1      -8.191  -3.165  21.839  0.00  0.00    +0.000 C 
ATOM     12  O   UNL     1      -7.066  -2.701  21.953  0.00  0.00    +0.000 OA
ENDROOT
BRANCH   9  13
ATOM     13  C   UNL     1     -11.871  -8.359  26.940  0.00  0.00    +0.000 A 
ATOM     14  C   UNL     1     -12.153  -9.010  28.145  0.00  0.00    +0.000 A 
ATOM     15  C   UNL     1     -11.479 -10.177  28.501  0.00  0.00    +0.000 A 
ATOM     16  C   UNL     1     -10.512 -10.707  27.652  0.00  0.00    +0.000 A 
ATOM     17  C   UNL     1     -10.219 -10.070  26.450  0.00  0.00    +0.000 A 
ATOM     18  C   UNL     1     -10.896  -8.903  26.100  0.00  0.00    +0.000 A 
ENDBRANCH   9  13
BRANCH  11  19
ATOM     19  C   UNL     1      -8.736  -3.596  20.540  0.00  0.00    +0.000 A 
ATOM     20  C   UNL     1      -8.344  -4.799  19.954  0.00  0.00    +0.000 A 
ATOM     21  C   UNL     1      -8.882  -5.183  18.729  0.00  0.00    +0.000 A 
ATOM     22  C   UNL     1      -9.812  -4.366  18.090  0.00  0.00    +0.000 A 
ATOM     23  C   UNL     1     -10.207  -3.165  18.677  0.00  0.00    +0.000 A 
ATOM     24  C   UNL     1      -9.670  -2.779  19.903  0.00  0.00    +0.000 A 
ENDBRANCH  11  19
BRANCH   9  25
ATOM     25  O   UNL     1     -13.954  -7.167  26.631  0.00  0.00    +0.000 OA
ATOM     26  H   UNL     1     -14.277  -7.961  27.091  0.00  0.00    +0.000 HD
ENDBRANCH   9  25
TORSDOF 3
ENDMDL
MODEL 9
REMARK VINA RESULT:      -6.4     16.105     18.611
REMARK  Name = Lobelin.pdbqt.pdb
REMARK  3 active torsions:
REMARK  status: ('A' for Active; 'I' for Inactive)
REMARK    1  A    between atoms: C_9  and  O_10
REMARK    2  A    between atoms: C_9  and  C_12
REMARK    3  A    between atoms: C_19  and  C_21
REMARK                            x       y       z     vdW  Elec       q    Type
REMARK                         _______ _______ _______ _____ _____    ______ ____
ROOT
ATOM      1  N   UNL     1     -21.975  -3.631   9.115  0.00  0.00    +0.000 N 
ATOM      2  C   UNL     1     -21.342  -4.859   9.582  0.00  0.00    +0.000 C 
ATOM      3  C   UNL     1     -21.652  -3.097   7.795  0.00  0.00    +0.000 C 
ATOM      4  C   UNL     1     -20.456  -5.471   8.643  0.00  0.00    +0.000 C 
ATOM      5  C   UNL     1     -20.733  -3.886   7.038  0.00  0.00    +0.000 C 
ATOM      6  C   UNL     1     -19.957  -5.173   7.241  0.00  0.00    +0.000 C 
ATOM      7  C   UNL     1     -22.826  -2.872  10.004  0.00  0.00    +0.000 C 
ATOM      8  C   UNL     1     -21.597  -5.412  10.866  0.00  0.00    +0.000 C 
ATOM      9  C   UNL     1     -21.876  -5.970  12.141  0.00  0.00    +0.000 C 
ATOM     10  C   UNL     1     -22.219  -1.893   7.304  0.00  0.00    +0.000 C 
ATOM     11  C   UNL     1     -22.821  -0.690   6.793  0.00  0.00    +0.000 C 
ATOM     12  O   UNL     1     -23.366  -0.714   5.699  0.00  0.00    +0.000 OA
ENDROOT
BRANCH   9  13
ATOM     13  C   UNL     1     -23.194  -6.447  12.560  0.00  0.00    +0.000 A 
ATOM     14  C   UNL     1     -24.299  -6.336  11.711  0.00  0.00    +0.000 A 
ATOM     15  C   UNL     1     -25.555  -6.791  12.108  0.00  0.00    +0.000 A 
ATOM     16  C   UNL     1     -25.720  -7.364  13.365  0.00  0.00    +0.000 A 
ATOM     17  C   UNL     1     -24.630  -7.481  14.223  0.00  0.00    +0.000 A 
ATOM     18  C   UNL     1     -23.377  -7.024  13.820  0.00  0.00    +0.000 A 
ENDBRANCH   9  13
BRANCH  11  19
ATOM     19  C   UNL     1     -22.745   0.535   7.607  0.00  0.00    +0.000 A 
ATOM     20  C   UNL     1     -21.945   0.597   8.748  0.00  0.00    +0.000 A 
ATOM     21  C   UNL     1     -21.889   1.771   9.494  0.00  0.00    +0.000 A 
ATOM     22  C   UNL     1     -22.630   2.883   9.100  0.00  0.00    +0.000 A 
ATOM     23  C   UNL     1     -23.427   2.822   7.958  0.00  0.00    +0.000 A 
ATOM     24  C   UNL     1     -23.484   1.649   7.210  0.00  0.00    +0.000 A 
ENDBRANCH  11  19
BRANCH   9  25
ATOM     25  O   UNL     1     -20.854  -6.086  13.055  0.00  0.00    +0.000 OA
ATOM     26  H   UNL     1     -20.956  -6.873  13.617  0.00  0.00    +0.000 HD
ENDBRANCH   9  25
TORSDOF 3
ENDMDL
