MODEL 1
REMARK VINA RESULT:      -5.5      0.000      0.000
REMARK  Name = LUCANTHONE.pdbqt.pdb
REMARK  5 active torsions:
REMARK  status: ('A' for Active; 'I' for Inactive)
REMARK    1  A    between atoms: C_3  and  N_17
REMARK    2  A    between atoms: N_17  and  C_19
REMARK    3  A    between atoms: C_20  and  N_21
REMARK    4  A    between atoms: N_21  and  C_22
REMARK    5  A    between atoms: N_21  and  C_24
REMARK                            x       y       z     vdW  Elec       q    Type
REMARK                         _______ _______ _______ _____ _____    ______ ____
ROOT
ATOM      1  S   UNL     1       5.652 -10.512  14.178  0.00  0.00    +0.000 S 
ATOM      2  O   UNL     1       5.087  -6.584  12.433  0.00  0.00    +0.000 OA
ATOM      3  C   UNL     1       6.150  -6.497  15.019  0.00  0.00    +0.000 A 
ATOM      4  C   UNL     1       5.765  -7.712  14.385  0.00  0.00    +0.000 A 
ATOM      5  C   UNL     1       6.075  -8.958  14.968  0.00  0.00    +0.000 A 
ATOM      6  C   UNL     1       6.770  -8.966  16.201  0.00  0.00    +0.000 A 
ATOM      7  C   UNL     1       5.043  -7.628  13.082  0.00  0.00    +0.000 A 
ATOM      8  C   UNL     1       6.810  -6.563  16.251  0.00  0.00    +0.000 A 
ATOM      9  C   UNL     1       4.252  -8.747  12.554  0.00  0.00    +0.000 A 
ATOM     10  C   UNL     1       7.130  -7.779  16.830  0.00  0.00    +0.000 A 
ATOM     11  C   UNL     1       4.430 -10.049  12.999  0.00  0.00    +0.000 A 
ATOM     12  C   UNL     1       7.163 -10.232  16.932  0.00  0.00    +0.000 C 
ATOM     13  C   UNL     1       3.305  -8.463  11.564  0.00  0.00    +0.000 A 
ATOM     14  C   UNL     1       3.646 -11.064  12.447  0.00  0.00    +0.000 A 
ATOM     15  C   UNL     1       2.523  -9.480  11.025  0.00  0.00    +0.000 A 
ATOM     16  C   UNL     1       2.691 -10.786  11.471  0.00  0.00    +0.000 A 
ENDROOT
BRANCH   3  17
ATOM     17  N   UNL     1       5.742  -5.231  14.522  0.00  0.00    +0.000 N 
ATOM     18  H   UNL     1       6.470  -4.811  13.924  0.00  0.00    +0.000 HD
BRANCH  17  19
ATOM     19  C   UNL     1       5.013  -4.322  15.389  0.00  0.00    +0.000 C 
ATOM     20  C   UNL     1       4.243  -3.362  16.303  0.00  0.00    +0.000 C 
BRANCH  20  21
ATOM     21  N   UNL     1       3.519  -2.442  17.165  0.00  0.00    +0.000 N 
BRANCH  21  22
ATOM     22  C   UNL     1       4.332  -1.247  17.300  0.00  0.00    +0.000 C 
ATOM     23  C   UNL     1       5.177   0.022  17.440  0.00  0.00    +0.000 C 
ENDBRANCH  21  22
BRANCH  21  24
ATOM     24  C   UNL     1       3.458  -3.049  18.481  0.00  0.00    +0.000 C 
ATOM     25  C   UNL     1       3.414  -3.688  19.872  0.00  0.00    +0.000 C 
ENDBRANCH  21  24
ENDBRANCH  20  21
ENDBRANCH  17  19
ENDBRANCH   3  17
TORSDOF 5
ENDMDL
MODEL 2
REMARK VINA RESULT:      -5.4     15.530     17.809
REMARK  Name = LUCANTHONE.pdbqt.pdb
REMARK  5 active torsions:
REMARK  status: ('A' for Active; 'I' for Inactive)
REMARK    1  A    between atoms: C_3  and  N_17
REMARK    2  A    between atoms: N_17  and  C_19
REMARK    3  A    between atoms: C_20  and  N_21
REMARK    4  A    between atoms: N_21  and  C_22
REMARK    5  A    between atoms: N_21  and  C_24
REMARK                            x       y       z     vdW  Elec       q    Type
REMARK                         _______ _______ _______ _____ _____    ______ ____
ROOT
ATOM      1  S   UNL     1      -9.836  -0.042  19.552  0.00  0.00    +0.000 S 
ATOM      2  O   UNL     1      -7.035  -1.353  22.590  0.00  0.00    +0.000 OA
ATOM      3  C   UNL     1      -8.289  -3.471  21.262  0.00  0.00    +0.000 A 
ATOM      4  C   UNL     1      -8.608  -2.107  21.009  0.00  0.00    +0.000 A 
ATOM      5  C   UNL     1      -9.450  -1.752  19.935  0.00  0.00    +0.000 A 
ATOM      6  C   UNL     1      -9.975  -2.786  19.124  0.00  0.00    +0.000 A 
ATOM      7  C   UNL     1      -8.012  -1.068  21.899  0.00  0.00    +0.000 A 
ATOM      8  C   UNL     1      -8.858  -4.455  20.446  0.00  0.00    +0.000 A 
ATOM      9  C   UNL     1      -8.572   0.286  22.003  0.00  0.00    +0.000 A 
ATOM     10  C   UNL     1      -9.678  -4.120  19.382  0.00  0.00    +0.000 A 
ATOM     11  C   UNL     1      -9.409   0.812  21.031  0.00  0.00    +0.000 A 
ATOM     12  C   UNL     1     -10.888  -2.542  17.943  0.00  0.00    +0.000 C 
ATOM     13  C   UNL     1      -8.221   1.049  23.122  0.00  0.00    +0.000 A 
ATOM     14  C   UNL     1      -9.900   2.110  21.193  0.00  0.00    +0.000 A 
ATOM     15  C   UNL     1      -8.721   2.339  23.279  0.00  0.00    +0.000 A 
ATOM     16  C   UNL     1      -9.566   2.871  22.312  0.00  0.00    +0.000 A 
ENDROOT
BRANCH   3  17
ATOM     17  N   UNL     1      -7.550  -3.867  22.407  0.00  0.00    +0.000 N 
ATOM     18  H   UNL     1      -6.670  -4.336  22.142  0.00  0.00    +0.000 HD
BRANCH  17  19
ATOM     19  C   UNL     1      -8.249  -4.410  23.559  0.00  0.00    +0.000 C 
ATOM     20  C   UNL     1      -8.988  -4.984  24.773  0.00  0.00    +0.000 C 
BRANCH  20  21
ATOM     21  N   UNL     1      -9.697  -5.532  25.917  0.00  0.00    +0.000 N 
BRANCH  21  22
ATOM     22  C   UNL     1      -8.924  -6.660  26.404  0.00  0.00    +0.000 C 
ATOM     23  C   UNL     1      -8.120  -7.854  26.928  0.00  0.00    +0.000 C 
ENDBRANCH  21  22
BRANCH  21  24
ATOM     24  C   UNL     1     -10.949  -6.074  25.424  0.00  0.00    +0.000 C 
ATOM     25  C   UNL     1     -12.273  -6.631  24.890  0.00  0.00    +0.000 C 
ENDBRANCH  21  24
ENDBRANCH  20  21
ENDBRANCH  17  19
ENDBRANCH   3  17
TORSDOF 5
ENDMDL
MODEL 3
REMARK VINA RESULT:      -5.4     15.936     18.756
REMARK  Name = LUCANTHONE.pdbqt.pdb
REMARK  5 active torsions:
REMARK  status: ('A' for Active; 'I' for Inactive)
REMARK    1  A    between atoms: C_3  and  N_17
REMARK    2  A    between atoms: N_17  and  C_19
REMARK    3  A    between atoms: C_20  and  N_21
REMARK    4  A    between atoms: N_21  and  C_22
REMARK    5  A    between atoms: N_21  and  C_24
REMARK                            x       y       z     vdW  Elec       q    Type
REMARK                         _______ _______ _______ _____ _____    ______ ____
ROOT
ATOM      1  S   UNL     1      -8.556  -4.413  21.675  0.00  0.00    +0.000 S 
ATOM      2  O   UNL     1      -9.997  -0.372  21.046  0.00  0.00    +0.000 OA
ATOM      3  C   UNL     1     -10.168  -1.199  23.713  0.00  0.00    +0.000 A 
ATOM      4  C   UNL     1      -9.725  -2.057  22.668  0.00  0.00    +0.000 A 
ATOM      5  C   UNL     1      -9.172  -3.322  22.960  0.00  0.00    +0.000 A 
ATOM      6  C   UNL     1      -9.079  -3.715  24.316  0.00  0.00    +0.000 A 
ATOM      7  C   UNL     1      -9.844  -1.574  21.261  0.00  0.00    +0.000 A 
ATOM      8  C   UNL     1     -10.078  -1.649  25.035  0.00  0.00    +0.000 A 
ATOM      9  C   UNL     1      -9.816  -2.492  20.114  0.00  0.00    +0.000 A 
ATOM     10  C   UNL     1      -9.529  -2.884  25.337  0.00  0.00    +0.000 A 
ATOM     11  C   UNL     1      -9.294  -3.773  20.211  0.00  0.00    +0.000 A 
ATOM     12  C   UNL     1      -8.507  -5.042  24.765  0.00  0.00    +0.000 C 
ATOM     13  C   UNL     1     -10.327  -2.027  18.897  0.00  0.00    +0.000 A 
ATOM     14  C   UNL     1      -9.295  -4.589  19.077  0.00  0.00    +0.000 A 
ATOM     15  C   UNL     1     -10.329  -2.850  17.775  0.00  0.00    +0.000 A 
ATOM     16  C   UNL     1      -9.814  -4.138  17.866  0.00  0.00    +0.000 A 
ENDROOT
BRANCH   3  17
ATOM     17  N   UNL     1     -10.842   0.021  23.444  0.00  0.00    +0.000 N 
ATOM     18  H   UNL     1     -10.218   0.831  23.578  0.00  0.00    +0.000 HD
BRANCH  17  19
ATOM     19  C   UNL     1     -12.220   0.188  23.875  0.00  0.00    +0.000 C 
ATOM     20  C   UNL     1     -13.672   0.365  24.331  0.00  0.00    +0.000 C 
BRANCH  20  21
ATOM     21  N   UNL     1     -15.046   0.532  24.775  0.00  0.00    +0.000 N 
BRANCH  21  22
ATOM     22  C   UNL     1     -15.297  -0.476  25.789  0.00  0.00    +0.000 C 
ATOM     23  C   UNL     1     -15.548  -1.538  26.864  0.00  0.00    +0.000 C 
ENDBRANCH  21  22
BRANCH  21  24
ATOM     24  C   UNL     1     -15.901   0.204  23.650  0.00  0.00    +0.000 C 
ATOM     25  C   UNL     1     -16.788  -0.155  22.454  0.00  0.00    +0.000 C 
ENDBRANCH  21  24
ENDBRANCH  20  21
ENDBRANCH  17  19
ENDBRANCH   3  17
TORSDOF 5
ENDMDL
MODEL 4
REMARK VINA RESULT:      -5.2     13.310     16.235
REMARK  Name = LUCANTHONE.pdbqt.pdb
REMARK  5 active torsions:
REMARK  status: ('A' for Active; 'I' for Inactive)
REMARK    1  A    between atoms: C_3  and  N_17
REMARK    2  A    between atoms: N_17  and  C_19
REMARK    3  A    between atoms: C_20  and  N_21
REMARK    4  A    between atoms: N_21  and  C_22
REMARK    5  A    between atoms: N_21  and  C_24
REMARK                            x       y       z     vdW  Elec       q    Type
REMARK                         _______ _______ _______ _____ _____    ______ ____
ROOT
ATOM      1  S   UNL     1      -3.799  -8.751  -1.610  0.00  0.00    +0.000 S 
ATOM      2  O   UNL     1      -0.044  -7.644   0.253  0.00  0.00    +0.000 OA
ATOM      3  C   UNL     1      -2.208  -6.108   1.139  0.00  0.00    +0.000 A 
ATOM      4  C   UNL     1      -2.330  -7.095   0.121  0.00  0.00    +0.000 A 
ATOM      5  C   UNL     1      -3.598  -7.476  -0.364  0.00  0.00    +0.000 A 
ATOM      6  C   UNL     1      -4.741  -6.844   0.181  0.00  0.00    +0.000 A 
ATOM      7  C   UNL     1      -1.083  -7.726  -0.401  0.00  0.00    +0.000 A 
ATOM      8  C   UNL     1      -3.369  -5.496   1.623  0.00  0.00    +0.000 A 
ATOM      9  C   UNL     1      -1.042  -8.424  -1.693  0.00  0.00    +0.000 A 
ATOM     10  C   UNL     1      -4.622  -5.866   1.163  0.00  0.00    +0.000 A 
ATOM     11  C   UNL     1      -2.192  -8.886  -2.316  0.00  0.00    +0.000 A 
ATOM     12  C   UNL     1      -6.157  -7.159  -0.250  0.00  0.00    +0.000 C 
ATOM     13  C   UNL     1       0.210  -8.626  -2.283  0.00  0.00    +0.000 A 
ATOM     14  C   UNL     1      -2.077  -9.546  -3.542  0.00  0.00    +0.000 A 
ATOM     15  C   UNL     1       0.314  -9.278  -3.508  0.00  0.00    +0.000 A 
ATOM     16  C   UNL     1      -0.834  -9.738  -4.141  0.00  0.00    +0.000 A 
ENDROOT
BRANCH   3  17
ATOM     17  N   UNL     1      -0.943  -5.615   1.556  0.00  0.00    +0.000 N 
ATOM     18  H   UNL     1      -0.376  -6.359   1.991  0.00  0.00    +0.000 HD
BRANCH  17  19
ATOM     19  C   UNL     1      -0.852  -4.296   2.159  0.00  0.00    +0.000 C 
ATOM     20  C   UNL     1      -0.755  -2.906   2.796  0.00  0.00    +0.000 C 
BRANCH  20  21
ATOM     21  N   UNL     1      -0.670  -1.591   3.410  0.00  0.00    +0.000 N 
BRANCH  21  22
ATOM     22  C   UNL     1       0.669  -1.455   3.954  0.00  0.00    +0.000 C 
ATOM     23  C   UNL     1       2.077  -1.299   4.535  0.00  0.00    +0.000 C 
ENDBRANCH  21  22
BRANCH  21  24
ATOM     24  C   UNL     1      -1.575  -1.589   4.543  0.00  0.00    +0.000 C 
ATOM     25  C   UNL     1      -2.521  -1.572   5.748  0.00  0.00    +0.000 C 
ENDBRANCH  21  24
ENDBRANCH  20  21
ENDBRANCH  17  19
ENDBRANCH   3  17
TORSDOF 5
ENDMDL
MODEL 5
REMARK VINA RESULT:      -5.1     16.543     19.922
REMARK  Name = LUCANTHONE.pdbqt.pdb
REMARK  5 active torsions:
REMARK  status: ('A' for Active; 'I' for Inactive)
REMARK    1  A    between atoms: C_3  and  N_17
REMARK    2  A    between atoms: N_17  and  C_19
REMARK    3  A    between atoms: C_20  and  N_21
REMARK    4  A    between atoms: N_21  and  C_22
REMARK    5  A    between atoms: N_21  and  C_24
REMARK                            x       y       z     vdW  Elec       q    Type
REMARK                         _______ _______ _______ _____ _____    ______ ____
ROOT
ATOM      1  S   UNL     1     -12.088  -1.611  23.080  0.00  0.00    +0.000 S 
ATOM      2  O   UNL     1     -11.644  -5.875  22.434  0.00  0.00    +0.000 OA
ATOM      3  C   UNL     1     -13.038  -5.257  24.779  0.00  0.00    +0.000 A 
ATOM      4  C   UNL     1     -12.470  -4.261  23.936  0.00  0.00    +0.000 A 
ATOM      5  C   UNL     1     -12.744  -2.894  24.150  0.00  0.00    +0.000 A 
ATOM      6  C   UNL     1     -13.590  -2.541  25.228  0.00  0.00    +0.000 A 
ATOM      7  C   UNL     1     -11.595  -4.706  22.812  0.00  0.00    +0.000 A 
ATOM      8  C   UNL     1     -13.845  -4.851  25.847  0.00  0.00    +0.000 A 
ATOM      9  C   UNL     1     -10.647  -3.797  22.153  0.00  0.00    +0.000 A 
ATOM     10  C   UNL     1     -14.131  -3.513  26.064  0.00  0.00    +0.000 A 
ATOM     11  C   UNL     1     -10.768  -2.418  22.241  0.00  0.00    +0.000 A 
ATOM     12  C   UNL     1     -13.963  -1.115  25.567  0.00  0.00    +0.000 C 
ATOM     13  C   UNL     1      -9.607  -4.369  21.411  0.00  0.00    +0.000 A 
ATOM     14  C   UNL     1      -9.832  -1.615  21.584  0.00  0.00    +0.000 A 
ATOM     15  C   UNL     1      -8.676  -3.561  20.766  0.00  0.00    +0.000 A 
ATOM     16  C   UNL     1      -8.787  -2.178  20.855  0.00  0.00    +0.000 A 
ENDROOT
BRANCH   3  17
ATOM     17  N   UNL     1     -12.681  -6.627  24.666  0.00  0.00    +0.000 N 
ATOM     18  H   UNL     1     -13.464  -7.189  24.301  0.00  0.00    +0.000 HD
BRANCH  17  19
ATOM     19  C   UNL     1     -11.870  -7.243  25.702  0.00  0.00    +0.000 C 
ATOM     20  C   UNL     1     -11.015  -7.891  26.796  0.00  0.00    +0.000 C 
BRANCH  20  21
ATOM     21  N   UNL     1     -10.204  -8.497  27.840  0.00  0.00    +0.000 N 
BRANCH  21  22
ATOM     22  C   UNL     1      -8.859  -7.969  27.701  0.00  0.00    +0.000 C 
ATOM     23  C   UNL     1      -7.440  -7.409  27.570  0.00  0.00    +0.000 C 
ENDBRANCH  21  22
BRANCH  21  24
ATOM     24  C   UNL     1     -10.122  -9.915  27.548  0.00  0.00    +0.000 C 
ATOM     25  C   UNL     1     -10.055 -11.413  27.236  0.00  0.00    +0.000 C 
ENDBRANCH  21  24
ENDBRANCH  20  21
ENDBRANCH  17  19
ENDBRANCH   3  17
TORSDOF 5
ENDMDL
MODEL 6
REMARK VINA RESULT:      -5.0     11.857     12.954
REMARK  Name = LUCANTHONE.pdbqt.pdb
REMARK  5 active torsions:
REMARK  status: ('A' for Active; 'I' for Inactive)
REMARK    1  A    between atoms: C_3  and  N_17
REMARK    2  A    between atoms: N_17  and  C_19
REMARK    3  A    between atoms: C_20  and  N_21
REMARK    4  A    between atoms: N_21  and  C_22
REMARK    5  A    between atoms: N_21  and  C_24
REMARK                            x       y       z     vdW  Elec       q    Type
REMARK                         _______ _______ _______ _____ _____    ______ ____
ROOT
ATOM      1  S   UNL     1       0.872  -2.764   2.073  0.00  0.00    +0.000 S 
ATOM      2  O   UNL     1      -2.548  -1.023   4.089  0.00  0.00    +0.000 OA
ATOM      3  C   UNL     1      -0.128  -0.525   5.399  0.00  0.00    +0.000 A 
ATOM      4  C   UNL     1      -0.220  -1.337   4.233  0.00  0.00    +0.000 A 
ATOM      5  C   UNL     1       0.944  -1.782   3.573  0.00  0.00    +0.000 A 
ATOM      6  C   UNL     1       2.201  -1.409   4.105  0.00  0.00    +0.000 A 
ATOM      7  C   UNL     1      -1.577  -1.684   3.722  0.00  0.00    +0.000 A 
ATOM      8  C   UNL     1       1.140  -0.209   5.898  0.00  0.00    +0.000 A 
ATOM      9  C   UNL     1      -1.805  -2.814   2.812  0.00  0.00    +0.000 A 
ATOM     10  C   UNL     1       2.292  -0.632   5.255  0.00  0.00    +0.000 A 
ATOM     11  C   UNL     1      -0.779  -3.376   2.066  0.00  0.00    +0.000 A 
ATOM     12  C   UNL     1       3.524  -1.819   3.495  0.00  0.00    +0.000 C 
ATOM     13  C   UNL     1      -3.108  -3.311   2.705  0.00  0.00    +0.000 A 
ATOM     14  C   UNL     1      -1.069  -4.446   1.217  0.00  0.00    +0.000 A 
ATOM     15  C   UNL     1      -3.387  -4.382   1.862  0.00  0.00    +0.000 A 
ATOM     16  C   UNL     1      -2.362  -4.954   1.116  0.00  0.00    +0.000 A 
ENDROOT
BRANCH   3  17
ATOM     17  N   UNL     1      -1.276  -0.168   6.155  0.00  0.00    +0.000 N 
ATOM     18  H   UNL     1      -2.139  -0.285   5.603  0.00  0.00    +0.000 HD
BRANCH  17  19
ATOM     19  C   UNL     1      -1.222   0.987   7.035  0.00  0.00    +0.000 C 
ATOM     20  C   UNL     1      -1.165   2.203   7.965  0.00  0.00    +0.000 C 
BRANCH  20  21
ATOM     21  N   UNL     1      -1.112   3.351   8.856  0.00  0.00    +0.000 N 
BRANCH  21  22
ATOM     22  C   UNL     1       0.041   3.174   9.719  0.00  0.00    +0.000 C 
ATOM     23  C   UNL     1       1.251   2.995  10.641  0.00  0.00    +0.000 C 
ENDBRANCH  21  22
BRANCH  21  24
ATOM     24  C   UNL     1      -2.281   3.280   9.712  0.00  0.00    +0.000 C 
ATOM     25  C   UNL     1      -3.520   3.187  10.608  0.00  0.00    +0.000 C 
ENDBRANCH  21  24
ENDBRANCH  20  21
ENDBRANCH  17  19
ENDBRANCH   3  17
TORSDOF 5
ENDMDL
MODEL 7
REMARK VINA RESULT:      -5.0     26.675     28.238
REMARK  Name = LUCANTHONE.pdbqt.pdb
REMARK  5 active torsions:
REMARK  status: ('A' for Active; 'I' for Inactive)
REMARK    1  A    between atoms: C_3  and  N_17
REMARK    2  A    between atoms: N_17  and  C_19
REMARK    3  A    between atoms: C_20  and  N_21
REMARK    4  A    between atoms: N_21  and  C_22
REMARK    5  A    between atoms: N_21  and  C_24
REMARK                            x       y       z     vdW  Elec       q    Type
REMARK                         _______ _______ _______ _____ _____    ______ ____
ROOT
ATOM      1  S   UNL     1     -22.930  -7.905   8.943  0.00  0.00    +0.000 S 
ATOM      2  O   UNL     1     -20.630  -5.182  11.412  0.00  0.00    +0.000 OA
ATOM      3  C   UNL     1     -22.904  -6.180  12.699  0.00  0.00    +0.000 A 
ATOM      4  C   UNL     1     -22.591  -6.483  11.343  0.00  0.00    +0.000 A 
ATOM      5  C   UNL     1     -23.324  -7.458  10.636  0.00  0.00    +0.000 A 
ATOM      6  C   UNL     1     -24.382  -8.117  11.305  0.00  0.00    +0.000 A 
ATOM      7  C   UNL     1     -21.457  -5.756  10.703  0.00  0.00    +0.000 A 
ATOM      8  C   UNL     1     -23.978  -6.842  13.303  0.00  0.00    +0.000 A 
ATOM      9  C   UNL     1     -21.305  -5.673   9.244  0.00  0.00    +0.000 A 
ATOM     10  C   UNL     1     -24.701  -7.809  12.624  0.00  0.00    +0.000 A 
ATOM     11  C   UNL     1     -21.941  -6.560   8.388  0.00  0.00    +0.000 A 
ATOM     12  C   UNL     1     -25.246  -9.181  10.663  0.00  0.00    +0.000 C 
ATOM     13  C   UNL     1     -20.479  -4.667   8.733  0.00  0.00    +0.000 A 
ATOM     14  C   UNL     1     -21.746  -6.425   7.011  0.00  0.00    +0.000 A 
ATOM     15  C   UNL     1     -20.297  -4.536   7.360  0.00  0.00    +0.000 A 
ATOM     16  C   UNL     1     -20.935  -5.417   6.494  0.00  0.00    +0.000 A 
ENDROOT
BRANCH   3  17
ATOM     17  N   UNL     1     -22.269  -5.118  13.394  0.00  0.00    +0.000 N 
ATOM     18  H   UNL     1     -21.285  -5.344  13.605  0.00  0.00    +0.000 HD
BRANCH  17  19
ATOM     19  C   UNL     1     -23.000  -4.395  14.421  0.00  0.00    +0.000 C 
ATOM     20  C   UNL     1     -23.774  -3.633  15.502  0.00  0.00    +0.000 C 
BRANCH  20  21
ATOM     21  N   UNL     1     -24.510  -2.901  16.519  0.00  0.00    +0.000 N 
BRANCH  21  22
ATOM     22  C   UNL     1     -23.560  -2.519  17.548  0.00  0.00    +0.000 C 
ATOM     23  C   UNL     1     -22.567  -2.122  18.644  0.00  0.00    +0.000 C 
ENDBRANCH  21  22
BRANCH  21  24
ATOM     24  C   UNL     1     -25.430  -3.838  17.137  0.00  0.00    +0.000 C 
ATOM     25  C   UNL     1     -26.401  -4.838  17.772  0.00  0.00    +0.000 C 
ENDBRANCH  21  24
ENDBRANCH  20  21
ENDBRANCH  17  19
ENDBRANCH   3  17
TORSDOF 5
ENDMDL
MODEL 8
REMARK VINA RESULT:      -4.9     17.327     20.685
REMARK  Name = LUCANTHONE.pdbqt.pdb
REMARK  5 active torsions:
REMARK  status: ('A' for Active; 'I' for Inactive)
REMARK    1  A    between atoms: C_3  and  N_17
REMARK    2  A    between atoms: N_17  and  C_19
REMARK    3  A    between atoms: C_20  and  N_21
REMARK    4  A    between atoms: N_21  and  C_22
REMARK    5  A    between atoms: N_21  and  C_24
REMARK                            x       y       z     vdW  Elec       q    Type
REMARK                         _______ _______ _______ _____ _____    ______ ____
ROOT
ATOM      1  S   UNL     1     -12.103  -1.128  23.446  0.00  0.00    +0.000 S 
ATOM      2  O   UNL     1     -11.973  -5.150  21.832  0.00  0.00    +0.000 OA
ATOM      3  C   UNL     1     -13.186  -5.013  24.348  0.00  0.00    +0.000 A 
ATOM      4  C   UNL     1     -12.604  -3.881  23.711  0.00  0.00    +0.000 A 
ATOM      5  C   UNL     1     -12.777  -2.587  24.244  0.00  0.00    +0.000 A 
ATOM      6  C   UNL     1     -13.534  -2.447  25.432  0.00  0.00    +0.000 A 
ATOM      7  C   UNL     1     -11.827  -4.101  22.457  0.00  0.00    +0.000 A 
ATOM      8  C   UNL     1     -13.902  -4.821  25.535  0.00  0.00    +0.000 A 
ATOM      9  C   UNL     1     -10.862  -3.115  21.953  0.00  0.00    +0.000 A 
ATOM     10  C   UNL     1     -14.088  -3.555  26.065  0.00  0.00    +0.000 A 
ATOM     11  C   UNL     1     -10.888  -1.787  22.355  0.00  0.00    +0.000 A 
ATOM     12  C   UNL     1     -13.795  -1.118  26.107  0.00  0.00    +0.000 C 
ATOM     13  C   UNL     1      -9.906  -3.553  21.030  0.00  0.00    +0.000 A 
ATOM     14  C   UNL     1      -9.943  -0.903  21.830  0.00  0.00    +0.000 A 
ATOM     15  C   UNL     1      -8.964  -2.667  20.517  0.00  0.00    +0.000 A 
ATOM     16  C   UNL     1      -8.980  -1.337  20.921  0.00  0.00    +0.000 A 
ENDROOT
BRANCH   3  17
ATOM     17  N   UNL     1     -12.925  -6.337  23.906  0.00  0.00    +0.000 N 
ATOM     18  H   UNL     1     -13.562  -6.610  23.143  0.00  0.00    +0.000 HD
BRANCH  17  19
ATOM     19  C   UNL     1     -12.603  -7.366  24.880  0.00  0.00    +0.000 C 
ATOM     20  C   UNL     1     -12.266  -8.453  25.907  0.00  0.00    +0.000 C 
BRANCH  20  21
ATOM     21  N   UNL     1     -11.957  -9.486  26.882  0.00  0.00    +0.000 N 
BRANCH  21  22
ATOM     22  C   UNL     1     -12.736 -10.659  26.529  0.00  0.00    +0.000 C 
ATOM     23  C   UNL     1     -13.545 -11.903  26.153  0.00  0.00    +0.000 C 
ENDBRANCH  21  22
BRANCH  21  24
ATOM     24  C   UNL     1     -12.460  -9.028  28.163  0.00  0.00    +0.000 C 
ATOM     25  C   UNL     1     -13.007  -8.558  29.515  0.00  0.00    +0.000 C 
ENDBRANCH  21  24
ENDBRANCH  20  21
ENDBRANCH  17  19
ENDBRANCH   3  17
TORSDOF 5
ENDMDL
MODEL 9
REMARK VINA RESULT:      -4.8     13.414     15.584
REMARK  Name = LUCANTHONE.pdbqt.pdb
REMARK  5 active torsions:
REMARK  status: ('A' for Active; 'I' for Inactive)
REMARK    1  A    between atoms: C_3  and  N_17
REMARK    2  A    between atoms: N_17  and  C_19
REMARK    3  A    between atoms: C_20  and  N_21
REMARK    4  A    between atoms: N_21  and  C_22
REMARK    5  A    between atoms: N_21  and  C_24
REMARK                            x       y       z     vdW  Elec       q    Type
REMARK                         _______ _______ _______ _____ _____    ______ ____
ROOT
ATOM      1  S   UNL     1       1.420   1.006   5.014  0.00  0.00    +0.000 S 
ATOM      2  O   UNL     1       1.192  -1.952   1.853  0.00  0.00    +0.000 OA
ATOM      3  C   UNL     1      -0.914  -2.135   3.684  0.00  0.00    +0.000 A 
ATOM      4  C   UNL     1       0.159  -1.211   3.833  0.00  0.00    +0.000 A 
ATOM      5  C   UNL     1       0.113  -0.209   4.825  0.00  0.00    +0.000 A 
ATOM      6  C   UNL     1      -1.021  -0.154   5.671  0.00  0.00    +0.000 A 
ATOM      7  C   UNL     1       1.318  -1.321   2.901  0.00  0.00    +0.000 A 
ATOM      8  C   UNL     1      -1.998  -2.052   4.565  0.00  0.00    +0.000 A 
ATOM      9  C   UNL     1       2.625  -0.724   3.206  0.00  0.00    +0.000 A 
ATOM     10  C   UNL     1      -2.061  -1.068   5.537  0.00  0.00    +0.000 A 
ATOM     11  C   UNL     1       2.771   0.287   4.144  0.00  0.00    +0.000 A 
ATOM     12  C   UNL     1      -1.195   0.869   6.772  0.00  0.00    +0.000 C 
ATOM     13  C   UNL     1       3.737  -1.200   2.503  0.00  0.00    +0.000 A 
ATOM     14  C   UNL     1       4.044   0.812   4.378  0.00  0.00    +0.000 A 
ATOM     15  C   UNL     1       5.002  -0.676   2.748  0.00  0.00    +0.000 A 
ATOM     16  C   UNL     1       5.158   0.333   3.691  0.00  0.00    +0.000 A 
ENDROOT
BRANCH   3  17
ATOM     17  N   UNL     1      -0.840  -3.228   2.781  0.00  0.00    +0.000 N 
ATOM     18  H   UNL     1      -0.092  -3.089   2.085  0.00  0.00    +0.000 HD
BRANCH  17  19
ATOM     19  C   UNL     1      -2.065  -3.844   2.301  0.00  0.00    +0.000 C 
ATOM     20  C   UNL     1      -3.357  -4.495   1.796  0.00  0.00    +0.000 C 
BRANCH  20  21
ATOM     21  N   UNL     1      -4.582  -5.120   1.325  0.00  0.00    +0.000 N 
BRANCH  21  22
ATOM     22  C   UNL     1      -4.846  -6.257   2.188  0.00  0.00    +0.000 C 
ATOM     23  C   UNL     1      -5.115  -7.465   3.090  0.00  0.00    +0.000 C 
ENDBRANCH  21  22
BRANCH  21  24
ATOM     24  C   UNL     1      -4.306  -5.660   0.007  0.00  0.00    +0.000 C 
ATOM     25  C   UNL     1      -4.026  -6.247  -1.380  0.00  0.00    +0.000 C 
ENDBRANCH  21  24
ENDBRANCH  20  21
ENDBRANCH  17  19
ENDBRANCH   3  17
TORSDOF 5
ENDMDL
