MODEL 1
REMARK VINA RESULT:      -5.7      0.000      0.000
REMARK  Name = MeIQx.pdbqt.pdb
REMARK  0 active torsions:
REMARK  status: ('A' for Active; 'I' for Inactive)
REMARK                            x       y       z     vdW  Elec       q    Type
REMARK                         _______ _______ _______ _____ _____    ______ ____
ROOT
ATOM      1  N   UNL     1     -12.781  -3.754  24.587  0.00  0.00    +0.000 N 
ATOM      2  N   UNL     1     -12.905  -2.545  22.736  0.00  0.00    +0.000 NA
ATOM      3  N   UNL     1     -11.277  -3.109  20.359  0.00  0.00    +0.000 NA
ATOM      4  N   UNL     1      -9.486  -5.315  20.512  0.00  0.00    +0.000 NA
ATOM      5  C   UNL     1     -11.879  -4.331  23.735  0.00  0.00    +0.000 A 
ATOM      6  C   UNL     1     -11.971  -3.557  22.578  0.00  0.00    +0.000 A 
ATOM      7  C   UNL     1     -11.155  -3.887  21.467  0.00  0.00    +0.000 A 
ATOM      8  C   UNL     1     -10.269  -4.988  21.558  0.00  0.00    +0.000 A 
ATOM      9  C   UNL     1     -13.379  -2.676  23.955  0.00  0.00    +0.000 A 
ATOM     10  C   UNL     1     -11.016  -5.424  23.852  0.00  0.00    +0.000 A 
ATOM     11  C   UNL     1     -10.225  -5.718  22.737  0.00  0.00    +0.000 A 
ATOM     12  C   UNL     1     -13.081  -4.224  25.909  0.00  0.00    +0.000 C 
ATOM     13  C   UNL     1     -10.485  -3.453  19.323  0.00  0.00    +0.000 A 
ATOM     14  C   UNL     1      -9.610  -4.532  19.402  0.00  0.00    +0.000 A 
ATOM     15  C   UNL     1     -10.561  -2.644  18.060  0.00  0.00    +0.000 C 
ATOM     16  N   UNL     1     -14.316  -1.883  24.523  0.00  0.00    +0.000 N 
ATOM     17  H   UNL     1     -14.837  -1.250  23.923  0.00  0.00    +0.000 HD
ATOM     18  H   UNL     1     -14.792  -2.166  25.376  0.00  0.00    +0.000 HD
ENDROOT
TORSDOF 0
ENDMDL
MODEL 2
REMARK VINA RESULT:      -5.3      2.971      4.197
REMARK  Name = MeIQx.pdbqt.pdb
REMARK  0 active torsions:
REMARK  status: ('A' for Active; 'I' for Inactive)
REMARK                            x       y       z     vdW  Elec       q    Type
REMARK                         _______ _______ _______ _____ _____    ______ ____
ROOT
ATOM      1  N   UNL     1      -9.568  -6.864  25.550  0.00  0.00    +0.000 N 
ATOM      2  N   UNL     1      -8.157  -5.440  24.609  0.00  0.00    +0.000 NA
ATOM      3  N   UNL     1      -8.995  -3.467  22.602  0.00  0.00    +0.000 NA
ATOM      4  N   UNL     1     -11.749  -3.442  21.884  0.00  0.00    +0.000 NA
ATOM      5  C   UNL     1     -10.339  -6.131  24.687  0.00  0.00    +0.000 A 
ATOM      6  C   UNL     1      -9.434  -5.243  24.106  0.00  0.00    +0.000 A 
ATOM      7  C   UNL     1      -9.908  -4.316  23.144  0.00  0.00    +0.000 A 
ATOM      8  C   UNL     1     -11.281  -4.315  22.796  0.00  0.00    +0.000 A 
ATOM      9  C   UNL     1      -8.256  -6.424  25.474  0.00  0.00    +0.000 A 
ATOM     10  C   UNL     1     -11.698  -6.151  24.367  0.00  0.00    +0.000 A 
ATOM     11  C   UNL     1     -12.130  -5.225  23.412  0.00  0.00    +0.000 A 
ATOM     12  C   UNL     1     -10.059  -7.893  26.419  0.00  0.00    +0.000 C 
ATOM     13  C   UNL     1      -9.483  -2.601  21.690  0.00  0.00    +0.000 A 
ATOM     14  C   UNL     1     -10.830  -2.592  21.341  0.00  0.00    +0.000 A 
ATOM     15  C   UNL     1      -8.538  -1.626  21.047  0.00  0.00    +0.000 C 
ATOM     16  N   UNL     1      -7.236  -6.942  26.194  0.00  0.00    +0.000 N 
ATOM     17  H   UNL     1      -6.359  -6.429  26.222  0.00  0.00    +0.000 HD
ATOM     18  H   UNL     1      -7.415  -7.543  26.995  0.00  0.00    +0.000 HD
ENDROOT
TORSDOF 0
ENDMDL
MODEL 3
REMARK VINA RESULT:      -5.0     14.860     16.198
REMARK  Name = MeIQx.pdbqt.pdb
REMARK  0 active torsions:
REMARK  status: ('A' for Active; 'I' for Inactive)
REMARK                            x       y       z     vdW  Elec       q    Type
REMARK                         _______ _______ _______ _____ _____    ______ ____
ROOT
ATOM      1  N   UNL     1     -23.435  -6.825  12.859  0.00  0.00    +0.000 N 
ATOM      2  N   UNL     1     -21.677  -5.631  12.236  0.00  0.00    +0.000 NA
ATOM      3  N   UNL     1     -20.749  -5.506   9.453  0.00  0.00    +0.000 NA
ATOM      4  N   UNL     1     -22.217  -7.006   7.531  0.00  0.00    +0.000 NA
ATOM      5  C   UNL     1     -23.337  -7.030  11.509  0.00  0.00    +0.000 A 
ATOM      6  C   UNL     1     -22.227  -6.273  11.137  0.00  0.00    +0.000 A 
ATOM      7  C   UNL     1     -21.835  -6.258   9.775  0.00  0.00    +0.000 A 
ATOM      8  C   UNL     1     -22.575  -7.009   8.829  0.00  0.00    +0.000 A 
ATOM      9  C   UNL     1     -22.415  -5.979  13.266  0.00  0.00    +0.000 A 
ATOM     10  C   UNL     1     -24.088  -7.779  10.599  0.00  0.00    +0.000 A 
ATOM     11  C   UNL     1     -23.671  -7.742   9.265  0.00  0.00    +0.000 A 
ATOM     12  C   UNL     1     -24.459  -7.370  13.702  0.00  0.00    +0.000 C 
ATOM     13  C   UNL     1     -20.406  -5.517   8.148  0.00  0.00    +0.000 A 
ATOM     14  C   UNL     1     -21.126  -6.252   7.212  0.00  0.00    +0.000 A 
ATOM     15  C   UNL     1     -19.218  -4.708   7.711  0.00  0.00    +0.000 C 
ATOM     16  N   UNL     1     -22.221  -5.578  14.542  0.00  0.00    +0.000 N 
ATOM     17  H   UNL     1     -21.580  -4.809  14.712  0.00  0.00    +0.000 HD
ATOM     18  H   UNL     1     -22.946  -5.704  15.245  0.00  0.00    +0.000 HD
ENDROOT
TORSDOF 0
ENDMDL
MODEL 4
REMARK VINA RESULT:      -4.9     15.501     17.613
REMARK  Name = MeIQx.pdbqt.pdb
REMARK  0 active torsions:
REMARK  status: ('A' for Active; 'I' for Inactive)
REMARK                            x       y       z     vdW  Elec       q    Type
REMARK                         _______ _______ _______ _____ _____    ______ ____
ROOT
ATOM      1  N   UNL     1     -21.385  -5.996   7.019  0.00  0.00    +0.000 N 
ATOM      2  N   UNL     1     -20.498  -5.645   9.017  0.00  0.00    +0.000 NA
ATOM      3  N   UNL     1     -21.905  -6.283  11.514  0.00  0.00    +0.000 NA
ATOM      4  N   UNL     1     -24.515  -7.393  11.280  0.00  0.00    +0.000 NA
ATOM      5  C   UNL     1     -22.343  -6.417   7.902  0.00  0.00    +0.000 A 
ATOM      6  C   UNL     1     -21.767  -6.188   9.152  0.00  0.00    +0.000 A 
ATOM      7  C   UNL     1     -22.503  -6.520  10.316  0.00  0.00    +0.000 A 
ATOM      8  C   UNL     1     -23.801  -7.072  10.184  0.00  0.00    +0.000 A 
ATOM      9  C   UNL     1     -20.287  -5.532   7.725  0.00  0.00    +0.000 A 
ATOM     10  C   UNL     1     -23.619  -6.962   7.742  0.00  0.00    +0.000 A 
ATOM     11  C   UNL     1     -24.317  -7.276   8.912  0.00  0.00    +0.000 A 
ATOM     12  C   UNL     1     -21.496  -6.067   5.591  0.00  0.00    +0.000 C 
ATOM     13  C   UNL     1     -22.637  -6.611  12.598  0.00  0.00    +0.000 A 
ATOM     14  C   UNL     1     -23.913  -7.153  12.480  0.00  0.00    +0.000 A 
ATOM     15  C   UNL     1     -22.045  -6.382  13.960  0.00  0.00    +0.000 C 
ATOM     16  N   UNL     1     -19.166  -5.039   7.153  0.00  0.00    +0.000 N 
ATOM     17  H   UNL     1     -18.344  -4.913   7.736  0.00  0.00    +0.000 HD
ATOM     18  H   UNL     1     -18.980  -5.181   6.162  0.00  0.00    +0.000 HD
ENDROOT
TORSDOF 0
ENDMDL
MODEL 5
REMARK VINA RESULT:      -4.7     16.004     17.568
REMARK  Name = MeIQx.pdbqt.pdb
REMARK  0 active torsions:
REMARK  status: ('A' for Active; 'I' for Inactive)
REMARK                            x       y       z     vdW  Elec       q    Type
REMARK                         _______ _______ _______ _____ _____    ______ ____
ROOT
ATOM      1  N   UNL     1     -24.266  -9.475   9.875  0.00  0.00    +0.000 N 
ATOM      2  N   UNL     1     -22.890  -8.910   8.234  0.00  0.00    +0.000 NA
ATOM      3  N   UNL     1     -21.235  -6.485   8.314  0.00  0.00    +0.000 NA
ATOM      4  N   UNL     1     -21.462  -4.841  10.625  0.00  0.00    +0.000 NA
ATOM      5  C   UNL     1     -23.693  -8.303  10.291  0.00  0.00    +0.000 A 
ATOM      6  C   UNL     1     -22.833  -7.964   9.247  0.00  0.00    +0.000 A 
ATOM      7  C   UNL     1     -22.063  -6.779   9.352  0.00  0.00    +0.000 A 
ATOM      8  C   UNL     1     -22.186  -5.970  10.509  0.00  0.00    +0.000 A 
ATOM      9  C   UNL     1     -23.763  -9.810   8.628  0.00  0.00    +0.000 A 
ATOM     10  C   UNL     1     -23.833  -7.527  11.444  0.00  0.00    +0.000 A 
ATOM     11  C   UNL     1     -23.060  -6.363  11.512  0.00  0.00    +0.000 A 
ATOM     12  C   UNL     1     -25.207 -10.246  10.635  0.00  0.00    +0.000 C 
ATOM     13  C   UNL     1     -20.520  -5.350   8.450  0.00  0.00    +0.000 A 
ATOM     14  C   UNL     1     -20.633  -4.548   9.582  0.00  0.00    +0.000 A 
ATOM     15  C   UNL     1     -19.579  -4.957   7.347  0.00  0.00    +0.000 C 
ATOM     16  N   UNL     1     -24.126 -10.909   7.930  0.00  0.00    +0.000 N 
ATOM     17  H   UNL     1     -23.563 -11.176   7.128  0.00  0.00    +0.000 HD
ATOM     18  H   UNL     1     -24.633 -11.669   8.379  0.00  0.00    +0.000 HD
ENDROOT
TORSDOF 0
ENDMDL
MODEL 6
REMARK VINA RESULT:      -4.6     16.503     18.339
REMARK  Name = MeIQx.pdbqt.pdb
REMARK  0 active torsions:
REMARK  status: ('A' for Active; 'I' for Inactive)
REMARK                            x       y       z     vdW  Elec       q    Type
REMARK                         _______ _______ _______ _____ _____    ______ ____
ROOT
ATOM      1  N   UNL     1     -21.301  -5.260   8.894  0.00  0.00    +0.000 N 
ATOM      2  N   UNL     1     -21.888  -6.699  10.471  0.00  0.00    +0.000 NA
ATOM      3  N   UNL     1     -23.546  -9.060   9.929  0.00  0.00    +0.000 NA
ATOM      4  N   UNL     1     -24.399  -9.452   7.242  0.00  0.00    +0.000 NA
ATOM      5  C   UNL     1     -22.057  -6.198   8.243  0.00  0.00    +0.000 A 
ATOM      6  C   UNL     1     -22.417  -7.092   9.251  0.00  0.00    +0.000 A 
ATOM      7  C   UNL     1     -23.219  -8.212   8.918  0.00  0.00    +0.000 A 
ATOM      8  C   UNL     1     -23.636  -8.394   7.577  0.00  0.00    +0.000 A 
ATOM      9  C   UNL     1     -21.223  -5.589  10.237  0.00  0.00    +0.000 A 
ATOM     10  C   UNL     1     -22.451  -6.353   6.912  0.00  0.00    +0.000 A 
ATOM     11  C   UNL     1     -23.244  -7.468   6.621  0.00  0.00    +0.000 A 
ATOM     12  C   UNL     1     -20.662  -4.139   8.266  0.00  0.00    +0.000 C 
ATOM     13  C   UNL     1     -24.311 -10.113   9.573  0.00  0.00    +0.000 A 
ATOM     14  C   UNL     1     -24.727 -10.301   8.259  0.00  0.00    +0.000 A 
ATOM     15  C   UNL     1     -24.713 -11.099  10.633  0.00  0.00    +0.000 C 
ATOM     16  N   UNL     1     -20.553  -4.866  11.162  0.00  0.00    +0.000 N 
ATOM     17  H   UNL     1     -20.384  -5.287  12.071  0.00  0.00    +0.000 HD
ATOM     18  H   UNL     1     -19.886  -4.150  10.882  0.00  0.00    +0.000 HD
ENDROOT
TORSDOF 0
ENDMDL
MODEL 7
REMARK VINA RESULT:      -4.4     19.277     21.643
REMARK  Name = MeIQx.pdbqt.pdb
REMARK  0 active torsions:
REMARK  status: ('A' for Active; 'I' for Inactive)
REMARK                            x       y       z     vdW  Elec       q    Type
REMARK                         _______ _______ _______ _____ _____    ______ ____
ROOT
ATOM      1  N   UNL     1      -0.471  -2.891   2.735  0.00  0.00    +0.000 N 
ATOM      2  N   UNL     1       1.200  -1.590   3.380  0.00  0.00    +0.000 NA
ATOM      3  N   UNL     1       0.959   0.327   5.591  0.00  0.00    +0.000 NA
ATOM      4  N   UNL     1      -1.558   0.465   6.913  0.00  0.00    +0.000 NA
ATOM      5  C   UNL     1      -0.983  -2.159   3.773  0.00  0.00    +0.000 A 
ATOM      6  C   UNL     1       0.082  -1.348   4.163  0.00  0.00    +0.000 A 
ATOM      7  C   UNL     1      -0.105  -0.445   5.240  0.00  0.00    +0.000 A 
ATOM      8  C   UNL     1      -1.362  -0.387   5.889  0.00  0.00    +0.000 A 
ATOM      9  C   UNL     1       0.846  -2.520   2.521  0.00  0.00    +0.000 A 
ATOM     10  C   UNL     1      -2.233  -2.126   4.395  0.00  0.00    +0.000 A 
ATOM     11  C   UNL     1      -2.382  -1.222   5.452  0.00  0.00    +0.000 A 
ATOM     12  C   UNL     1      -1.184  -3.908   2.016  0.00  0.00    +0.000 C 
ATOM     13  C   UNL     1       0.742   1.173   6.618  0.00  0.00    +0.000 A 
ATOM     14  C   UNL     1      -0.490   1.238   7.262  0.00  0.00    +0.000 A 
ATOM     15  C   UNL     1       1.869   2.059   7.069  0.00  0.00    +0.000 C 
ATOM     16  N   UNL     1       1.641  -3.047   1.563  0.00  0.00    +0.000 N 
ATOM     17  H   UNL     1       2.639  -2.862   1.611  0.00  0.00    +0.000 HD
ATOM     18  H   UNL     1       1.380  -3.905   1.082  0.00  0.00    +0.000 HD
ENDROOT
TORSDOF 0
ENDMDL
MODEL 8
REMARK VINA RESULT:      -4.4     15.495     16.984
REMARK  Name = MeIQx.pdbqt.pdb
REMARK  0 active torsions:
REMARK  status: ('A' for Active; 'I' for Inactive)
REMARK                            x       y       z     vdW  Elec       q    Type
REMARK                         _______ _______ _______ _____ _____    ______ ____
ROOT
ATOM      1  N   UNL     1     -23.442  -7.161  11.842  0.00  0.00    +0.000 N 
ATOM      2  N   UNL     1     -23.863  -7.612   9.716  0.00  0.00    +0.000 NA
ATOM      3  N   UNL     1     -22.326  -6.434   7.508  0.00  0.00    +0.000 NA
ATOM      4  N   UNL     1     -20.225  -4.646   8.205  0.00  0.00    +0.000 NA
ATOM      5  C   UNL     1     -22.523  -6.425  11.143  0.00  0.00    +0.000 A 
ATOM      6  C   UNL     1     -22.804  -6.722   9.810  0.00  0.00    +0.000 A 
ATOM      7  C   UNL     1     -22.021  -6.117   8.795  0.00  0.00    +0.000 A 
ATOM      8  C   UNL     1     -20.978  -5.230   9.157  0.00  0.00    +0.000 A 
ATOM      9  C   UNL     1     -24.238  -7.862  10.950  0.00  0.00    +0.000 A 
ATOM     10  C   UNL     1     -21.500  -5.556  11.530  0.00  0.00    +0.000 A 
ATOM     11  C   UNL     1     -20.750  -4.976  10.502  0.00  0.00    +0.000 A 
ATOM     12  C   UNL     1     -23.532  -7.221  13.273  0.00  0.00    +0.000 C 
ATOM     13  C   UNL     1     -21.560  -5.839   6.571  0.00  0.00    +0.000 A 
ATOM     14  C   UNL     1     -20.534  -4.965   6.915  0.00  0.00    +0.000 A 
ATOM     15  C   UNL     1     -21.832  -6.140   5.124  0.00  0.00    +0.000 C 
ATOM     16  N   UNL     1     -25.250  -8.681  11.313  0.00  0.00    +0.000 N 
ATOM     17  H   UNL     1     -25.641  -9.301  10.610  0.00  0.00    +0.000 HD
ATOM     18  H   UNL     1     -25.346  -8.998  12.275  0.00  0.00    +0.000 HD
ENDROOT
TORSDOF 0
ENDMDL
MODEL 9
REMARK VINA RESULT:      -4.4     18.754     21.351
REMARK  Name = MeIQx.pdbqt.pdb
REMARK  0 active torsions:
REMARK  status: ('A' for Active; 'I' for Inactive)
REMARK                            x       y       z     vdW  Elec       q    Type
REMARK                         _______ _______ _______ _____ _____    ______ ____
ROOT
ATOM      1  N   UNL     1       3.920  -9.096  12.047  0.00  0.00    +0.000 N 
ATOM      2  N   UNL     1       6.096  -9.098  12.452  0.00  0.00    +0.000 NA
ATOM      3  N   UNL     1       7.634 -11.566  12.857  0.00  0.00    +0.000 NA
ATOM      4  N   UNL     1       6.202 -14.021  12.709  0.00  0.00    +0.000 NA
ATOM      5  C   UNL     1       4.248 -10.419  12.172  0.00  0.00    +0.000 A 
ATOM      6  C   UNL     1       5.619 -10.399  12.427  0.00  0.00    +0.000 A 
ATOM      7  C   UNL     1       6.298 -11.629  12.612  0.00  0.00    +0.000 A 
ATOM      8  C   UNL     1       5.572 -12.843  12.536  0.00  0.00    +0.000 A 
ATOM      9  C   UNL     1       5.057  -8.325  12.226  0.00  0.00    +0.000 A 
ATOM     10  C   UNL     1       3.507 -11.600  12.089  0.00  0.00    +0.000 A 
ATOM     11  C   UNL     1       4.209 -12.795  12.279  0.00  0.00    +0.000 A 
ATOM     12  C   UNL     1       2.610  -8.599  11.738  0.00  0.00    +0.000 C 
ATOM     13  C   UNL     1       8.246 -12.756  13.028  0.00  0.00    +0.000 A 
ATOM     14  C   UNL     1       7.542 -13.955  12.955  0.00  0.00    +0.000 A 
ATOM     15  C   UNL     1       9.723 -12.773  13.299  0.00  0.00    +0.000 C 
ATOM     16  N   UNL     1       5.080  -6.975  12.172  0.00  0.00    +0.000 N 
ATOM     17  H   UNL     1       5.982  -6.512  12.114  0.00  0.00    +0.000 HD
ATOM     18  H   UNL     1       4.298  -6.455  11.780  0.00  0.00    +0.000 HD
ENDROOT
TORSDOF 0
ENDMDL
