MODEL 1
REMARK VINA RESULT:      -6.7      0.000      0.000
REMARK  Name = Methotrexate.pdbqt.pdb
REMARK  9 active torsions:
REMARK  status: ('A' for Active; 'I' for Inactive)
REMARK    1  A    between atoms: C_1  and  N_22
REMARK    2  A    between atoms: C_2  and  C_9
REMARK    3  A    between atoms: CA_11  and  C_13
REMARK    4  A    between atoms: CA_11  and  CB_16
REMARK    5  A    between atoms: C_13  and  O_14
REMARK    6  A    between atoms: CG_17  and  CD_19
REMARK    7  A    between atoms: CD_19  and  OE1_20
REMARK    8  A    between atoms: N_22  and  C_24
REMARK    9  A    between atoms: C_24  and  C_31
REMARK                            x       y       z     vdW  Elec       q    Type
REMARK                         _______ _______ _______ _____ _____    ______ ____
ROOT
ATOM      1  C   UNL     1      -9.991   4.303  18.712  0.00  0.00    +0.000 A 
ATOM      2  C   UNL     1      -9.541   1.731  19.797  0.00  0.00    +0.000 A 
ATOM      3  C   UNL     1      -9.939   4.094  20.097  0.00  0.00    +0.000 A 
ATOM      4  C   UNL     1      -9.820   3.182  17.886  0.00  0.00    +0.000 A 
ATOM      5  C   UNL     1      -9.714   2.827  20.637  0.00  0.00    +0.000 A 
ATOM      6  C   UNL     1      -9.595   1.912  18.417  0.00  0.00    +0.000 A 
ENDROOT
BRANCH   2   9
ATOM      7  O   UNL     1      -8.625   0.236  21.337  0.00  0.00    +0.000 OA
ATOM      8  N   UNL     1      -9.876  -0.674  19.611  0.00  0.00    +0.000 N 
ATOM      9  C   ACE A   0      -9.302   0.363  20.324  0.00  0.00    +0.000 C 
ATOM     10  H   UNL     1     -10.422  -0.468  18.779  0.00  0.00    +0.000 HD
ATOM     11  CA  UNL     1      -9.796  -2.025  19.897  0.00  0.00    +0.000 C 
BRANCH  11  13
ATOM     12  OXT UNL     1     -10.326  -2.931  17.751  0.00  0.00    +0.000 OA
ATOM     13  C   UNL     1     -10.511  -2.924  18.959  0.00  0.00    +0.000 C 
BRANCH  13  14
ATOM     14  O   UNL     1     -11.395  -3.744  19.548  0.00  0.00    +0.000 OA
ATOM     15  H   UNL     1     -12.268  -3.475  19.193  0.00  0.00    +0.000 HD
ENDBRANCH  13  14
ENDBRANCH  11  13
BRANCH  11  16
ATOM     16  CB  UNL     1      -9.072  -2.523  21.012  0.00  0.00    +0.000 C 
ATOM     17  CG  UNL     1      -8.302  -3.059  22.225  0.00  0.00    +0.000 C 
BRANCH  17  19
ATOM     18  OE2 UNL     1      -7.651  -4.712  23.744  0.00  0.00    +0.000 OA
ATOM     19  CD  UNL     1      -7.597  -3.553  23.368  0.00  0.00    +0.000 C 
BRANCH  19  20
ATOM     20  OE1 UNL     1      -6.875  -2.620  24.014  0.00  0.00    +0.000 OA
ATOM     21  HE1 UNL     1      -6.820  -2.967  24.926  0.00  0.00    +0.000 HD
ENDBRANCH  19  20
ENDBRANCH  17  19
ENDBRANCH  11  16
ENDBRANCH   2   9
BRANCH   1  22
ATOM     22  N   UNL     1     -10.240   5.591  18.180  0.00  0.00    +0.000 N 
ATOM     23  C   UNL     1      -9.449   6.740  18.583  0.00  0.00    +0.000 C 
BRANCH  22  24
ATOM     24  C   UNL     1     -11.517   5.898  17.571  0.00  0.00    +0.000 C 
BRANCH  24  31
ATOM     25  N   UNL     1     -13.676   5.262  17.026  0.00  0.00    +0.000 NA
ATOM     26  N   UNL     1     -14.277   7.824  15.620  0.00  0.00    +0.000 NA
ATOM     27  N   UNL     1     -16.389   7.027  15.112  0.00  0.00    +0.000 NA
ATOM     28  N   UNL     1     -17.156   4.914  15.861  0.00  0.00    +0.000 NA
ATOM     29  N   UNL     1     -15.944   3.442  17.132  0.00  0.00    +0.000 N 
ATOM     30  N   UNL     1     -18.473   6.300  14.578  0.00  0.00    +0.000 N 
ATOM     31  C   UNL     1     -12.769   6.197  16.973  0.00  0.00    +0.000 C 
ATOM     32  C   UNL     1     -13.200   7.366  16.275  0.00  0.00    +0.000 C 
ATOM     33  C   UNL     1     -14.910   5.579  16.422  0.00  0.00    +0.000 C 
ATOM     34  C   UNL     1     -15.174   6.877  15.697  0.00  0.00    +0.000 C 
ATOM     35  C   UNL     1     -16.043   4.635  16.464  0.00  0.00    +0.000 C 
ATOM     36  C   UNL     1     -17.282   6.094  15.190  0.00  0.00    +0.000 C 
ATOM     37  H   UNL     1     -16.620   2.745  16.841  0.00  0.00    +0.000 HD
ATOM     38  H   UNL     1     -15.003   3.095  17.286  0.00  0.00    +0.000 HD
ATOM     39  H   UNL     1     -19.233   5.790  15.009  0.00  0.00    +0.000 HD
ATOM     40  H   UNL     1     -18.662   7.280  14.411  0.00  0.00    +0.000 HD
ENDBRANCH  24  31
ENDBRANCH  22  24
ENDBRANCH   1  22
TORSDOF 9
ENDMDL
MODEL 2
REMARK VINA RESULT:      -6.3     17.761     21.558
REMARK  Name = Methotrexate.pdbqt.pdb
REMARK  9 active torsions:
REMARK  status: ('A' for Active; 'I' for Inactive)
REMARK    1  A    between atoms: C_1  and  N_22
REMARK    2  A    between atoms: C_2  and  C_9
REMARK    3  A    between atoms: CA_11  and  C_13
REMARK    4  A    between atoms: CA_11  and  CB_16
REMARK    5  A    between atoms: C_13  and  O_14
REMARK    6  A    between atoms: CG_17  and  CD_19
REMARK    7  A    between atoms: CD_19  and  OE1_20
REMARK    8  A    between atoms: N_22  and  C_24
REMARK    9  A    between atoms: C_24  and  C_31
REMARK                            x       y       z     vdW  Elec       q    Type
REMARK                         _______ _______ _______ _____ _____    ______ ____
ROOT
ATOM      1  C   UNL     1     -22.750  -6.247   2.755  0.00  0.00    +0.000 A 
ATOM      2  C   UNL     1     -20.927  -5.367   0.780  0.00  0.00    +0.000 A 
ATOM      3  C   UNL     1     -22.947  -5.043   2.064  0.00  0.00    +0.000 A 
ATOM      4  C   UNL     1     -21.607  -6.993   2.432  0.00  0.00    +0.000 A 
ATOM      5  C   UNL     1     -22.052  -4.606   1.087  0.00  0.00    +0.000 A 
ATOM      6  C   UNL     1     -20.706  -6.564   1.457  0.00  0.00    +0.000 A 
ENDROOT
BRANCH   2   9
ATOM      7  O   UNL     1     -19.597  -5.758  -1.095  0.00  0.00    +0.000 OA
ATOM      8  N   UNL     1     -19.497  -3.638  -0.165  0.00  0.00    +0.000 N 
ATOM      9  C   ACE A   0     -19.945  -4.943  -0.249  0.00  0.00    +0.000 C 
ATOM     10  H   UNL     1     -19.844  -3.036   0.576  0.00  0.00    +0.000 HD
ATOM     11  CA  UNL     1     -18.586  -3.015  -0.999  0.00  0.00    +0.000 C 
BRANCH  11  13
ATOM     12  OXT UNL     1     -18.067  -0.742  -1.521  0.00  0.00    +0.000 OA
ATOM     13  C   UNL     1     -18.283  -1.599  -0.676  0.00  0.00    +0.000 C 
BRANCH  13  14
ATOM     14  O   UNL     1     -18.262  -1.325   0.637  0.00  0.00    +0.000 OA
ATOM     15  H   UNL     1     -18.249  -0.348   0.693  0.00  0.00    +0.000 HD
ENDBRANCH  13  14
ENDBRANCH  11  13
BRANCH  11  16
ATOM     16  CB  UNL     1     -17.975  -3.684  -2.092  0.00  0.00    +0.000 C 
ATOM     17  CG  UNL     1     -17.306  -4.414  -3.263  0.00  0.00    +0.000 C 
BRANCH  17  19
ATOM     18  OE2 UNL     1     -17.228  -5.946  -5.027  0.00  0.00    +0.000 OA
ATOM     19  CD  UNL     1     -16.670  -5.103  -4.344  0.00  0.00    +0.000 C 
BRANCH  19  20
ATOM     20  OE1 UNL     1     -15.385  -4.755  -4.537  0.00  0.00    +0.000 OA
ATOM     21  HE1 UNL     1     -14.945  -5.051  -3.716  0.00  0.00    +0.000 HD
ENDBRANCH  19  20
ENDBRANCH  17  19
ENDBRANCH  11  16
ENDBRANCH   2   9
BRANCH   1  22
ATOM     22  N   UNL     1     -23.656  -6.667   3.757  0.00  0.00    +0.000 N 
ATOM     23  C   UNL     1     -25.087  -6.702   3.514  0.00  0.00    +0.000 C 
BRANCH  22  24
ATOM     24  C   UNL     1     -23.263  -6.659   5.151  0.00  0.00    +0.000 C 
BRANCH  24  31
ATOM     25  N   UNL     1     -22.559  -5.494   7.024  0.00  0.00    +0.000 NA
ATOM     26  N   UNL     1     -22.375  -7.948   8.712  0.00  0.00    +0.000 NA
ATOM     27  N   UNL     1     -21.636  -6.651  10.481  0.00  0.00    +0.000 NA
ATOM     28  N   UNL     1     -21.450  -4.294  10.329  0.00  0.00    +0.000 NA
ATOM     29  N   UNL     1     -21.952  -3.045   8.475  0.00  0.00    +0.000 N 
ATOM     30  N   UNL     1     -20.903  -5.435  12.253  0.00  0.00    +0.000 N 
ATOM     31  C   UNL     1     -22.880  -6.652   6.518  0.00  0.00    +0.000 C 
ATOM     32  C   UNL     1     -22.748  -7.732   7.443  0.00  0.00    +0.000 C 
ATOM     33  C   UNL     1     -22.177  -5.512   8.382  0.00  0.00    +0.000 C 
ATOM     34  C   UNL     1     -22.072  -6.775   9.201  0.00  0.00    +0.000 C 
ATOM     35  C   UNL     1     -21.850  -4.263   9.096  0.00  0.00    +0.000 C 
ATOM     36  C   UNL     1     -21.339  -5.492  10.972  0.00  0.00    +0.000 C 
ATOM     37  H   UNL     1     -21.414  -2.307   8.914  0.00  0.00    +0.000 HD
ATOM     38  H   UNL     1     -21.922  -3.060   7.461  0.00  0.00    +0.000 HD
ATOM     39  H   UNL     1     -21.100  -4.549  12.700  0.00  0.00    +0.000 HD
ATOM     40  H   UNL     1     -21.167  -6.249  12.792  0.00  0.00    +0.000 HD
ENDBRANCH  24  31
ENDBRANCH  22  24
ENDBRANCH   1  22
TORSDOF 9
ENDMDL
MODEL 3
REMARK VINA RESULT:      -6.3     10.936     14.891
REMARK  Name = Methotrexate.pdbqt.pdb
REMARK  9 active torsions:
REMARK  status: ('A' for Active; 'I' for Inactive)
REMARK    1  A    between atoms: C_1  and  N_22
REMARK    2  A    between atoms: C_2  and  C_9
REMARK    3  A    between atoms: CA_11  and  C_13
REMARK    4  A    between atoms: CA_11  and  CB_16
REMARK    5  A    between atoms: C_13  and  O_14
REMARK    6  A    between atoms: CG_17  and  CD_19
REMARK    7  A    between atoms: CD_19  and  OE1_20
REMARK    8  A    between atoms: N_22  and  C_24
REMARK    9  A    between atoms: C_24  and  C_31
REMARK                            x       y       z     vdW  Elec       q    Type
REMARK                         _______ _______ _______ _____ _____    ______ ____
ROOT
ATOM      1  C   UNL     1     -21.288   0.444   9.782  0.00  0.00    +0.000 A 
ATOM      2  C   UNL     1     -20.025   2.013  11.767  0.00  0.00    +0.000 A 
ATOM      3  C   UNL     1     -21.453   0.167  11.146  0.00  0.00    +0.000 A 
ATOM      4  C   UNL     1     -20.465   1.527   9.442  0.00  0.00    +0.000 A 
ATOM      5  C   UNL     1     -20.834   0.940  12.129  0.00  0.00    +0.000 A 
ATOM      6  C   UNL     1     -19.841   2.305  10.417  0.00  0.00    +0.000 A 
ENDROOT
BRANCH   2   9
ATOM      7  O   UNL     1     -18.200   2.574  13.107  0.00  0.00    +0.000 OA
ATOM      8  N   UNL     1     -20.071   3.933  13.264  0.00  0.00    +0.000 N 
ATOM      9  C   ACE A   0     -19.343   2.864  12.775  0.00  0.00    +0.000 C 
ATOM     10  H   UNL     1     -21.016   4.092  12.927  0.00  0.00    +0.000 HD
ATOM     11  CA  UNL     1     -19.659   4.860  14.204  0.00  0.00    +0.000 C 
BRANCH  11  13
ATOM     12  OXT UNL     1     -20.370   7.094  14.659  0.00  0.00    +0.000 OA
ATOM     13  C   UNL     1     -20.649   5.910  14.549  0.00  0.00    +0.000 C 
BRANCH  13  14
ATOM     14  O   UNL     1     -21.896   5.451  14.735  0.00  0.00    +0.000 OA
ATOM     15  H   UNL     1     -22.408   5.789  13.972  0.00  0.00    +0.000 HD
ENDBRANCH  13  14
ENDBRANCH  11  13
BRANCH  11  16
ATOM     16  CB  UNL     1     -18.374   4.811  14.807  0.00  0.00    +0.000 C 
ATOM     17  CG  UNL     1     -16.990   4.746  15.463  0.00  0.00    +0.000 C 
BRANCH  17  19
ATOM     18  OE2 UNL     1     -15.467   3.979  17.063  0.00  0.00    +0.000 OA
ATOM     19  CD  UNL     1     -15.703   4.670  16.086  0.00  0.00    +0.000 C 
BRANCH  19  20
ATOM     20  OE1 UNL     1     -14.768   5.446  15.509  0.00  0.00    +0.000 OA
ATOM     21  HE1 UNL     1     -14.810   6.274  16.028  0.00  0.00    +0.000 HD
ENDBRANCH  19  20
ENDBRANCH  17  19
ENDBRANCH  11  16
ENDBRANCH   2   9
BRANCH   1  22
ATOM     22  N   UNL     1     -21.907  -0.362   8.797  0.00  0.00    +0.000 N 
ATOM     23  C   UNL     1     -22.909   0.181   7.897  0.00  0.00    +0.000 C 
BRANCH  22  24
ATOM     24  C   UNL     1     -21.898  -1.804   8.918  0.00  0.00    +0.000 C 
BRANCH  24  31
ATOM     25  N   UNL     1     -22.424  -3.887   8.053  0.00  0.00    +0.000 NA
ATOM     26  N   UNL     1     -21.341  -5.351  10.417  0.00  0.00    +0.000 NA
ATOM     27  N   UNL     1     -21.970  -7.352   9.440  0.00  0.00    +0.000 NA
ATOM     28  N   UNL     1     -22.952  -7.454   7.286  0.00  0.00    +0.000 NA
ATOM     29  N   UNL     1     -23.396  -5.647   5.949  0.00  0.00    +0.000 N 
ATOM     30  N   UNL     1     -22.567  -9.349   8.537  0.00  0.00    +0.000 N 
ATOM     31  C   UNL     1     -21.887  -3.219   9.035  0.00  0.00    +0.000 C 
ATOM     32  C   UNL     1     -21.408  -4.052  10.093  0.00  0.00    +0.000 C 
ATOM     33  C   UNL     1     -22.407  -5.290   8.193  0.00  0.00    +0.000 C 
ATOM     34  C   UNL     1     -21.871  -5.999   9.414  0.00  0.00    +0.000 C 
ATOM     35  C   UNL     1     -22.925  -6.168   7.126  0.00  0.00    +0.000 C 
ATOM     36  C   UNL     1     -22.490  -7.999   8.448  0.00  0.00    +0.000 C 
ATOM     37  H   UNL     1     -24.011  -6.268   5.435  0.00  0.00    +0.000 HD
ATOM     38  H   UNL     1     -23.686  -4.675   5.978  0.00  0.00    +0.000 HD
ATOM     39  H   UNL     1     -22.561  -9.806   7.635  0.00  0.00    +0.000 HD
ATOM     40  H   UNL     1     -21.917  -9.733   9.210  0.00  0.00    +0.000 HD
ENDBRANCH  24  31
ENDBRANCH  22  24
ENDBRANCH   1  22
TORSDOF 9
ENDMDL
MODEL 4
REMARK VINA RESULT:      -6.2     20.286     22.316
REMARK  Name = Methotrexate.pdbqt.pdb
REMARK  9 active torsions:
REMARK  status: ('A' for Active; 'I' for Inactive)
REMARK    1  A    between atoms: C_1  and  N_22
REMARK    2  A    between atoms: C_2  and  C_9
REMARK    3  A    between atoms: CA_11  and  C_13
REMARK    4  A    between atoms: CA_11  and  CB_16
REMARK    5  A    between atoms: C_13  and  O_14
REMARK    6  A    between atoms: CG_17  and  CD_19
REMARK    7  A    between atoms: CD_19  and  OE1_20
REMARK    8  A    between atoms: N_22  and  C_24
REMARK    9  A    between atoms: C_24  and  C_31
REMARK                            x       y       z     vdW  Elec       q    Type
REMARK                         _______ _______ _______ _____ _____    ______ ____
ROOT
ATOM      1  C   UNL     1       1.964 -13.081  19.292  0.00  0.00    +0.000 A 
ATOM      2  C   UNL     1       3.322 -13.009  16.813  0.00  0.00    +0.000 A 
ATOM      3  C   UNL     1       3.103 -12.285  19.107  0.00  0.00    +0.000 A 
ATOM      4  C   UNL     1       1.530 -13.846  18.201  0.00  0.00    +0.000 A 
ATOM      5  C   UNL     1       3.776 -12.245  17.885  0.00  0.00    +0.000 A 
ATOM      6  C   UNL     1       2.195 -13.812  16.974  0.00  0.00    +0.000 A 
ENDROOT
BRANCH   2   9
ATOM      7  O   UNL     1       4.943 -12.234  15.325  0.00  0.00    +0.000 OA
ATOM      8  N   UNL     1       3.511 -13.881  14.548  0.00  0.00    +0.000 N 
ATOM      9  C   ACE A   0       4.004 -13.002  15.494  0.00  0.00    +0.000 C 
ATOM     10  H   UNL     1       2.724 -14.481  14.782  0.00  0.00    +0.000 HD
ATOM     11  CA  UNL     1       3.971 -14.057  13.255  0.00  0.00    +0.000 C 
BRANCH  11  13
ATOM     12  OXT UNL     1       2.971 -16.191  12.861  0.00  0.00    +0.000 OA
ATOM     13  C   UNL     1       3.252 -15.075  12.450  0.00  0.00    +0.000 C 
BRANCH  13  14
ATOM     14  O   UNL     1       2.929 -14.671  11.212  0.00  0.00    +0.000 OA
ATOM     15  H   UNL     1       3.475 -15.221  10.613  0.00  0.00    +0.000 HD
ENDBRANCH  13  14
ENDBRANCH  11  13
BRANCH  11  16
ATOM     16  CB  UNL     1       5.057 -13.311  12.727  0.00  0.00    +0.000 C 
ATOM     17  CG  UNL     1       6.235 -12.517  12.151  0.00  0.00    +0.000 C 
BRANCH  17  19
ATOM     18  OE2 UNL     1       7.279 -11.136  10.580  0.00  0.00    +0.000 OA
ATOM     19  CD  UNL     1       7.342 -11.791  11.607  0.00  0.00    +0.000 C 
BRANCH  19  20
ATOM     20  OE1 UNL     1       8.478 -11.907  12.319  0.00  0.00    +0.000 OA
ATOM     21  HE1 UNL     1       9.038 -12.481  11.759  0.00  0.00    +0.000 HD
ENDBRANCH  19  20
ENDBRANCH  17  19
ENDBRANCH  11  16
ENDBRANCH   2   9
BRANCH   1  22
ATOM     22  N   UNL     1       1.306 -13.126  20.544  0.00  0.00    +0.000 N 
ATOM     23  C   UNL     1       2.048 -13.072  21.791  0.00  0.00    +0.000 C 
BRANCH  22  24
ATOM     24  C   UNL     1      -0.041 -13.649  20.646  0.00  0.00    +0.000 C 
BRANCH  24  31
ATOM     25  N   UNL     1      -1.659 -14.788  21.848  0.00  0.00    +0.000 NA
ATOM     26  N   UNL     1      -3.686 -14.591  19.667  0.00  0.00    +0.000 NA
ATOM     27  N   UNL     1      -5.179 -15.782  20.975  0.00  0.00    +0.000 NA
ATOM     28  N   UNL     1      -4.655 -16.475  23.179  0.00  0.00    +0.000 NA
ATOM     29  N   UNL     1      -2.671 -16.076  24.254  0.00  0.00    +0.000 N 
ATOM     30  N   UNL     1      -6.687 -16.950  22.207  0.00  0.00    +0.000 N 
ATOM     31  C   UNL     1      -1.360 -14.164  20.743  0.00  0.00    +0.000 C 
ATOM     32  C   UNL     1      -2.428 -14.146  19.795  0.00  0.00    +0.000 C 
ATOM     33  C   UNL     1      -2.973 -15.295  21.921  0.00  0.00    +0.000 C 
ATOM     34  C   UNL     1      -3.967 -15.199  20.789  0.00  0.00    +0.000 C 
ATOM     35  C   UNL     1      -3.463 -15.966  23.141  0.00  0.00    +0.000 C 
ATOM     36  C   UNL     1      -5.464 -16.381  22.085  0.00  0.00    +0.000 C 
ATOM     37  H   UNL     1      -2.952 -16.809  24.895  0.00  0.00    +0.000 HD
ATOM     38  H   UNL     1      -1.671 -15.997  24.098  0.00  0.00    +0.000 HD
ATOM     39  H   UNL     1      -7.006 -17.004  23.166  0.00  0.00    +0.000 HD
ATOM     40  H   UNL     1      -7.362 -16.567  21.558  0.00  0.00    +0.000 HD
ENDBRANCH  24  31
ENDBRANCH  22  24
ENDBRANCH   1  22
TORSDOF 9
ENDMDL
MODEL 5
REMARK VINA RESULT:      -6.2     19.754     22.033
REMARK  Name = Methotrexate.pdbqt.pdb
REMARK  9 active torsions:
REMARK  status: ('A' for Active; 'I' for Inactive)
REMARK    1  A    between atoms: C_1  and  N_22
REMARK    2  A    between atoms: C_2  and  C_9
REMARK    3  A    between atoms: CA_11  and  C_13
REMARK    4  A    between atoms: CA_11  and  CB_16
REMARK    5  A    between atoms: C_13  and  O_14
REMARK    6  A    between atoms: CG_17  and  CD_19
REMARK    7  A    between atoms: CD_19  and  OE1_20
REMARK    8  A    between atoms: N_22  and  C_24
REMARK    9  A    between atoms: C_24  and  C_31
REMARK                            x       y       z     vdW  Elec       q    Type
REMARK                         _______ _______ _______ _____ _____    ______ ____
ROOT
ATOM      1  C   UNL     1      -2.752  -3.272   2.772  0.00  0.00    +0.000 A 
ATOM      2  C   UNL     1      -1.831  -5.226   0.947  0.00  0.00    +0.000 A 
ATOM      3  C   UNL     1      -1.384  -3.453   2.524  0.00  0.00    +0.000 A 
ATOM      4  C   UNL     1      -3.645  -4.106   2.083  0.00  0.00    +0.000 A 
ATOM      5  C   UNL     1      -0.925  -4.414   1.623  0.00  0.00    +0.000 A 
ATOM      6  C   UNL     1      -3.195  -5.070   1.179  0.00  0.00    +0.000 A 
ENDROOT
BRANCH   2   9
ATOM      7  O   UNL     1      -0.202  -6.333  -0.304  0.00  0.00    +0.000 OA
ATOM      8  N   UNL     1      -2.383  -7.082  -0.529  0.00  0.00    +0.000 N 
ATOM      9  C   ACE A   0      -1.392  -6.264  -0.020  0.00  0.00    +0.000 C 
ATOM     10  H   UNL     1      -3.346  -6.947  -0.233  0.00  0.00    +0.000 HD
ATOM     11  CA  UNL     1      -2.227  -8.112  -1.440  0.00  0.00    +0.000 C 
BRANCH  11  13
ATOM     12  OXT UNL     1      -4.067  -8.647  -2.866  0.00  0.00    +0.000 OA
ATOM     13  C   UNL     1      -3.469  -8.831  -1.817  0.00  0.00    +0.000 C 
BRANCH  13  14
ATOM     14  O   UNL     1      -3.895  -9.712  -0.899  0.00  0.00    +0.000 OA
ATOM     15  H   UNL     1      -4.127  -9.173  -0.116  0.00  0.00    +0.000 HD
ENDBRANCH  13  14
ENDBRANCH  11  13
BRANCH  11  16
ATOM     16  CB  UNL     1      -0.963  -8.459  -1.984  0.00  0.00    +0.000 C 
ATOM     17  CG  UNL     1       0.406  -8.839  -2.560  0.00  0.00    +0.000 C 
BRANCH  17  19
ATOM     18  OE2 UNL     1       2.368  -8.460  -3.773  0.00  0.00    +0.000 OA
ATOM     19  CD  UNL     1       1.690  -9.200  -3.080  0.00  0.00    +0.000 C 
BRANCH  19  20
ATOM     20  OE1 UNL     1       2.085 -10.444  -2.754  0.00  0.00    +0.000 OA
ATOM     21  HE1 UNL     1       2.949 -10.300  -2.319  0.00  0.00    +0.000 HD
ENDBRANCH  19  20
ENDBRANCH  17  19
ENDBRANCH  11  16
ENDBRANCH   2   9
BRANCH   1  22
ATOM     22  N   UNL     1      -3.201  -2.307   3.704  0.00  0.00    +0.000 N 
ATOM     23  C   UNL     1      -4.546  -1.764   3.642  0.00  0.00    +0.000 C 
BRANCH  22  24
ATOM     24  C   UNL     1      -2.249  -1.520   4.460  0.00  0.00    +0.000 C 
BRANCH  24  31
ATOM     25  N   UNL     1      -0.059  -1.084   5.075  0.00  0.00    +0.000 NA
ATOM     26  N   UNL     1      -0.822   1.134   6.921  0.00  0.00    +0.000 NA
ATOM     27  N   UNL     1       1.409   1.417   7.468  0.00  0.00    +0.000 NA
ATOM     28  N   UNL     1       3.131   0.144   6.455  0.00  0.00    +0.000 NA
ATOM     29  N   UNL     1       2.817  -1.478   4.867  0.00  0.00    +0.000 N 
ATOM     30  N   UNL     1       3.580   1.743   8.051  0.00  0.00    +0.000 N 
ATOM     31  C   UNL     1      -1.313  -0.751   5.201  0.00  0.00    +0.000 C 
ATOM     32  C   UNL     1      -1.525   0.328   6.112  0.00  0.00    +0.000 C 
ATOM     33  C   UNL     1       0.851  -0.309   5.823  0.00  0.00    +0.000 C 
ATOM     34  C   UNL     1       0.430   0.792   6.767  0.00  0.00    +0.000 C 
ATOM     35  C   UNL     1       2.306  -0.538   5.724  0.00  0.00    +0.000 C 
ATOM     36  C   UNL     1       2.650   1.086   7.316  0.00  0.00    +0.000 C 
ATOM     37  H   UNL     1       3.755  -1.785   5.097  0.00  0.00    +0.000 HD
ATOM     38  H   UNL     1       2.178  -2.212   4.581  0.00  0.00    +0.000 HD
ATOM     39  H   UNL     1       4.489   1.767   7.609  0.00  0.00    +0.000 HD
ATOM     40  H   UNL     1       3.250   2.637   8.389  0.00  0.00    +0.000 HD
ENDBRANCH  24  31
ENDBRANCH  22  24
ENDBRANCH   1  22
TORSDOF 9
ENDMDL
MODEL 6
REMARK VINA RESULT:      -6.2      9.908     14.122
REMARK  Name = Methotrexate.pdbqt.pdb
REMARK  9 active torsions:
REMARK  status: ('A' for Active; 'I' for Inactive)
REMARK    1  A    between atoms: C_1  and  N_22
REMARK    2  A    between atoms: C_2  and  C_9
REMARK    3  A    between atoms: CA_11  and  C_13
REMARK    4  A    between atoms: CA_11  and  CB_16
REMARK    5  A    between atoms: C_13  and  O_14
REMARK    6  A    between atoms: CG_17  and  CD_19
REMARK    7  A    between atoms: CD_19  and  OE1_20
REMARK    8  A    between atoms: N_22  and  C_24
REMARK    9  A    between atoms: C_24  and  C_31
REMARK                            x       y       z     vdW  Elec       q    Type
REMARK                         _______ _______ _______ _____ _____    ______ ____
ROOT
ATOM      1  C   UNL     1     -21.455   2.111   9.785  0.00  0.00    +0.000 A 
ATOM      2  C   UNL     1     -20.035   3.159  11.995  0.00  0.00    +0.000 A 
ATOM      3  C   UNL     1     -22.120   2.725  10.856  0.00  0.00    +0.000 A 
ATOM      4  C   UNL     1     -20.057   2.032   9.858  0.00  0.00    +0.000 A 
ATOM      5  C   UNL     1     -21.424   3.245  11.947  0.00  0.00    +0.000 A 
ATOM      6  C   UNL     1     -19.352   2.549  10.945  0.00  0.00    +0.000 A 
ENDROOT
BRANCH   2   9
ATOM      7  O   UNL     1     -18.366   2.996  13.617  0.00  0.00    +0.000 OA
ATOM      8  N   UNL     1     -19.586   4.966  13.563  0.00  0.00    +0.000 N 
ATOM      9  C   ACE A   0     -19.249   3.696  13.134  0.00  0.00    +0.000 C 
ATOM     10  H   UNL     1     -20.337   5.469  13.098  0.00  0.00    +0.000 HD
ATOM     11  CA  UNL     1     -19.007   5.676  14.600  0.00  0.00    +0.000 C 
BRANCH  11  13
ATOM     12  OXT UNL     1     -18.897   7.987  15.193  0.00  0.00    +0.000 OA
ATOM     13  C   UNL     1     -19.568   7.027  14.847  0.00  0.00    +0.000 C 
BRANCH  13  14
ATOM     14  O   UNL     1     -20.894   7.115  14.659  0.00  0.00    +0.000 OA
ATOM     15  H   UNL     1     -21.241   7.516  15.482  0.00  0.00    +0.000 HD
ENDBRANCH  13  14
ENDBRANCH  11  13
BRANCH  11  16
ATOM     16  CB  UNL     1     -17.947   5.147  15.383  0.00  0.00    +0.000 C 
ATOM     17  CG  UNL     1     -16.806   4.584  16.239  0.00  0.00    +0.000 C 
BRANCH  17  19
ATOM     18  OE2 UNL     1     -14.775   4.726  17.388  0.00  0.00    +0.000 OA
ATOM     19  CD  UNL     1     -15.747   4.070  17.052  0.00  0.00    +0.000 C 
BRANCH  19  20
ATOM     20  OE1 UNL     1     -15.902   2.781  17.406  0.00  0.00    +0.000 OA
ATOM     21  HE1 UNL     1     -15.008   2.404  17.285  0.00  0.00    +0.000 HD
ENDBRANCH  19  20
ENDBRANCH  17  19
ENDBRANCH  11  16
ENDBRANCH   2   9
BRANCH   1  22
ATOM     22  N   UNL     1     -22.178   1.570   8.695  0.00  0.00    +0.000 N 
ATOM     23  C   UNL     1     -23.238   2.320   8.045  0.00  0.00    +0.000 C 
BRANCH  22  24
ATOM     24  C   UNL     1     -22.198   0.141   8.466  0.00  0.00    +0.000 C 
BRANCH  24  31
ATOM     25  N   UNL     1     -22.121  -2.020   9.296  0.00  0.00    +0.000 NA
ATOM     26  N   UNL     1     -22.271  -3.266   6.588  0.00  0.00    +0.000 NA
ATOM     27  N   UNL     1     -22.139  -5.359   7.567  0.00  0.00    +0.000 NA
ATOM     28  N   UNL     1     -22.060  -5.654   9.916  0.00  0.00    +0.000 NA
ATOM     29  N   UNL     1     -22.095  -3.963  11.463  0.00  0.00    +0.000 N 
ATOM     30  N   UNL     1     -22.008  -7.441   8.465  0.00  0.00    +0.000 N 
ATOM     31  C   UNL     1     -22.216  -1.261   8.241  0.00  0.00    +0.000 C 
ATOM     32  C   UNL     1     -22.285  -1.995   7.017  0.00  0.00    +0.000 C 
ATOM     33  C   UNL     1     -22.136  -3.408   9.047  0.00  0.00    +0.000 C 
ATOM     34  C   UNL     1     -22.189  -4.006   7.662  0.00  0.00    +0.000 C 
ATOM     35  C   UNL     1     -22.099  -4.380  10.157  0.00  0.00    +0.000 C 
ATOM     36  C   UNL     1     -22.063  -6.097   8.626  0.00  0.00    +0.000 C 
ATOM     37  H   UNL     1     -21.748  -4.652  12.119  0.00  0.00    +0.000 HD
ATOM     38  H   UNL     1     -21.780  -3.012  11.624  0.00  0.00    +0.000 HD
ATOM     39  H   UNL     1     -22.376  -7.950   9.257  0.00  0.00    +0.000 HD
ATOM     40  H   UNL     1     -22.364  -7.740   7.567  0.00  0.00    +0.000 HD
ENDBRANCH  24  31
ENDBRANCH  22  24
ENDBRANCH   1  22
TORSDOF 9
ENDMDL
MODEL 7
REMARK VINA RESULT:      -6.1      1.593      2.696
REMARK  Name = Methotrexate.pdbqt.pdb
REMARK  9 active torsions:
REMARK  status: ('A' for Active; 'I' for Inactive)
REMARK    1  A    between atoms: C_1  and  N_22
REMARK    2  A    between atoms: C_2  and  C_9
REMARK    3  A    between atoms: CA_11  and  C_13
REMARK    4  A    between atoms: CA_11  and  CB_16
REMARK    5  A    between atoms: C_13  and  O_14
REMARK    6  A    between atoms: CG_17  and  CD_19
REMARK    7  A    between atoms: CD_19  and  OE1_20
REMARK    8  A    between atoms: N_22  and  C_24
REMARK    9  A    between atoms: C_24  and  C_31
REMARK                            x       y       z     vdW  Elec       q    Type
REMARK                         _______ _______ _______ _____ _____    ______ ____
ROOT
ATOM      1  C   UNL     1     -10.155   4.534  19.450  0.00  0.00    +0.000 A 
ATOM      2  C   UNL     1      -9.466   1.876  20.127  0.00  0.00    +0.000 A 
ATOM      3  C   UNL     1     -10.183   4.088  20.779  0.00  0.00    +0.000 A 
ATOM      4  C   UNL     1      -9.779   3.606  18.469  0.00  0.00    +0.000 A 
ATOM      5  C   UNL     1      -9.841   2.778  21.118  0.00  0.00    +0.000 A 
ATOM      6  C   UNL     1      -9.436   2.294  18.798  0.00  0.00    +0.000 A 
ENDROOT
BRANCH   2   9
ATOM      7  O   UNL     1      -9.647  -0.429  19.815  0.00  0.00    +0.000 OA
ATOM      8  N   UNL     1      -8.139   0.296  21.419  0.00  0.00    +0.000 N 
ATOM      9  C   ACE A   0      -9.095   0.472  20.436  0.00  0.00    +0.000 C 
ATOM     10  H   UNL     1      -7.738   1.108  21.880  0.00  0.00    +0.000 HD
ATOM     11  CA  UNL     1      -7.634  -0.906  21.883  0.00  0.00    +0.000 C 
BRANCH  11  13
ATOM     12  OXT UNL     1      -5.549  -1.408  22.934  0.00  0.00    +0.000 OA
ATOM     13  C   UNL     1      -6.609  -0.802  22.951  0.00  0.00    +0.000 C 
BRANCH  13  14
ATOM     14  O   UNL     1      -6.943   0.021  23.957  0.00  0.00    +0.000 OA
ATOM     15  H   UNL     1      -6.803  -0.503  24.772  0.00  0.00    +0.000 HD
ENDBRANCH  13  14
ENDBRANCH  11  13
BRANCH  11  16
ATOM     16  CB  UNL     1      -8.068  -2.159  21.376  0.00  0.00    +0.000 C 
ATOM     17  CG  UNL     1      -8.544  -3.514  20.841  0.00  0.00    +0.000 C 
BRANCH  17  19
ATOM     18  OE2 UNL     1      -8.363  -5.471  19.575  0.00  0.00    +0.000 OA
ATOM     19  CD  UNL     1      -8.997  -4.783  20.357  0.00  0.00    +0.000 C 
BRANCH  19  20
ATOM     20  OE1 UNL     1     -10.202  -5.151  20.827  0.00  0.00    +0.000 OA
ATOM     21  HE1 UNL     1     -10.346  -4.545  21.581  0.00  0.00    +0.000 HD
ENDBRANCH  19  20
ENDBRANCH  17  19
ENDBRANCH  11  16
ENDBRANCH   2   9
BRANCH   1  22
ATOM     22  N   UNL     1     -10.524   5.860  19.121  0.00  0.00    +0.000 N 
ATOM     23  C   UNL     1     -10.224   6.970  20.008  0.00  0.00    +0.000 C 
BRANCH  22  24
ATOM     24  C   UNL     1     -11.561   6.110  18.141  0.00  0.00    +0.000 C 
BRANCH  24  31
ATOM     25  N   UNL     1     -13.568   5.512  17.153  0.00  0.00    +0.000 NA
ATOM     26  N   UNL     1     -13.487   7.758  15.190  0.00  0.00    +0.000 NA
ATOM     27  N   UNL     1     -15.478   7.008  14.281  0.00  0.00    +0.000 NA
ATOM     28  N   UNL     1     -16.653   5.151  15.167  0.00  0.00    +0.000 NA
ATOM     29  N   UNL     1     -15.985   3.902  16.968  0.00  0.00    +0.000 N 
ATOM     30  N   UNL     1     -17.427   6.320  13.340  0.00  0.00    +0.000 N 
ATOM     31  C   UNL     1     -12.576   6.357  17.180  0.00  0.00    +0.000 C 
ATOM     32  C   UNL     1     -12.674   7.380  16.188  0.00  0.00    +0.000 C 
ATOM     33  C   UNL     1     -14.562   5.775  16.188  0.00  0.00    +0.000 C 
ATOM     34  C   UNL     1     -14.478   6.908  15.193  0.00  0.00    +0.000 C 
ATOM     35  C   UNL     1     -15.771   4.934  16.092  0.00  0.00    +0.000 C 
ATOM     36  C   UNL     1     -16.464   6.171  14.281  0.00  0.00    +0.000 C 
ATOM     37  H   UNL     1     -16.641   3.204  16.637  0.00  0.00    +0.000 HD
ATOM     38  H   UNL     1     -15.162   3.537  17.435  0.00  0.00    +0.000 HD
ATOM     39  H   UNL     1     -18.326   5.960  13.633  0.00  0.00    +0.000 HD
ATOM     40  H   UNL     1     -17.452   7.253  12.951  0.00  0.00    +0.000 HD
ENDBRANCH  24  31
ENDBRANCH  22  24
ENDBRANCH   1  22
TORSDOF 9
ENDMDL
MODEL 8
REMARK VINA RESULT:      -6.1      6.823      8.751
REMARK  Name = Methotrexate.pdbqt.pdb
REMARK  9 active torsions:
REMARK  status: ('A' for Active; 'I' for Inactive)
REMARK    1  A    between atoms: C_1  and  N_22
REMARK    2  A    between atoms: C_2  and  C_9
REMARK    3  A    between atoms: CA_11  and  C_13
REMARK    4  A    between atoms: CA_11  and  CB_16
REMARK    5  A    between atoms: C_13  and  O_14
REMARK    6  A    between atoms: CG_17  and  CD_19
REMARK    7  A    between atoms: CD_19  and  OE1_20
REMARK    8  A    between atoms: N_22  and  C_24
REMARK    9  A    between atoms: C_24  and  C_31
REMARK                            x       y       z     vdW  Elec       q    Type
REMARK                         _______ _______ _______ _____ _____    ______ ____
ROOT
ATOM      1  C   UNL     1      -5.303   0.409  22.476  0.00  0.00    +0.000 A 
ATOM      2  C   UNL     1      -7.282  -1.593  22.211  0.00  0.00    +0.000 A 
ATOM      3  C   UNL     1      -5.018  -0.939  22.736  0.00  0.00    +0.000 A 
ATOM      4  C   UNL     1      -6.612   0.725  22.087  0.00  0.00    +0.000 A 
ATOM      5  C   UNL     1      -5.990  -1.931  22.604  0.00  0.00    +0.000 A 
ATOM      6  C   UNL     1      -7.592  -0.260  21.952  0.00  0.00    +0.000 A 
ENDROOT
BRANCH   2   9
ATOM      7  O   UNL     1      -9.186  -2.721  22.949  0.00  0.00    +0.000 OA
ATOM      8  N   UNL     1      -8.317  -3.364  20.900  0.00  0.00    +0.000 N 
ATOM      9  C   ACE A   0      -8.352  -2.611  22.058  0.00  0.00    +0.000 C 
ATOM     10  H   UNL     1      -7.583  -3.199  20.217  0.00  0.00    +0.000 HD
ATOM     11  CA  UNL     1      -9.195  -4.368  20.532  0.00  0.00    +0.000 C 
BRANCH  11  13
ATOM     12  OXT UNL     1      -9.303  -4.570  18.154  0.00  0.00    +0.000 OA
ATOM     13  C   UNL     1      -8.921  -5.016  19.226  0.00  0.00    +0.000 C 
BRANCH  13  14
ATOM     14  O   UNL     1      -8.209  -6.150  19.312  0.00  0.00    +0.000 OA
ATOM     15  H   UNL     1      -7.275  -5.860  19.377  0.00  0.00    +0.000 HD
ENDBRANCH  13  14
ENDBRANCH  11  13
BRANCH  11  16
ATOM     16  CB  UNL     1     -10.287  -4.759  21.350  0.00  0.00    +0.000 C 
ATOM     17  CG  UNL     1     -11.458  -5.180  22.246  0.00  0.00    +0.000 C 
BRANCH  17  19
ATOM     18  OE2 UNL     1     -13.430  -4.817  23.448  0.00  0.00    +0.000 OA
ATOM     19  CD  UNL     1     -12.540  -5.573  23.097  0.00  0.00    +0.000 C 
BRANCH  19  20
ATOM     20  OE1 UNL     1     -12.485  -6.856  23.498  0.00  0.00    +0.000 OA
ATOM     21  HE1 UNL     1     -13.328  -7.231  23.174  0.00  0.00    +0.000 HD
ENDBRANCH  19  20
ENDBRANCH  17  19
ENDBRANCH  11  16
ENDBRANCH   2   9
BRANCH   1  22
ATOM     22  N   UNL     1      -4.310   1.405  22.634  0.00  0.00    +0.000 N 
ATOM     23  C   UNL     1      -3.987   1.949  23.941  0.00  0.00    +0.000 C 
BRANCH  22  24
ATOM     24  C   UNL     1      -3.897   2.213  21.505  0.00  0.00    +0.000 C 
BRANCH  24  31
ATOM     25  N   UNL     1      -4.448   3.547  19.694  0.00  0.00    +0.000 NA
ATOM     26  N   UNL     1      -1.604   3.943  18.881  0.00  0.00    +0.000 NA
ATOM     27  N   UNL     1      -2.317   5.218  17.086  0.00  0.00    +0.000 NA
ATOM     28  N   UNL     1      -4.604   5.716  16.718  0.00  0.00    +0.000 NA
ATOM     29  N   UNL     1      -6.339   5.016  18.041  0.00  0.00    +0.000 N 
ATOM     30  N   UNL     1      -2.952   6.474  15.304  0.00  0.00    +0.000 N 
ATOM     31  C   UNL     1      -3.494   3.005  20.399  0.00  0.00    +0.000 C 
ATOM     32  C   UNL     1      -2.187   3.285  19.894  0.00  0.00    +0.000 C 
ATOM     33  C   UNL     1      -4.025   4.325  18.598  0.00  0.00    +0.000 C 
ATOM     34  C   UNL     1      -2.577   4.486  18.199  0.00  0.00    +0.000 C 
ATOM     35  C   UNL     1      -4.999   5.046  17.755  0.00  0.00    +0.000 C 
ATOM     36  C   UNL     1      -3.276   5.763  16.410  0.00  0.00    +0.000 C 
ATOM     37  H   UNL     1      -6.937   5.250  17.257  0.00  0.00    +0.000 HD
ATOM     38  H   UNL     1      -6.655   4.239  18.611  0.00  0.00    +0.000 HD
ATOM     39  H   UNL     1      -3.627   7.195  15.085  0.00  0.00    +0.000 HD
ATOM     40  H   UNL     1      -1.989   6.784  15.307  0.00  0.00    +0.000 HD
ENDBRANCH  24  31
ENDBRANCH  22  24
ENDBRANCH   1  22
TORSDOF 9
ENDMDL
MODEL 9
REMARK VINA RESULT:      -6.0     19.979     22.376
REMARK  Name = Methotrexate.pdbqt.pdb
REMARK  9 active torsions:
REMARK  status: ('A' for Active; 'I' for Inactive)
REMARK    1  A    between atoms: C_1  and  N_22
REMARK    2  A    between atoms: C_2  and  C_9
REMARK    3  A    between atoms: CA_11  and  C_13
REMARK    4  A    between atoms: CA_11  and  CB_16
REMARK    5  A    between atoms: C_13  and  O_14
REMARK    6  A    between atoms: CG_17  and  CD_19
REMARK    7  A    between atoms: CD_19  and  OE1_20
REMARK    8  A    between atoms: N_22  and  C_24
REMARK    9  A    between atoms: C_24  and  C_31
REMARK                            x       y       z     vdW  Elec       q    Type
REMARK                         _______ _______ _______ _____ _____    ______ ____
ROOT
ATOM      1  C   UNL     1      -4.533  -2.968   0.764  0.00  0.00    +0.000 A 
ATOM      2  C   UNL     1      -5.401  -5.501  -0.147  0.00  0.00    +0.000 A 
ATOM      3  C   UNL     1      -4.222  -4.142   1.464  0.00  0.00    +0.000 A 
ATOM      4  C   UNL     1      -5.299  -3.100  -0.402  0.00  0.00    +0.000 A 
ATOM      5  C   UNL     1      -4.645  -5.394   1.017  0.00  0.00    +0.000 A 
ATOM      6  C   UNL     1      -5.728  -4.348  -0.858  0.00  0.00    +0.000 A 
ENDROOT
BRANCH   2   9
ATOM      7  O   UNL     1      -5.081  -7.530  -1.252  0.00  0.00    +0.000 OA
ATOM      8  N   UNL     1      -7.206  -7.110  -0.429  0.00  0.00    +0.000 N 
ATOM      9  C   ACE A   0      -5.877  -6.809  -0.663  0.00  0.00    +0.000 C 
ATOM     10  H   UNL     1      -7.790  -6.444   0.070  0.00  0.00    +0.000 HD
ATOM     11  CA  UNL     1      -7.880  -8.256  -0.811  0.00  0.00    +0.000 C 
BRANCH  11  13
ATOM     12  OXT UNL     1      -9.965  -9.350  -0.411  0.00  0.00    +0.000 OA
ATOM     13  C   UNL     1      -9.312  -8.318  -0.428  0.00  0.00    +0.000 C 
BRANCH  13  14
ATOM     14  O   UNL     1      -9.845  -7.132  -0.097  0.00  0.00    +0.000 OA
ATOM     15  H   UNL     1     -10.664  -7.063  -0.631  0.00  0.00    +0.000 HD
ENDBRANCH  13  14
ENDBRANCH  11  13
BRANCH  11  16
ATOM     16  CB  UNL     1      -7.247  -9.307  -1.526  0.00  0.00    +0.000 C 
ATOM     17  CG  UNL     1      -6.552 -10.433  -2.300  0.00  0.00    +0.000 C 
BRANCH  17  19
ATOM     18  OE2 UNL     1      -5.563 -12.538  -2.533  0.00  0.00    +0.000 OA
ATOM     19  CD  UNL     1      -5.889 -11.472  -3.028  0.00  0.00    +0.000 C 
BRANCH  19  20
ATOM     20  OE1 UNL     1      -5.636 -11.167  -4.313  0.00  0.00    +0.000 OA
ATOM     21  HE1 UNL     1      -5.628 -12.039  -4.756  0.00  0.00    +0.000 HD
ENDBRANCH  19  20
ENDBRANCH  17  19
ENDBRANCH  11  16
ENDBRANCH   2   9
BRANCH   1  22
ATOM     22  N   UNL     1      -4.113  -1.704   1.242  0.00  0.00    +0.000 N 
ATOM     23  C   UNL     1      -4.581  -0.472   0.633  0.00  0.00    +0.000 C 
BRANCH  22  24
ATOM     24  C   UNL     1      -2.909  -1.585   2.038  0.00  0.00    +0.000 C 
BRANCH  24  31
ATOM     25  N   UNL     1      -0.598  -1.615   2.187  0.00  0.00    +0.000 NA
ATOM     26  N   UNL     1      -0.595  -1.142   5.133  0.00  0.00    +0.000 NA
ATOM     27  N   UNL     1       1.717  -1.243   5.126  0.00  0.00    +0.000 NA
ATOM     28  N   UNL     1       2.964  -1.524   3.131  0.00  0.00    +0.000 NA
ATOM     29  N   UNL     1       2.071  -1.730   1.031  0.00  0.00    +0.000 N 
ATOM     30  N   UNL     1       3.986  -1.337   5.187  0.00  0.00    +0.000 N 
ATOM     31  C   UNL     1      -1.729  -1.466   2.818  0.00  0.00    +0.000 C 
ATOM     32  C   UNL     1      -1.571  -1.241   4.220  0.00  0.00    +0.000 C 
ATOM     33  C   UNL     1       0.560  -1.497   2.983  0.00  0.00    +0.000 C 
ATOM     34  C   UNL     1       0.526  -1.280   4.477  0.00  0.00    +0.000 C 
ATOM     35  C   UNL     1       1.906  -1.581   2.384  0.00  0.00    +0.000 C 
ATOM     36  C   UNL     1       2.830  -1.375   4.480  0.00  0.00    +0.000 C 
ATOM     37  H   UNL     1       2.975  -2.097   0.760  0.00  0.00    +0.000 HD
ATOM     38  H   UNL     1       1.278  -2.113   0.527  0.00  0.00    +0.000 HD
ATOM     39  H   UNL     1       4.774  -1.016   4.640  0.00  0.00    +0.000 HD
ATOM     40  H   UNL     1       3.880  -0.883   6.084  0.00  0.00    +0.000 HD
ENDBRANCH  24  31
ENDBRANCH  22  24
ENDBRANCH   1  22
TORSDOF 9
ENDMDL
