MODEL 1
REMARK VINA RESULT:      -6.0      0.000      0.000
REMARK  Name = 
REMARK  21 active torsions:
REMARK  status: ('A' for Active; 'I' for Inactive)
REMARK    1  A    between atoms: O_3  and  C_27
REMARK    2  A    between atoms: O_3  and  C_28
REMARK    3  A    between atoms: N_6  and  CA_9
REMARK    4  A    between atoms: N_7  and  CA_15
REMARK    5  A    between atoms: N_8  and  CA_12
REMARK    6  A    between atoms: CA_9  and  CB_10
REMARK    7  A    between atoms: CA_9  and  C_16
REMARK    8  A    between atoms: CB_10  and  CG_11
REMARK    9  A    between atoms: CG_11  and  CD1_20
REMARK   10  A    between atoms: CG_11  and  CD2_21
REMARK   11  A    between atoms: CA_12  and  CB_13
REMARK   12  A    between atoms: CA_12  and  C_18
REMARK   13  A    between atoms: CB_13  and  CG_14
REMARK   14  A    between atoms: CG_14  and  CD1_22
REMARK   15  A    between atoms: CG_14  and  CD2_23
REMARK   16  A    between atoms: CA_15  and  CB_17
REMARK   17  A    between atoms: CA_15  and  C_26
REMARK   18  A    between atoms: CB_17  and  CG_19
REMARK   19  A    between atoms: CG_19  and  CD1_24
REMARK   20  A    between atoms: CG_19  and  CD2_25
REMARK   21  A    between atoms: C_28  and  C_29
REMARK                            x       y       z     vdW  Elec       q    Type
REMARK                         _______ _______ _______ _____ _____    ______ ____
ROOT
ATOM      1  O   UNL     1     -11.610  -2.543  21.579  0.00  0.00    +0.000 OA
ATOM      2  N   UNL     1      -9.749  -2.208  22.855  0.00  0.00    +0.000 N 
ATOM      3  C   UNL     1     -11.091  -2.504  22.690  0.00  0.00    +0.000 C 
ATOM      4  H   UNL     1      -9.322  -2.664  23.657  0.00  0.00    +0.000 HD
ENDROOT
BRANCH   2   5
ATOM      5  CA  UNL     1      -8.891  -2.067  21.677  0.00  0.00    +0.000 C 
BRANCH   5   8
ATOM      6  O   UNL     1      -6.900  -3.055  22.626  0.00  0.00    +0.000 OA
ATOM      7  N   UNL     1      -7.869  -4.299  21.057  0.00  0.00    +0.000 N 
ATOM      8  C   UNL     1      -7.830  -3.174  21.822  0.00  0.00    +0.000 C 
ATOM      9  H   UNL     1      -7.116  -4.933  21.303  0.00  0.00    +0.000 HD
BRANCH   7  10
ATOM     10  CA  UNL     1      -8.990  -4.872  20.310  0.00  0.00    +0.000 C 
BRANCH  10  12
ATOM     11  O   UNL     1      -9.808  -5.600  22.486  0.00  0.00    +0.000 OA
ATOM     12  C   UNL     1      -9.961  -5.562  21.268  0.00  0.00    +0.000 C 
ENDBRANCH  10  12
BRANCH  10  13
ATOM     13  CB  UNL     1      -8.519  -5.770  19.155  0.00  0.00    +0.000 C 
BRANCH  13  14
ATOM     14  CG  UNL     1      -8.607  -5.194  17.724  0.00  0.00    +0.000 C 
ATOM     15  CD1 UNL     1      -8.739  -6.263  16.642  0.00  0.00    +0.000 C 
ATOM     16  CD2 UNL     1      -9.795  -4.229  17.637  0.00  0.00    +0.000 C 
ENDBRANCH  13  14
ENDBRANCH  10  13
ENDBRANCH   7  10
ENDBRANCH   5   8
BRANCH   5  17
ATOM     17  CB  UNL     1      -8.222  -0.684  21.679  0.00  0.00    +0.000 C 
BRANCH  17  18
ATOM     18  CG  UNL     1      -8.956   0.385  20.846  0.00  0.00    +0.000 C 
ATOM     19  CD1 UNL     1      -9.745  -0.223  19.685  0.00  0.00    +0.000 C 
ATOM     20  CD2 UNL     1      -9.909   1.177  21.747  0.00  0.00    +0.000 C 
ENDBRANCH  17  18
ENDBRANCH   5  17
ENDBRANCH   2   5
BRANCH   3  21
ATOM     21  CA  UNL     1     -11.840  -2.858  23.999  0.00  0.00    +0.000 C 
BRANCH  21  23
ATOM     22  O   UNL     1     -13.941  -4.595  23.267  0.00  0.00    +0.000 OA
ATOM     23  N   UNL     1     -11.858  -4.315  24.184  0.00  0.00    +0.000 N 
ATOM     24  C   ACE A   0     -12.954  -5.051  23.820  0.00  0.00    +0.000 C 
ATOM     25  H   UNL     1     -11.285  -4.700  24.921  0.00  0.00    +0.000 HD
BRANCH  24  26
ATOM     26  O   UNL     1     -12.884  -6.338  24.239  0.00  0.00    +0.000 OA
BRANCH  26  27
ATOM     27  C   UNL     1     -12.675  -6.519  25.645  0.00  0.00    +0.000 C 
BRANCH  27  28
ATOM     28  C   UNL     1     -11.868  -7.773  25.880  0.00  0.00    +0.000 A 
ATOM     29  C   UNL     1     -12.498  -9.024  25.934  0.00  0.00    +0.000 A 
ATOM     30  C   UNL     1     -10.486  -7.703  26.109  0.00  0.00    +0.000 A 
ATOM     31  C   UNL     1     -11.758 -10.181  26.184  0.00  0.00    +0.000 A 
ATOM     32  C   UNL     1      -9.747  -8.860  26.359  0.00  0.00    +0.000 A 
ATOM     33  C   UNL     1     -10.384 -10.099  26.395  0.00  0.00    +0.000 A 
ENDBRANCH  27  28
ENDBRANCH  26  27
ENDBRANCH  24  26
ENDBRANCH  21  23
BRANCH  21  34
ATOM     34  CB  UNL     1     -11.188  -2.185  25.220  0.00  0.00    +0.000 C 
BRANCH  34  35
ATOM     35  CG  UNL     1     -12.039  -1.116  25.938  0.00  0.00    +0.000 C 
ATOM     36  CD1 UNL     1     -11.535   0.304  25.677  0.00  0.00    +0.000 C 
ATOM     37  CD2 UNL     1     -13.497  -1.234  25.483  0.00  0.00    +0.000 C 
ENDBRANCH  34  35
ENDBRANCH  21  34
ENDBRANCH   3  21
TORSDOF 15
ENDMDL
MODEL 2
REMARK VINA RESULT:      -5.5      2.922      5.980
REMARK  Name = 
REMARK  21 active torsions:
REMARK  status: ('A' for Active; 'I' for Inactive)
REMARK    1  A    between atoms: O_3  and  C_27
REMARK    2  A    between atoms: O_3  and  C_28
REMARK    3  A    between atoms: N_6  and  CA_9
REMARK    4  A    between atoms: N_7  and  CA_15
REMARK    5  A    between atoms: N_8  and  CA_12
REMARK    6  A    between atoms: CA_9  and  CB_10
REMARK    7  A    between atoms: CA_9  and  C_16
REMARK    8  A    between atoms: CB_10  and  CG_11
REMARK    9  A    between atoms: CG_11  and  CD1_20
REMARK   10  A    between atoms: CG_11  and  CD2_21
REMARK   11  A    between atoms: CA_12  and  CB_13
REMARK   12  A    between atoms: CA_12  and  C_18
REMARK   13  A    between atoms: CB_13  and  CG_14
REMARK   14  A    between atoms: CG_14  and  CD1_22
REMARK   15  A    between atoms: CG_14  and  CD2_23
REMARK   16  A    between atoms: CA_15  and  CB_17
REMARK   17  A    between atoms: CA_15  and  C_26
REMARK   18  A    between atoms: CB_17  and  CG_19
REMARK   19  A    between atoms: CG_19  and  CD1_24
REMARK   20  A    between atoms: CG_19  and  CD2_25
REMARK   21  A    between atoms: C_28  and  C_29
REMARK                            x       y       z     vdW  Elec       q    Type
REMARK                         _______ _______ _______ _____ _____    ______ ____
ROOT
ATOM      1  O   UNL     1     -11.174  -1.836  21.593  0.00  0.00    +0.000 OA
ATOM      2  N   UNL     1      -9.412  -2.031  23.028  0.00  0.00    +0.000 N 
ATOM      3  C   UNL     1     -10.765  -1.961  22.744  0.00  0.00    +0.000 C 
ATOM      4  H   UNL     1      -9.191  -2.602  23.841  0.00  0.00    +0.000 HD
ENDROOT
BRANCH   2   5
ATOM      5  CA  UNL     1      -8.445  -2.092  21.931  0.00  0.00    +0.000 C 
BRANCH   5   8
ATOM      6  O   UNL     1      -6.879  -3.533  23.076  0.00  0.00    +0.000 OA
ATOM      7  N   UNL     1      -7.849  -4.474  21.309  0.00  0.00    +0.000 N 
ATOM      8  C   UNL     1      -7.682  -3.413  22.146  0.00  0.00    +0.000 C 
ATOM      9  H   UNL     1      -7.295  -5.268  21.613  0.00  0.00    +0.000 HD
BRANCH   7  10
ATOM     10  CA  UNL     1      -8.942  -4.755  20.378  0.00  0.00    +0.000 C 
BRANCH  10  12
ATOM     11  O   UNL     1     -11.321  -4.934  20.873  0.00  0.00    +0.000 OA
ATOM     12  C   UNL     1     -10.167  -5.256  21.143  0.00  0.00    +0.000 C 
ENDBRANCH  10  12
BRANCH  10  13
ATOM     13  CB  UNL     1      -8.507  -5.683  19.234  0.00  0.00    +0.000 C 
BRANCH  13  14
ATOM     14  CG  UNL     1      -8.607  -5.133  17.794  0.00  0.00    +0.000 C 
ATOM     15  CD1 UNL     1      -8.677  -6.224  16.726  0.00  0.00    +0.000 C 
ATOM     16  CD2 UNL     1      -9.839  -4.228  17.680  0.00  0.00    +0.000 C 
ENDBRANCH  13  14
ENDBRANCH  10  13
ENDBRANCH   7  10
ENDBRANCH   5   8
BRANCH   5  17
ATOM     17  CB  UNL     1      -7.481  -0.900  22.016  0.00  0.00    +0.000 C 
BRANCH  17  18
ATOM     18  CG  UNL     1      -8.151   0.445  22.360  0.00  0.00    +0.000 C 
ATOM     19  CD1 UNL     1      -7.511   1.119  23.574  0.00  0.00    +0.000 C 
ATOM     20  CD2 UNL     1      -8.067   1.386  21.155  0.00  0.00    +0.000 C 
ENDBRANCH  17  18
ENDBRANCH   5  17
ENDBRANCH   2   5
BRANCH   3  21
ATOM     21  CA  UNL     1     -11.694  -2.136  23.970  0.00  0.00    +0.000 C 
BRANCH  21  23
ATOM     22  O   UNL     1     -13.112   0.294  23.752  0.00  0.00    +0.000 OA
ATOM     23  N   UNL     1     -13.096  -1.991  23.557  0.00  0.00    +0.000 N 
ATOM     24  C   ACE A   0     -13.689  -0.757  23.523  0.00  0.00    +0.000 C 
ATOM     25  H   UNL     1     -13.711  -2.779  23.703  0.00  0.00    +0.000 HD
BRANCH  24  26
ATOM     26  O   UNL     1     -15.026  -0.823  23.316  0.00  0.00    +0.000 OA
BRANCH  26  27
ATOM     27  C   UNL     1     -15.832  -0.078  24.238  0.00  0.00    +0.000 C 
BRANCH  27  28
ATOM     28  C   UNL     1     -17.114   0.346  23.563  0.00  0.00    +0.000 A 
ATOM     29  C   UNL     1     -17.301   0.124  22.192  0.00  0.00    +0.000 A 
ATOM     30  C   UNL     1     -18.112   1.020  24.281  0.00  0.00    +0.000 A 
ATOM     31  C   UNL     1     -18.473   0.545  21.559  0.00  0.00    +0.000 A 
ATOM     32  C   UNL     1     -19.283   1.440  23.648  0.00  0.00    +0.000 A 
ATOM     33  C   UNL     1     -19.464   1.201  22.287  0.00  0.00    +0.000 A 
ENDBRANCH  27  28
ENDBRANCH  26  27
ENDBRANCH  24  26
ENDBRANCH  21  23
BRANCH  21  34
ATOM     34  CB  UNL     1     -11.488  -3.506  24.642  0.00  0.00    +0.000 C 
BRANCH  34  35
ATOM     35  CG  UNL     1     -12.747  -4.387  24.781  0.00  0.00    +0.000 C 
ATOM     36  CD1 UNL     1     -12.626  -5.704  24.014  0.00  0.00    +0.000 C 
ATOM     37  CD2 UNL     1     -13.006  -4.678  26.263  0.00  0.00    +0.000 C 
ENDBRANCH  34  35
ENDBRANCH  21  34
ENDBRANCH   3  21
TORSDOF 15
ENDMDL
MODEL 3
REMARK VINA RESULT:      -5.3      2.124      4.941
REMARK  Name = 
REMARK  21 active torsions:
REMARK  status: ('A' for Active; 'I' for Inactive)
REMARK    1  A    between atoms: O_3  and  C_27
REMARK    2  A    between atoms: O_3  and  C_28
REMARK    3  A    between atoms: N_6  and  CA_9
REMARK    4  A    between atoms: N_7  and  CA_15
REMARK    5  A    between atoms: N_8  and  CA_12
REMARK    6  A    between atoms: CA_9  and  CB_10
REMARK    7  A    between atoms: CA_9  and  C_16
REMARK    8  A    between atoms: CB_10  and  CG_11
REMARK    9  A    between atoms: CG_11  and  CD1_20
REMARK   10  A    between atoms: CG_11  and  CD2_21
REMARK   11  A    between atoms: CA_12  and  CB_13
REMARK   12  A    between atoms: CA_12  and  C_18
REMARK   13  A    between atoms: CB_13  and  CG_14
REMARK   14  A    between atoms: CG_14  and  CD1_22
REMARK   15  A    between atoms: CG_14  and  CD2_23
REMARK   16  A    between atoms: CA_15  and  CB_17
REMARK   17  A    between atoms: CA_15  and  C_26
REMARK   18  A    between atoms: CB_17  and  CG_19
REMARK   19  A    between atoms: CG_19  and  CD1_24
REMARK   20  A    between atoms: CG_19  and  CD2_25
REMARK   21  A    between atoms: C_28  and  C_29
REMARK                            x       y       z     vdW  Elec       q    Type
REMARK                         _______ _______ _______ _____ _____    ______ ____
ROOT
ATOM      1  O   UNL     1      -7.791  -4.780  23.849  0.00  0.00    +0.000 OA
ATOM      2  N   UNL     1      -9.942  -5.067  23.146  0.00  0.00    +0.000 N 
ATOM      3  C   UNL     1      -8.919  -5.215  24.066  0.00  0.00    +0.000 C 
ATOM      4  H   UNL     1     -10.865  -4.986  23.567  0.00  0.00    +0.000 HD
ENDROOT
BRANCH   2   5
ATOM      5  CA  UNL     1      -9.723  -4.259  21.945  0.00  0.00    +0.000 C 
BRANCH   5   8
ATOM      6  O   UNL     1     -12.012  -3.493  22.060  0.00  0.00    +0.000 OA
ATOM      7  N   UNL     1     -10.515  -1.853  21.916  0.00  0.00    +0.000 N 
ATOM      8  C   UNL     1     -10.820  -3.178  21.985  0.00  0.00    +0.000 C 
ATOM      9  H   UNL     1     -11.351  -1.283  21.986  0.00  0.00    +0.000 HD
BRANCH   7  10
ATOM     10  CA  UNL     1      -9.241  -1.183  22.176  0.00  0.00    +0.000 C 
BRANCH  10  12
ATOM     11  O   UNL     1      -8.628   0.684  23.617  0.00  0.00    +0.000 OA
ATOM     12  C   UNL     1      -9.365  -0.276  23.400  0.00  0.00    +0.000 C 
ENDBRANCH  10  12
BRANCH  10  13
ATOM     13  CB  UNL     1      -8.697  -0.466  20.929  0.00  0.00    +0.000 C 
BRANCH  13  14
ATOM     14  CG  UNL     1      -9.643   0.515  20.203  0.00  0.00    +0.000 C 
ATOM     15  CD1 UNL     1      -9.070   1.924  20.062  0.00  0.00    +0.000 C 
ATOM     16  CD2 UNL     1      -9.982  -0.039  18.815  0.00  0.00    +0.000 C 
ENDBRANCH  13  14
ENDBRANCH  10  13
ENDBRANCH   7  10
ENDBRANCH   5   8
BRANCH   5  17
ATOM     17  CB  UNL     1      -9.880  -5.131  20.691  0.00  0.00    +0.000 C 
BRANCH  17  18
ATOM     18  CG  UNL     1      -8.992  -4.713  19.503  0.00  0.00    +0.000 C 
ATOM     19  CD1 UNL     1      -8.299  -5.907  18.846  0.00  0.00    +0.000 C 
ATOM     20  CD2 UNL     1      -9.840  -3.981  18.458  0.00  0.00    +0.000 C 
ENDBRANCH  17  18
ENDBRANCH   5  17
ENDBRANCH   2   5
BRANCH   3  21
ATOM     21  CA  UNL     1      -9.337  -5.889  25.396  0.00  0.00    +0.000 C 
BRANCH  21  23
ATOM     22  O   UNL     1     -11.905  -6.021  26.560  0.00  0.00    +0.000 OA
ATOM     23  N   UNL     1     -10.351  -6.920  25.133  0.00  0.00    +0.000 N 
ATOM     24  C   ACE A   0     -11.553  -6.899  25.788  0.00  0.00    +0.000 C 
ATOM     25  H   UNL     1     -10.028  -7.824  24.819  0.00  0.00    +0.000 HD
BRANCH  24  26
ATOM     26  O   UNL     1     -12.283  -8.021  25.581  0.00  0.00    +0.000 OA
BRANCH  26  27
ATOM     27  C   UNL     1     -12.828  -8.631  26.757  0.00  0.00    +0.000 C 
BRANCH  27  28
ATOM     28  C   UNL     1     -11.788  -9.517  27.398  0.00  0.00    +0.000 A 
ATOM     29  C   UNL     1     -10.973 -10.340  26.608  0.00  0.00    +0.000 A 
ATOM     30  C   UNL     1     -11.658  -9.577  28.793  0.00  0.00    +0.000 A 
ATOM     31  C   UNL     1     -10.031 -11.185  27.201  0.00  0.00    +0.000 A 
ATOM     32  C   UNL     1     -10.717 -10.422  29.384  0.00  0.00    +0.000 A 
ATOM     33  C   UNL     1      -9.903 -11.225  28.588  0.00  0.00    +0.000 A 
ENDBRANCH  27  28
ENDBRANCH  26  27
ENDBRANCH  24  26
ENDBRANCH  21  23
BRANCH  21  34
ATOM     34  CB  UNL     1      -8.129  -6.517  26.113  0.00  0.00    +0.000 C 
BRANCH  34  35
ATOM     35  CG  UNL     1      -8.258  -6.673  27.643  0.00  0.00    +0.000 C 
ATOM     36  CD1 UNL     1      -7.998  -8.106  28.109  0.00  0.00    +0.000 C 
ATOM     37  CD2 UNL     1      -7.276  -5.723  28.338  0.00  0.00    +0.000 C 
ENDBRANCH  34  35
ENDBRANCH  21  34
ENDBRANCH   3  21
TORSDOF 15
ENDMDL
MODEL 4
REMARK VINA RESULT:      -5.3      3.878      6.611
REMARK  Name = 
REMARK  21 active torsions:
REMARK  status: ('A' for Active; 'I' for Inactive)
REMARK    1  A    between atoms: O_3  and  C_27
REMARK    2  A    between atoms: O_3  and  C_28
REMARK    3  A    between atoms: N_6  and  CA_9
REMARK    4  A    between atoms: N_7  and  CA_15
REMARK    5  A    between atoms: N_8  and  CA_12
REMARK    6  A    between atoms: CA_9  and  CB_10
REMARK    7  A    between atoms: CA_9  and  C_16
REMARK    8  A    between atoms: CB_10  and  CG_11
REMARK    9  A    between atoms: CG_11  and  CD1_20
REMARK   10  A    between atoms: CG_11  and  CD2_21
REMARK   11  A    between atoms: CA_12  and  CB_13
REMARK   12  A    between atoms: CA_12  and  C_18
REMARK   13  A    between atoms: CB_13  and  CG_14
REMARK   14  A    between atoms: CG_14  and  CD1_22
REMARK   15  A    between atoms: CG_14  and  CD2_23
REMARK   16  A    between atoms: CA_15  and  CB_17
REMARK   17  A    between atoms: CA_15  and  C_26
REMARK   18  A    between atoms: CB_17  and  CG_19
REMARK   19  A    between atoms: CG_19  and  CD1_24
REMARK   20  A    between atoms: CG_19  and  CD2_25
REMARK   21  A    between atoms: C_28  and  C_29
REMARK                            x       y       z     vdW  Elec       q    Type
REMARK                         _______ _______ _______ _____ _____    ______ ____
ROOT
ATOM      1  O   UNL     1     -12.572  -2.668  22.318  0.00  0.00    +0.000 OA
ATOM      2  N   UNL     1     -11.247  -1.150  23.388  0.00  0.00    +0.000 N 
ATOM      3  C   UNL     1     -12.423  -1.863  23.233  0.00  0.00    +0.000 C 
ATOM      4  H   UNL     1     -11.024  -0.930  24.356  0.00  0.00    +0.000 HD
ENDROOT
BRANCH   2   5
ATOM      5  CA  UNL     1     -10.101  -1.451  22.528  0.00  0.00    +0.000 C 
BRANCH   5   8
ATOM      6  O   UNL     1      -8.899  -2.315  24.439  0.00  0.00    +0.000 OA
ATOM      7  N   UNL     1      -8.998  -3.723  22.718  0.00  0.00    +0.000 N 
ATOM      8  C   UNL     1      -9.303  -2.526  23.290  0.00  0.00    +0.000 C 
ATOM      9  H   UNL     1      -8.497  -4.320  23.368  0.00  0.00    +0.000 HD
BRANCH   7  10
ATOM     10  CA  UNL     1      -9.614  -4.381  21.565  0.00  0.00    +0.000 C 
BRANCH  10  12
ATOM     11  O   UNL     1     -10.907  -5.723  23.133  0.00  0.00    +0.000 OA
ATOM     12  C   UNL     1     -10.401  -5.609  22.020  0.00  0.00    +0.000 C 
ENDBRANCH  10  12
BRANCH  10  13
ATOM     13  CB  UNL     1      -8.595  -4.678  20.454  0.00  0.00    +0.000 C 
BRANCH  13  14
ATOM     14  CG  UNL     1      -9.144  -5.172  19.097  0.00  0.00    +0.000 C 
ATOM     15  CD1 UNL     1      -9.824  -4.077  18.277  0.00  0.00    +0.000 C 
ATOM     16  CD2 UNL     1      -8.002  -5.787  18.280  0.00  0.00    +0.000 C 
ENDBRANCH  13  14
ENDBRANCH  10  13
ENDBRANCH   7  10
ENDBRANCH   5   8
BRANCH   5  17
ATOM     17  CB  UNL     1      -9.246  -0.190  22.334  0.00  0.00    +0.000 C 
BRANCH  17  18
ATOM     18  CG  UNL     1      -8.889   0.124  20.868  0.00  0.00    +0.000 C 
ATOM     19  CD1 UNL     1      -9.567  -0.833  19.887  0.00  0.00    +0.000 C 
ATOM     20  CD2 UNL     1      -9.295   1.563  20.535  0.00  0.00    +0.000 C 
ENDBRANCH  17  18
ENDBRANCH   5  17
ENDBRANCH   2   5
BRANCH   3  21
ATOM     21  CA  UNL     1     -13.477  -1.621  24.341  0.00  0.00    +0.000 C 
BRANCH  21  23
ATOM     22  O   UNL     1     -14.757   0.819  23.730  0.00  0.00    +0.000 OA
ATOM     23  N   UNL     1     -14.808  -1.474  23.738  0.00  0.00    +0.000 N 
ATOM     24  C   ACE A   0     -15.342  -0.231  23.520  0.00  0.00    +0.000 C 
ATOM     25  H   UNL     1     -15.468  -2.227  23.870  0.00  0.00    +0.000 HD
BRANCH  24  26
ATOM     26  O   UNL     1     -16.644  -0.278  23.148  0.00  0.00    +0.000 OA
BRANCH  26  27
ATOM     27  C   UNL     1     -17.451   0.823  23.583  0.00  0.00    +0.000 C 
BRANCH  27  28
ATOM     28  C   UNL     1     -18.691   0.913  22.727  0.00  0.00    +0.000 A 
ATOM     29  C   UNL     1     -18.712   0.345  21.446  0.00  0.00    +0.000 A 
ATOM     30  C   UNL     1     -19.819   1.617  23.172  0.00  0.00    +0.000 A 
ATOM     31  C   UNL     1     -19.847   0.455  20.639  0.00  0.00    +0.000 A 
ATOM     32  C   UNL     1     -20.953   1.727  22.365  0.00  0.00    +0.000 A 
ATOM     33  C   UNL     1     -20.966   1.145  21.099  0.00  0.00    +0.000 A 
ENDBRANCH  27  28
ENDBRANCH  26  27
ENDBRANCH  24  26
ENDBRANCH  21  23
BRANCH  21  34
ATOM     34  CB  UNL     1     -13.493  -2.771  25.364  0.00  0.00    +0.000 C 
BRANCH  34  35
ATOM     35  CG  UNL     1     -13.787  -2.372  26.825  0.00  0.00    +0.000 C 
ATOM     36  CD1 UNL     1     -13.506  -0.894  27.096  0.00  0.00    +0.000 C 
ATOM     37  CD2 UNL     1     -15.250  -2.684  27.156  0.00  0.00    +0.000 C 
ENDBRANCH  34  35
ENDBRANCH  21  34
ENDBRANCH   3  21
TORSDOF 15
ENDMDL
MODEL 5
REMARK VINA RESULT:      -5.3      2.353      5.180
REMARK  Name = 
REMARK  21 active torsions:
REMARK  status: ('A' for Active; 'I' for Inactive)
REMARK    1  A    between atoms: O_3  and  C_27
REMARK    2  A    between atoms: O_3  and  C_28
REMARK    3  A    between atoms: N_6  and  CA_9
REMARK    4  A    between atoms: N_7  and  CA_15
REMARK    5  A    between atoms: N_8  and  CA_12
REMARK    6  A    between atoms: CA_9  and  CB_10
REMARK    7  A    between atoms: CA_9  and  C_16
REMARK    8  A    between atoms: CB_10  and  CG_11
REMARK    9  A    between atoms: CG_11  and  CD1_20
REMARK   10  A    between atoms: CG_11  and  CD2_21
REMARK   11  A    between atoms: CA_12  and  CB_13
REMARK   12  A    between atoms: CA_12  and  C_18
REMARK   13  A    between atoms: CB_13  and  CG_14
REMARK   14  A    between atoms: CG_14  and  CD1_22
REMARK   15  A    between atoms: CG_14  and  CD2_23
REMARK   16  A    between atoms: CA_15  and  CB_17
REMARK   17  A    between atoms: CA_15  and  C_26
REMARK   18  A    between atoms: CB_17  and  CG_19
REMARK   19  A    between atoms: CG_19  and  CD1_24
REMARK   20  A    between atoms: CG_19  and  CD2_25
REMARK   21  A    between atoms: C_28  and  C_29
REMARK                            x       y       z     vdW  Elec       q    Type
REMARK                         _______ _______ _______ _____ _____    ______ ____
ROOT
ATOM      1  O   UNL     1      -7.818  -4.908  24.111  0.00  0.00    +0.000 OA
ATOM      2  N   UNL     1      -9.910  -5.396  23.345  0.00  0.00    +0.000 N 
ATOM      3  C   UNL     1      -8.880  -5.504  24.263  0.00  0.00    +0.000 C 
ATOM      4  H   UNL     1     -10.837  -5.479  23.756  0.00  0.00    +0.000 HD
ENDROOT
BRANCH   2   5
ATOM      5  CA  UNL     1      -9.793  -4.449  22.236  0.00  0.00    +0.000 C 
BRANCH   5   8
ATOM      6  O   UNL     1     -12.091  -3.710  22.111  0.00  0.00    +0.000 OA
ATOM      7  N   UNL     1     -10.705  -2.213  23.000  0.00  0.00    +0.000 N 
ATOM      8  C   UNL     1     -10.935  -3.438  22.452  0.00  0.00    +0.000 C 
ATOM      9  H   UNL     1     -11.569  -1.690  23.097  0.00  0.00    +0.000 HD
BRANCH   7  10
ATOM     10  CA  UNL     1      -9.569  -1.756  23.800  0.00  0.00    +0.000 C 
BRANCH  10  12
ATOM     11  O   UNL     1     -11.135  -1.760  25.666  0.00  0.00    +0.000 OA
ATOM     12  C   UNL     1     -10.004  -1.527  25.247  0.00  0.00    +0.000 C 
ENDBRANCH  10  12
BRANCH  10  13
ATOM     13  CB  UNL     1      -8.864  -0.545  23.169  0.00  0.00    +0.000 C 
BRANCH  13  14
ATOM     14  CG  UNL     1      -7.942  -0.809  21.958  0.00  0.00    +0.000 C 
ATOM     15  CD1 UNL     1      -7.149  -2.109  22.065  0.00  0.00    +0.000 C 
ATOM     16  CD2 UNL     1      -8.782  -0.828  20.675  0.00  0.00    +0.000 C 
ENDBRANCH  13  14
ENDBRANCH  10  13
ENDBRANCH   7  10
ENDBRANCH   5   8
BRANCH   5  17
ATOM     17  CB  UNL     1      -9.977  -5.182  20.899  0.00  0.00    +0.000 C 
BRANCH  17  18
ATOM     18  CG  UNL     1      -9.055  -4.691  19.765  0.00  0.00    +0.000 C 
ATOM     19  CD1 UNL     1      -8.375  -5.845  19.028  0.00  0.00    +0.000 C 
ATOM     20  CD2 UNL     1      -9.865  -3.858  18.766  0.00  0.00    +0.000 C 
ENDBRANCH  17  18
ENDBRANCH   5  17
ENDBRANCH   2   5
BRANCH   3  21
ATOM     21  CA  UNL     1      -9.212  -6.359  25.511  0.00  0.00    +0.000 C 
BRANCH  21  23
ATOM     22  O   UNL     1     -11.238  -7.129  27.320  0.00  0.00    +0.000 OA
ATOM     23  N   UNL     1     -10.338  -7.255  25.214  0.00  0.00    +0.000 N 
ATOM     24  C   ACE A   0     -11.242  -7.586  26.188  0.00  0.00    +0.000 C 
ATOM     25  H   UNL     1     -10.217  -7.927  24.469  0.00  0.00    +0.000 HD
BRANCH  24  26
ATOM     26  O   UNL     1     -12.091  -8.569  25.803  0.00  0.00    +0.000 OA
BRANCH  26  27
ATOM     27  C   UNL     1     -11.622  -9.907  26.011  0.00  0.00    +0.000 C 
BRANCH  27  28
ATOM     28  C   UNL     1     -12.766 -10.782  26.461  0.00  0.00    +0.000 A 
ATOM     29  C   UNL     1     -12.750 -11.375  27.730  0.00  0.00    +0.000 A 
ATOM     30  C   UNL     1     -13.835 -11.065  25.597  0.00  0.00    +0.000 A 
ATOM     31  C   UNL     1     -13.793 -12.211  28.137  0.00  0.00    +0.000 A 
ATOM     32  C   UNL     1     -14.876 -11.900  26.004  0.00  0.00    +0.000 A 
ATOM     33  C   UNL     1     -14.855 -12.473  27.274  0.00  0.00    +0.000 A 
ENDBRANCH  27  28
ENDBRANCH  26  27
ENDBRANCH  24  26
ENDBRANCH  21  23
BRANCH  21  34
ATOM     34  CB  UNL     1      -7.996  -7.184  25.969  0.00  0.00    +0.000 C 
BRANCH  34  35
ATOM     35  CG  UNL     1      -7.451  -6.860  27.376  0.00  0.00    +0.000 C 
ATOM     36  CD1 UNL     1      -8.041  -5.571  27.949  0.00  0.00    +0.000 C 
ATOM     37  CD2 UNL     1      -7.755  -8.027  28.322  0.00  0.00    +0.000 C 
ENDBRANCH  34  35
ENDBRANCH  21  34
ENDBRANCH   3  21
TORSDOF 15
ENDMDL
MODEL 6
REMARK VINA RESULT:      -5.2     14.966     18.269
REMARK  Name = 
REMARK  21 active torsions:
REMARK  status: ('A' for Active; 'I' for Inactive)
REMARK    1  A    between atoms: O_3  and  C_27
REMARK    2  A    between atoms: O_3  and  C_28
REMARK    3  A    between atoms: N_6  and  CA_9
REMARK    4  A    between atoms: N_7  and  CA_15
REMARK    5  A    between atoms: N_8  and  CA_12
REMARK    6  A    between atoms: CA_9  and  CB_10
REMARK    7  A    between atoms: CA_9  and  C_16
REMARK    8  A    between atoms: CB_10  and  CG_11
REMARK    9  A    between atoms: CG_11  and  CD1_20
REMARK   10  A    between atoms: CG_11  and  CD2_21
REMARK   11  A    between atoms: CA_12  and  CB_13
REMARK   12  A    between atoms: CA_12  and  C_18
REMARK   13  A    between atoms: CB_13  and  CG_14
REMARK   14  A    between atoms: CG_14  and  CD1_22
REMARK   15  A    between atoms: CG_14  and  CD2_23
REMARK   16  A    between atoms: CA_15  and  CB_17
REMARK   17  A    between atoms: CA_15  and  C_26
REMARK   18  A    between atoms: CB_17  and  CG_19
REMARK   19  A    between atoms: CG_19  and  CD1_24
REMARK   20  A    between atoms: CG_19  and  CD2_25
REMARK   21  A    between atoms: C_28  and  C_29
REMARK                            x       y       z     vdW  Elec       q    Type
REMARK                         _______ _______ _______ _____ _____    ______ ____
ROOT
ATOM      1  O   UNL     1     -24.227  -4.143  11.053  0.00  0.00    +0.000 OA
ATOM      2  N   UNL     1     -22.658  -5.734  11.509  0.00  0.00    +0.000 N 
ATOM      3  C   UNL     1     -23.108  -4.603  10.850  0.00  0.00    +0.000 C 
ATOM      4  H   UNL     1     -21.653  -5.744  11.670  0.00  0.00    +0.000 HD
ENDROOT
BRANCH   2   5
ATOM      5  CA  UNL     1     -23.473  -6.323  12.572  0.00  0.00    +0.000 C 
BRANCH   5   8
ATOM      6  O   UNL     1     -21.529  -6.971  13.852  0.00  0.00    +0.000 OA
ATOM      7  N   UNL     1     -22.905  -5.595  14.930  0.00  0.00    +0.000 N 
ATOM      8  C   UNL     1     -22.572  -6.310  13.821  0.00  0.00    +0.000 C 
ATOM      9  H   UNL     1     -22.188  -5.674  15.644  0.00  0.00    +0.000 HD
BRANCH   7  10
ATOM     10  CA  UNL     1     -23.842  -4.479  15.065  0.00  0.00    +0.000 C 
BRANCH  10  12
ATOM     11  O   UNL     1     -23.617  -2.371  13.865  0.00  0.00    +0.000 OA
ATOM     12  C   UNL     1     -23.157  -3.168  14.679  0.00  0.00    +0.000 C 
ENDBRANCH  10  12
BRANCH  10  13
ATOM     13  CB  UNL     1     -24.507  -4.443  16.449  0.00  0.00    +0.000 C 
BRANCH  13  14
ATOM     14  CG  UNL     1     -25.998  -4.045  16.513  0.00  0.00    +0.000 C 
ATOM     15  CD1 UNL     1     -26.223  -2.560  16.792  0.00  0.00    +0.000 C 
ATOM     16  CD2 UNL     1     -26.683  -4.426  15.195  0.00  0.00    +0.000 C 
ENDBRANCH  13  14
ENDBRANCH  10  13
ENDBRANCH   7  10
ENDBRANCH   5   8
BRANCH   5  17
ATOM     17  CB  UNL     1     -23.852  -7.765  12.204  0.00  0.00    +0.000 C 
BRANCH  17  18
ATOM     18  CG  UNL     1     -24.337  -7.951  10.752  0.00  0.00    +0.000 C 
ATOM     19  CD1 UNL     1     -24.304  -9.414  10.311  0.00  0.00    +0.000 C 
ATOM     20  CD2 UNL     1     -25.763  -7.410  10.612  0.00  0.00    +0.000 C 
ENDBRANCH  17  18
ENDBRANCH   5  17
ENDBRANCH   2   5
BRANCH   3  21
ATOM     21  CA  UNL     1     -22.065  -3.940   9.917  0.00  0.00    +0.000 C 
BRANCH  21  23
ATOM     22  O   UNL     1     -22.891  -1.505   8.752  0.00  0.00    +0.000 OA
ATOM     23  N   UNL     1     -21.741  -2.595  10.410  0.00  0.00    +0.000 N 
ATOM     24  C   ACE A   0     -22.170  -1.483   9.737  0.00  0.00    +0.000 C 
ATOM     25  H   UNL     1     -20.900  -2.489  10.960  0.00  0.00    +0.000 HD
BRANCH  24  26
ATOM     26  O   UNL     1     -21.620  -0.339  10.210  0.00  0.00    +0.000 OA
BRANCH  26  27
ATOM     27  C   UNL     1     -21.659  -0.177  11.634  0.00  0.00    +0.000 C 
BRANCH  27  28
ATOM     28  C   UNL     1     -20.951   1.099  12.018  0.00  0.00    +0.000 A 
ATOM     29  C   UNL     1     -19.565   1.223  11.847  0.00  0.00    +0.000 A 
ATOM     30  C   UNL     1     -21.655   2.159  12.608  0.00  0.00    +0.000 A 
ATOM     31  C   UNL     1     -18.903   2.391  12.232  0.00  0.00    +0.000 A 
ATOM     32  C   UNL     1     -20.993   3.326  12.993  0.00  0.00    +0.000 A 
ATOM     33  C   UNL     1     -19.617   3.442  12.804  0.00  0.00    +0.000 A 
ENDBRANCH  27  28
ENDBRANCH  26  27
ENDBRANCH  24  26
ENDBRANCH  21  23
BRANCH  21  34
ATOM     34  CB  UNL     1     -20.781  -4.783   9.819  0.00  0.00    +0.000 C 
BRANCH  34  35
ATOM     35  CG  UNL     1     -20.281  -5.090   8.391  0.00  0.00    +0.000 C 
ATOM     36  CD1 UNL     1     -20.992  -4.250   7.330  0.00  0.00    +0.000 C 
ATOM     37  CD2 UNL     1     -18.771  -4.840   8.314  0.00  0.00    +0.000 C 
ENDBRANCH  34  35
ENDBRANCH  21  34
ENDBRANCH   3  21
TORSDOF 15
ENDMDL
MODEL 7
REMARK VINA RESULT:      -5.2      2.693      5.227
REMARK  Name = 
REMARK  21 active torsions:
REMARK  status: ('A' for Active; 'I' for Inactive)
REMARK    1  A    between atoms: O_3  and  C_27
REMARK    2  A    between atoms: O_3  and  C_28
REMARK    3  A    between atoms: N_6  and  CA_9
REMARK    4  A    between atoms: N_7  and  CA_15
REMARK    5  A    between atoms: N_8  and  CA_12
REMARK    6  A    between atoms: CA_9  and  CB_10
REMARK    7  A    between atoms: CA_9  and  C_16
REMARK    8  A    between atoms: CB_10  and  CG_11
REMARK    9  A    between atoms: CG_11  and  CD1_20
REMARK   10  A    between atoms: CG_11  and  CD2_21
REMARK   11  A    between atoms: CA_12  and  CB_13
REMARK   12  A    between atoms: CA_12  and  C_18
REMARK   13  A    between atoms: CB_13  and  CG_14
REMARK   14  A    between atoms: CG_14  and  CD1_22
REMARK   15  A    between atoms: CG_14  and  CD2_23
REMARK   16  A    between atoms: CA_15  and  CB_17
REMARK   17  A    between atoms: CA_15  and  C_26
REMARK   18  A    between atoms: CB_17  and  CG_19
REMARK   19  A    between atoms: CG_19  and  CD1_24
REMARK   20  A    between atoms: CG_19  and  CD2_25
REMARK   21  A    between atoms: C_28  and  C_29
REMARK                            x       y       z     vdW  Elec       q    Type
REMARK                         _______ _______ _______ _____ _____    ______ ____
ROOT
ATOM      1  O   UNL     1     -12.036  -6.239  24.082  0.00  0.00    +0.000 OA
ATOM      2  N   UNL     1     -10.051  -5.300  24.700  0.00  0.00    +0.000 N 
ATOM      3  C   UNL     1     -11.054  -6.246  24.820  0.00  0.00    +0.000 C 
ATOM      4  H   UNL     1      -9.128  -5.644  24.956  0.00  0.00    +0.000 HD
ENDROOT
BRANCH   2   5
ATOM      5  CA  UNL     1     -10.084  -4.348  23.589  0.00  0.00    +0.000 C 
BRANCH   5   8
ATOM      6  O   UNL     1      -7.699  -4.677  23.803  0.00  0.00    +0.000 OA
ATOM      7  N   UNL     1      -8.308  -3.668  21.916  0.00  0.00    +0.000 N 
ATOM      8  C   UNL     1      -8.624  -4.248  23.106  0.00  0.00    +0.000 C 
ATOM      9  H   UNL     1      -7.310  -3.714  21.742  0.00  0.00    +0.000 HD
BRANCH   7  10
ATOM     10  CA  UNL     1      -9.164  -3.406  20.758  0.00  0.00    +0.000 C 
BRANCH  10  12
ATOM     11  O   UNL     1      -9.025  -5.680  19.893  0.00  0.00    +0.000 OA
ATOM     12  C   UNL     1      -8.936  -4.472  19.686  0.00  0.00    +0.000 C 
ENDBRANCH  10  12
BRANCH  10  13
ATOM     13  CB  UNL     1      -9.015  -1.968  20.239  0.00  0.00    +0.000 C 
BRANCH  13  14
ATOM     14  CG  UNL     1      -9.009  -0.830  21.284  0.00  0.00    +0.000 C 
ATOM     15  CD1 UNL     1      -7.612  -0.460  21.778  0.00  0.00    +0.000 C 
ATOM     16  CD2 UNL     1      -9.685   0.410  20.689  0.00  0.00    +0.000 C 
ENDBRANCH  13  14
ENDBRANCH  10  13
ENDBRANCH   7  10
ENDBRANCH   5   8
BRANCH   5  17
ATOM     17  CB  UNL     1     -10.576  -2.981  24.085  0.00  0.00    +0.000 C 
BRANCH  17  18
ATOM     18  CG  UNL     1     -11.745  -2.387  23.275  0.00  0.00    +0.000 C 
ATOM     19  CD1 UNL     1     -13.090  -3.009  23.655  0.00  0.00    +0.000 C 
ATOM     20  CD2 UNL     1     -11.807  -0.872  23.493  0.00  0.00    +0.000 C 
ENDBRANCH  17  18
ENDBRANCH   5  17
ENDBRANCH   2   5
BRANCH   3  21
ATOM     21  CA  UNL     1     -10.792  -7.337  25.887  0.00  0.00    +0.000 C 
BRANCH  21  23
ATOM     22  O   UNL     1     -12.895  -8.684  27.203  0.00  0.00    +0.000 OA
ATOM     23  N   UNL     1     -11.402  -8.604  25.463  0.00  0.00    +0.000 N 
ATOM     24  C   ACE A   0     -12.396  -9.183  26.206  0.00  0.00    +0.000 C 
ATOM     25  H   UNL     1     -10.839  -9.230  24.904  0.00  0.00    +0.000 HD
BRANCH  24  26
ATOM     26  O   UNL     1     -12.704 -10.434  25.787  0.00  0.00    +0.000 OA
BRANCH  26  27
ATOM     27  C   UNL     1     -13.731 -11.100  26.531  0.00  0.00    +0.000 C 
BRANCH  27  28
ATOM     28  C   UNL     1     -15.054 -10.945  25.821  0.00  0.00    +0.000 A 
ATOM     29  C   UNL     1     -16.211 -10.617  26.540  0.00  0.00    +0.000 A 
ATOM     30  C   UNL     1     -15.160 -11.184  24.443  0.00  0.00    +0.000 A 
ATOM     31  C   UNL     1     -17.443 -10.505  25.890  0.00  0.00    +0.000 A 
ATOM     32  C   UNL     1     -16.390 -11.072  23.794  0.00  0.00    +0.000 A 
ATOM     33  C   UNL     1     -17.531 -10.731  24.518  0.00  0.00    +0.000 A 
ENDBRANCH  27  28
ENDBRANCH  26  27
ENDBRANCH  24  26
ENDBRANCH  21  23
BRANCH  21  34
ATOM     34  CB  UNL     1      -9.285  -7.538  26.128  0.00  0.00    +0.000 C 
BRANCH  34  35
ATOM     35  CG  UNL     1      -8.815  -7.439  27.594  0.00  0.00    +0.000 C 
ATOM     36  CD1 UNL     1      -9.273  -8.631  28.436  0.00  0.00    +0.000 C 
ATOM     37  CD2 UNL     1      -7.287  -7.339  27.636  0.00  0.00    +0.000 C 
ENDBRANCH  34  35
ENDBRANCH  21  34
ENDBRANCH   3  21
TORSDOF 15
ENDMDL
MODEL 8
REMARK VINA RESULT:      -5.2      2.027      7.430
REMARK  Name = 
REMARK  21 active torsions:
REMARK  status: ('A' for Active; 'I' for Inactive)
REMARK    1  A    between atoms: O_3  and  C_27
REMARK    2  A    between atoms: O_3  and  C_28
REMARK    3  A    between atoms: N_6  and  CA_9
REMARK    4  A    between atoms: N_7  and  CA_15
REMARK    5  A    between atoms: N_8  and  CA_12
REMARK    6  A    between atoms: CA_9  and  CB_10
REMARK    7  A    between atoms: CA_9  and  C_16
REMARK    8  A    between atoms: CB_10  and  CG_11
REMARK    9  A    between atoms: CG_11  and  CD1_20
REMARK   10  A    between atoms: CG_11  and  CD2_21
REMARK   11  A    between atoms: CA_12  and  CB_13
REMARK   12  A    between atoms: CA_12  and  C_18
REMARK   13  A    between atoms: CB_13  and  CG_14
REMARK   14  A    between atoms: CG_14  and  CD1_22
REMARK   15  A    between atoms: CG_14  and  CD2_23
REMARK   16  A    between atoms: CA_15  and  CB_17
REMARK   17  A    between atoms: CA_15  and  C_26
REMARK   18  A    between atoms: CB_17  and  CG_19
REMARK   19  A    between atoms: CG_19  and  CD1_24
REMARK   20  A    between atoms: CG_19  and  CD2_25
REMARK   21  A    between atoms: C_28  and  C_29
REMARK                            x       y       z     vdW  Elec       q    Type
REMARK                         _______ _______ _______ _____ _____    ______ ____
ROOT
ATOM      1  O   UNL     1     -11.757  -3.988  26.028  0.00  0.00    +0.000 OA
ATOM      2  N   UNL     1     -11.428  -3.207  23.910  0.00  0.00    +0.000 N 
ATOM      3  C   UNL     1     -11.354  -4.186  24.886  0.00  0.00    +0.000 C 
ATOM      4  H   UNL     1     -11.555  -3.572  22.969  0.00  0.00    +0.000 HD
ENDROOT
BRANCH   2   5
ATOM      5  CA  UNL     1     -12.121  -1.951  24.199  0.00  0.00    +0.000 C 
BRANCH   5   8
ATOM      6  O   UNL     1     -13.856  -3.076  22.948  0.00  0.00    +0.000 OA
ATOM      7  N   UNL     1     -14.598  -1.424  24.241  0.00  0.00    +0.000 N 
ATOM      8  C   UNL     1     -13.579  -2.190  23.763  0.00  0.00    +0.000 C 
ATOM      9  H   UNL     1     -15.491  -1.737  23.875  0.00  0.00    +0.000 HD
BRANCH   7  10
ATOM     10  CA  UNL     1     -14.639  -0.579  25.435  0.00  0.00    +0.000 C 
BRANCH  10  12
ATOM     11  O   UNL     1     -14.357   1.331  23.948  0.00  0.00    +0.000 OA
ATOM     12  C   UNL     1     -14.250   0.855  25.076  0.00  0.00    +0.000 C 
ENDBRANCH  10  12
BRANCH  10  13
ATOM     13  CB  UNL     1     -13.819  -1.169  26.593  0.00  0.00    +0.000 C 
BRANCH  13  14
ATOM     14  CG  UNL     1     -12.950  -0.195  27.419  0.00  0.00    +0.000 C 
ATOM     15  CD1 UNL     1     -13.604   0.251  28.725  0.00  0.00    +0.000 C 
ATOM     16  CD2 UNL     1     -11.600  -0.853  27.723  0.00  0.00    +0.000 C 
ENDBRANCH  13  14
ENDBRANCH  10  13
ENDBRANCH   7  10
ENDBRANCH   5   8
BRANCH   5  17
ATOM     17  CB  UNL     1     -11.501  -0.810  23.380  0.00  0.00    +0.000 C 
BRANCH  17  18
ATOM     18  CG  UNL     1     -10.793   0.272  24.219  0.00  0.00    +0.000 C 
ATOM     19  CD1 UNL     1      -9.439  -0.199  24.751  0.00  0.00    +0.000 C 
ATOM     20  CD2 UNL     1     -10.594   1.533  23.373  0.00  0.00    +0.000 C 
ENDBRANCH  17  18
ENDBRANCH   5  17
ENDBRANCH   2   5
BRANCH   3  21
ATOM     21  CA  UNL     1     -10.808  -5.549  24.394  0.00  0.00    +0.000 C 
BRANCH  21  23
ATOM     22  O   UNL     1     -11.635  -5.433  21.697  0.00  0.00    +0.000 OA
ATOM     23  N   UNL     1      -9.933  -5.343  23.232  0.00  0.00    +0.000 N 
ATOM     24  C   ACE A   0     -10.447  -5.342  21.962  0.00  0.00    +0.000 C 
ATOM     25  H   UNL     1      -8.964  -5.616  23.321  0.00  0.00    +0.000 HD
BRANCH  24  26
ATOM     26  O   UNL     1      -9.486  -5.340  21.007  0.00  0.00    +0.000 OA
BRANCH  26  27
ATOM     27  C   UNL     1      -9.640  -4.355  19.978  0.00  0.00    +0.000 C 
BRANCH  27  28
ATOM     28  C   UNL     1      -9.152  -3.018  20.477  0.00  0.00    +0.000 A 
ATOM     29  C   UNL     1      -9.731  -1.830  20.010  0.00  0.00    +0.000 A 
ATOM     30  C   UNL     1      -8.073  -2.937  21.370  0.00  0.00    +0.000 A 
ATOM     31  C   UNL     1      -9.258  -0.590  20.446  0.00  0.00    +0.000 A 
ATOM     32  C   UNL     1      -7.601  -1.697  21.806  0.00  0.00    +0.000 A 
ATOM     33  C   UNL     1      -8.195  -0.524  21.344  0.00  0.00    +0.000 A 
ENDBRANCH  27  28
ENDBRANCH  26  27
ENDBRANCH  24  26
ENDBRANCH  21  23
BRANCH  21  34
ATOM     34  CB  UNL     1     -10.034  -6.280  25.505  0.00  0.00    +0.000 C 
BRANCH  34  35
ATOM     35  CG  UNL     1     -10.687  -7.569  26.048  0.00  0.00    +0.000 C 
ATOM     36  CD1 UNL     1      -9.664  -8.671  26.326  0.00  0.00    +0.000 C 
ATOM     37  CD2 UNL     1     -11.458  -7.249  27.333  0.00  0.00    +0.000 C 
ENDBRANCH  34  35
ENDBRANCH  21  34
ENDBRANCH   3  21
TORSDOF 15
ENDMDL
MODEL 9
REMARK VINA RESULT:      -5.1      2.048      5.731
REMARK  Name = 
REMARK  21 active torsions:
REMARK  status: ('A' for Active; 'I' for Inactive)
REMARK    1  A    between atoms: O_3  and  C_27
REMARK    2  A    between atoms: O_3  and  C_28
REMARK    3  A    between atoms: N_6  and  CA_9
REMARK    4  A    between atoms: N_7  and  CA_15
REMARK    5  A    between atoms: N_8  and  CA_12
REMARK    6  A    between atoms: CA_9  and  CB_10
REMARK    7  A    between atoms: CA_9  and  C_16
REMARK    8  A    between atoms: CB_10  and  CG_11
REMARK    9  A    between atoms: CG_11  and  CD1_20
REMARK   10  A    between atoms: CG_11  and  CD2_21
REMARK   11  A    between atoms: CA_12  and  CB_13
REMARK   12  A    between atoms: CA_12  and  C_18
REMARK   13  A    between atoms: CB_13  and  CG_14
REMARK   14  A    between atoms: CG_14  and  CD1_22
REMARK   15  A    between atoms: CG_14  and  CD2_23
REMARK   16  A    between atoms: CA_15  and  CB_17
REMARK   17  A    between atoms: CA_15  and  C_26
REMARK   18  A    between atoms: CB_17  and  CG_19
REMARK   19  A    between atoms: CG_19  and  CD1_24
REMARK   20  A    between atoms: CG_19  and  CD2_25
REMARK   21  A    between atoms: C_28  and  C_29
REMARK                            x       y       z     vdW  Elec       q    Type
REMARK                         _______ _______ _______ _____ _____    ______ ____
ROOT
ATOM      1  O   UNL     1     -11.711  -3.224  21.166  0.00  0.00    +0.000 OA
ATOM      2  N   UNL     1     -10.707  -2.296  22.992  0.00  0.00    +0.000 N 
ATOM      3  C   UNL     1     -10.802  -3.246  21.990  0.00  0.00    +0.000 C 
ATOM      4  H   UNL     1      -9.752  -2.088  23.274  0.00  0.00    +0.000 HD
ENDROOT
BRANCH   2   5
ATOM      5  CA  UNL     1     -11.629  -1.159  22.998  0.00  0.00    +0.000 C 
BRANCH   5   8
ATOM      6  O   UNL     1     -10.778   0.439  24.599  0.00  0.00    +0.000 OA
ATOM      7  N   UNL     1     -10.005   0.728  22.533  0.00  0.00    +0.000 N 
ATOM      8  C   UNL     1     -10.772   0.047  23.428  0.00  0.00    +0.000 C 
ATOM      9  H   UNL     1      -9.486   1.471  22.989  0.00  0.00    +0.000 HD
BRANCH   7  10
ATOM     10  CA  UNL     1      -9.527   0.308  21.215  0.00  0.00    +0.000 C 
BRANCH  10  12
ATOM     11  O   UNL     1      -7.905  -1.241  22.168  0.00  0.00    +0.000 OA
ATOM     12  C   UNL     1      -8.161  -0.367  21.343  0.00  0.00    +0.000 C 
ENDBRANCH  10  12
BRANCH  10  13
ATOM     13  CB  UNL     1      -9.554   1.455  20.194  0.00  0.00    +0.000 C 
BRANCH  13  14
ATOM     14  CG  UNL     1      -8.921   2.800  20.616  0.00  0.00    +0.000 C 
ATOM     15  CD1 UNL     1      -7.797   3.264  19.693  0.00  0.00    +0.000 C 
ATOM     16  CD2 UNL     1     -10.010   3.877  20.675  0.00  0.00    +0.000 C 
ENDBRANCH  13  14
ENDBRANCH  10  13
ENDBRANCH   7  10
ENDBRANCH   5   8
BRANCH   5  17
ATOM     17  CB  UNL     1     -12.754  -1.402  24.015  0.00  0.00    +0.000 C 
BRANCH  17  18
ATOM     18  CG  UNL     1     -12.459  -2.509  25.046  0.00  0.00    +0.000 C 
ATOM     19  CD1 UNL     1     -12.610  -2.016  26.486  0.00  0.00    +0.000 C 
ATOM     20  CD2 UNL     1     -13.401  -3.694  24.814  0.00  0.00    +0.000 C 
ENDBRANCH  17  18
ENDBRANCH   5  17
ENDBRANCH   2   5
BRANCH   3  21
ATOM     21  CA  UNL     1      -9.636  -4.266  21.954  0.00  0.00    +0.000 C 
BRANCH  21  23
ATOM     22  O   UNL     1      -7.553  -4.325  23.858  0.00  0.00    +0.000 OA
ATOM     23  N   UNL     1      -9.625  -5.052  23.195  0.00  0.00    +0.000 N 
ATOM     24  C   ACE A   0      -8.538  -5.027  24.027  0.00  0.00    +0.000 C 
ATOM     25  H   UNL     1     -10.192  -5.887  23.225  0.00  0.00    +0.000 HD
BRANCH  24  26
ATOM     26  O   UNL     1      -8.611  -5.954  25.013  0.00  0.00    +0.000 OA
BRANCH  26  27
ATOM     27  C   UNL     1      -8.900  -5.443  26.320  0.00  0.00    +0.000 C 
BRANCH  27  28
ATOM     28  C   UNL     1     -10.334  -5.749  26.679  0.00  0.00    +0.000 A 
ATOM     29  C   UNL     1     -10.957  -5.083  27.743  0.00  0.00    +0.000 A 
ATOM     30  C   UNL     1     -11.047  -6.743  25.994  0.00  0.00    +0.000 A 
ATOM     31  C   UNL     1     -12.273  -5.387  28.097  0.00  0.00    +0.000 A 
ATOM     32  C   UNL     1     -12.363  -7.047  26.348  0.00  0.00    +0.000 A 
ATOM     33  C   UNL     1     -12.976  -6.367  27.400  0.00  0.00    +0.000 A 
ENDBRANCH  27  28
ENDBRANCH  26  27
ENDBRANCH  24  26
ENDBRANCH  21  23
BRANCH  21  34
ATOM     34  CB  UNL     1      -9.749  -5.207  20.742  0.00  0.00    +0.000 C 
BRANCH  34  35
ATOM     35  CG  UNL     1      -8.858  -4.859  19.531  0.00  0.00    +0.000 C 
ATOM     36  CD1 UNL     1      -8.188  -6.092  18.924  0.00  0.00    +0.000 C 
ATOM     37  CD2 UNL     1      -9.702  -4.157  18.461  0.00  0.00    +0.000 C 
ENDBRANCH  34  35
ENDBRANCH  21  34
ENDBRANCH   3  21
TORSDOF 15
ENDMDL
