MODEL 1
REMARK VINA RESULT:      -6.3      0.000      0.000
REMARK  Name = Monobenzone.pdbqt.pdb
REMARK  4 active torsions:
REMARK  status: ('A' for Active; 'I' for Inactive)
REMARK    1  A    between atoms: C_1  and  O_7
REMARK    2  A    between atoms: C_6  and  O_15
REMARK    3  A    between atoms: O_7  and  C_8
REMARK    4  A    between atoms: C_8  and  C_9
REMARK                            x       y       z     vdW  Elec       q    Type
REMARK                         _______ _______ _______ _____ _____    ______ ____
ROOT
ATOM      1  C   UNL     1      -8.880  -4.756  19.435  0.00  0.00    +0.000 A 
ATOM      2  C   UNL     1      -8.173  -5.867  18.968  0.00  0.00    +0.000 A 
ATOM      3  C   UNL     1      -9.693  -4.036  18.558  0.00  0.00    +0.000 A 
ATOM      4  C   UNL     1      -8.277  -6.256  17.635  0.00  0.00    +0.000 A 
ATOM      5  C   UNL     1      -9.800  -4.420  17.224  0.00  0.00    +0.000 A 
ATOM      6  C   UNL     1      -9.091  -5.528  16.773  0.00  0.00    +0.000 A 
ENDROOT
BRANCH   6   7
ATOM      7  O   UNL     1      -9.212  -5.886  15.462  0.00  0.00    +0.000 OA
ATOM      8  H   UNL     1      -8.591  -6.614  15.286  0.00  0.00    +0.000 HD
ENDBRANCH   6   7
BRANCH   1   9
ATOM      9  O   UNL     1      -8.842  -4.298  20.728  0.00  0.00    +0.000 OA
BRANCH   9  10
ATOM     10  C   UNL     1      -8.742  -2.977  20.850  0.00  0.00    +0.000 C 
BRANCH  10  11
ATOM     11  C   UNL     1      -8.619  -1.562  20.982  0.00  0.00    +0.000 A 
ATOM     12  C   UNL     1      -9.467  -0.723  20.263  0.00  0.00    +0.000 A 
ATOM     13  C   UNL     1      -9.343   0.660  20.387  0.00  0.00    +0.000 A 
ATOM     14  C   UNL     1      -8.372   1.198  21.229  0.00  0.00    +0.000 A 
ATOM     15  C   UNL     1      -7.526   0.357  21.947  0.00  0.00    +0.000 A 
ATOM     16  C   UNL     1      -7.648  -1.025  21.824  0.00  0.00    +0.000 A 
ENDBRANCH  10  11
ENDBRANCH   9  10
ENDBRANCH   1   9
TORSDOF 4
ENDMDL
MODEL 2
REMARK VINA RESULT:      -5.4      3.389      6.137
REMARK  Name = Monobenzone.pdbqt.pdb
REMARK  4 active torsions:
REMARK  status: ('A' for Active; 'I' for Inactive)
REMARK    1  A    between atoms: C_1  and  O_7
REMARK    2  A    between atoms: C_6  and  O_15
REMARK    3  A    between atoms: O_7  and  C_8
REMARK    4  A    between atoms: C_8  and  C_9
REMARK                            x       y       z     vdW  Elec       q    Type
REMARK                         _______ _______ _______ _____ _____    ______ ____
ROOT
ATOM      1  C   UNL     1      -9.767  -4.679  22.283  0.00  0.00    +0.000 A 
ATOM      2  C   UNL     1     -11.022  -5.118  21.853  0.00  0.00    +0.000 A 
ATOM      3  C   UNL     1      -9.399  -4.840  23.620  0.00  0.00    +0.000 A 
ATOM      4  C   UNL     1     -11.902  -5.714  22.752  0.00  0.00    +0.000 A 
ATOM      5  C   UNL     1     -10.276  -5.435  24.523  0.00  0.00    +0.000 A 
ATOM      6  C   UNL     1     -11.522  -5.868  24.081  0.00  0.00    +0.000 A 
ENDROOT
BRANCH   6   7
ATOM      7  O   UNL     1     -12.365  -6.449  24.983  0.00  0.00    +0.000 OA
ATOM      8  H   UNL     1     -13.264  -6.117  24.818  0.00  0.00    +0.000 HD
ENDBRANCH   6   7
BRANCH   1   9
ATOM      9  O   UNL     1      -8.833  -4.082  21.474  0.00  0.00    +0.000 OA
BRANCH   9  10
ATOM     10  C   UNL     1      -8.876  -4.460  20.198  0.00  0.00    +0.000 C 
BRANCH  10  11
ATOM     11  C   UNL     1      -8.922  -4.881  18.836  0.00  0.00    +0.000 A 
ATOM     12  C   UNL     1      -9.765  -4.230  17.938  0.00  0.00    +0.000 A 
ATOM     13  C   UNL     1      -9.814  -4.645  16.609  0.00  0.00    +0.000 A 
ATOM     14  C   UNL     1      -9.021  -5.707  16.181  0.00  0.00    +0.000 A 
ATOM     15  C   UNL     1      -8.179  -6.356  17.082  0.00  0.00    +0.000 A 
ATOM     16  C   UNL     1      -8.128  -5.943  18.410  0.00  0.00    +0.000 A 
ENDBRANCH  10  11
ENDBRANCH   9  10
ENDBRANCH   1   9
TORSDOF 4
ENDMDL
MODEL 3
REMARK VINA RESULT:      -5.2      3.394      4.969
REMARK  Name = Monobenzone.pdbqt.pdb
REMARK  4 active torsions:
REMARK  status: ('A' for Active; 'I' for Inactive)
REMARK    1  A    between atoms: C_1  and  O_7
REMARK    2  A    between atoms: C_6  and  O_15
REMARK    3  A    between atoms: O_7  and  C_8
REMARK    4  A    between atoms: C_8  and  C_9
REMARK                            x       y       z     vdW  Elec       q    Type
REMARK                         _______ _______ _______ _____ _____    ______ ____
ROOT
ATOM      1  C   UNL     1      -9.170  -4.092  20.039  0.00  0.00    +0.000 A 
ATOM      2  C   UNL     1      -9.936  -3.489  19.038  0.00  0.00    +0.000 A 
ATOM      3  C   UNL     1      -8.413  -5.226  19.741  0.00  0.00    +0.000 A 
ATOM      4  C   UNL     1      -9.946  -4.015  17.749  0.00  0.00    +0.000 A 
ATOM      5  C   UNL     1      -8.420  -5.757  18.454  0.00  0.00    +0.000 A 
ATOM      6  C   UNL     1      -9.187  -5.146  17.467  0.00  0.00    +0.000 A 
ENDROOT
BRANCH   6   7
ATOM      7  O   UNL     1      -9.178  -5.683  16.213  0.00  0.00    +0.000 OA
ATOM      8  H   UNL     1      -8.330  -6.142  16.084  0.00  0.00    +0.000 HD
ENDBRANCH   6   7
BRANCH   1   9
ATOM      9  O   UNL     1      -9.096  -3.647  21.335  0.00  0.00    +0.000 OA
BRANCH   9  10
ATOM     10  C   UNL     1      -9.765  -4.384  22.218  0.00  0.00    +0.000 C 
BRANCH  10  11
ATOM     11  C   UNL     1     -10.492  -5.162  23.167  0.00  0.00    +0.000 A 
ATOM     12  C   UNL     1      -9.838  -5.691  24.277  0.00  0.00    +0.000 A 
ATOM     13  C   UNL     1     -10.547  -6.456  25.201  0.00  0.00    +0.000 A 
ATOM     14  C   UNL     1     -11.907  -6.690  25.013  0.00  0.00    +0.000 A 
ATOM     15  C   UNL     1     -12.560  -6.159  23.902  0.00  0.00    +0.000 A 
ATOM     16  C   UNL     1     -11.852  -5.395  22.978  0.00  0.00    +0.000 A 
ENDBRANCH  10  11
ENDBRANCH   9  10
ENDBRANCH   1   9
TORSDOF 4
ENDMDL
MODEL 4
REMARK VINA RESULT:      -5.2      3.107      6.410
REMARK  Name = Monobenzone.pdbqt.pdb
REMARK  4 active torsions:
REMARK  status: ('A' for Active; 'I' for Inactive)
REMARK    1  A    between atoms: C_1  and  O_7
REMARK    2  A    between atoms: C_6  and  O_15
REMARK    3  A    between atoms: O_7  and  C_8
REMARK    4  A    between atoms: C_8  and  C_9
REMARK                            x       y       z     vdW  Elec       q    Type
REMARK                         _______ _______ _______ _____ _____    ______ ____
ROOT
ATOM      1  C   UNL     1     -11.135  -3.269  22.788  0.00  0.00    +0.000 A 
ATOM      2  C   UNL     1     -12.447  -3.169  23.258  0.00  0.00    +0.000 A 
ATOM      3  C   UNL     1     -10.390  -2.110  22.567  0.00  0.00    +0.000 A 
ATOM      4  C   UNL     1     -13.010  -1.920  23.507  0.00  0.00    +0.000 A 
ATOM      5  C   UNL     1     -10.949  -0.858  22.813  0.00  0.00    +0.000 A 
ATOM      6  C   UNL     1     -12.256  -0.774  23.282  0.00  0.00    +0.000 A 
ENDROOT
BRANCH   6   7
ATOM      7  O   UNL     1     -12.782   0.463  23.517  0.00  0.00    +0.000 OA
ATOM      8  H   UNL     1     -12.579   1.031  22.755  0.00  0.00    +0.000 HD
ENDBRANCH   6   7
BRANCH   1   9
ATOM      9  O   UNL     1     -10.496  -4.452  22.515  0.00  0.00    +0.000 OA
BRANCH   9  10
ATOM     10  C   UNL     1     -10.085  -4.588  21.256  0.00  0.00    +0.000 C 
BRANCH  10  11
ATOM     11  C   UNL     1      -9.648  -4.750  19.908  0.00  0.00    +0.000 A 
ATOM     12  C   UNL     1      -8.602  -5.623  19.619  0.00  0.00    +0.000 A 
ATOM     13  C   UNL     1      -8.171  -5.777  18.302  0.00  0.00    +0.000 A 
ATOM     14  C   UNL     1      -8.787  -5.059  17.280  0.00  0.00    +0.000 A 
ATOM     15  C   UNL     1      -9.834  -4.187  17.573  0.00  0.00    +0.000 A 
ATOM     16  C   UNL     1     -10.265  -4.031  18.887  0.00  0.00    +0.000 A 
ENDBRANCH  10  11
ENDBRANCH   9  10
ENDBRANCH   1   9
TORSDOF 4
ENDMDL
MODEL 5
REMARK VINA RESULT:      -5.1     15.479     17.178
REMARK  Name = Monobenzone.pdbqt.pdb
REMARK  4 active torsions:
REMARK  status: ('A' for Active; 'I' for Inactive)
REMARK    1  A    between atoms: C_1  and  O_7
REMARK    2  A    between atoms: C_6  and  O_15
REMARK    3  A    between atoms: O_7  and  C_8
REMARK    4  A    between atoms: C_8  and  C_9
REMARK                            x       y       z     vdW  Elec       q    Type
REMARK                         _______ _______ _______ _____ _____    ______ ____
ROOT
ATOM      1  C   UNL     1       3.614 -14.542  12.740  0.00  0.00    +0.000 A 
ATOM      2  C   UNL     1       2.815 -15.626  12.368  0.00  0.00    +0.000 A 
ATOM      3  C   UNL     1       3.760 -14.222  14.090  0.00  0.00    +0.000 A 
ATOM      4  C   UNL     1       2.168 -16.386  13.339  0.00  0.00    +0.000 A 
ATOM      5  C   UNL     1       3.115 -14.978  15.065  0.00  0.00    +0.000 A 
ATOM      6  C   UNL     1       2.323 -16.055  14.681  0.00  0.00    +0.000 A 
ENDROOT
BRANCH   6   7
ATOM      7  O   UNL     1       1.701 -16.782  15.653  0.00  0.00    +0.000 OA
ATOM      8  H   UNL     1       1.042 -17.359  15.229  0.00  0.00    +0.000 HD
ENDBRANCH   6   7
BRANCH   1   9
ATOM      9  O   UNL     1       4.290 -13.737  11.857  0.00  0.00    +0.000 OA
BRANCH   9  10
ATOM     10  C   UNL     1       3.987 -12.443  11.936  0.00  0.00    +0.000 C 
BRANCH  10  11
ATOM     11  C   UNL     1       3.678 -11.053  12.022  0.00  0.00    +0.000 A 
ATOM     12  C   UNL     1       4.506 -10.203  12.750  0.00  0.00    +0.000 A 
ATOM     13  C   UNL     1       4.201  -8.846  12.839  0.00  0.00    +0.000 A 
ATOM     14  C   UNL     1       3.070  -8.344  12.200  0.00  0.00    +0.000 A 
ATOM     15  C   UNL     1       2.243  -9.197  11.471  0.00  0.00    +0.000 A 
ATOM     16  C   UNL     1       2.547 -10.553  11.382  0.00  0.00    +0.000 A 
ENDBRANCH  10  11
ENDBRANCH   9  10
ENDBRANCH   1   9
TORSDOF 4
ENDMDL
MODEL 6
REMARK VINA RESULT:      -4.9      3.640      5.374
REMARK  Name = Monobenzone.pdbqt.pdb
REMARK  4 active torsions:
REMARK  status: ('A' for Active; 'I' for Inactive)
REMARK    1  A    between atoms: C_1  and  O_7
REMARK    2  A    between atoms: C_6  and  O_15
REMARK    3  A    between atoms: O_7  and  C_8
REMARK    4  A    between atoms: C_8  and  C_9
REMARK                            x       y       z     vdW  Elec       q    Type
REMARK                         _______ _______ _______ _____ _____    ______ ____
ROOT
ATOM      1  C   UNL     1      -9.291  -3.543  20.087  0.00  0.00    +0.000 A 
ATOM      2  C   UNL     1      -9.313  -2.184  20.411  0.00  0.00    +0.000 A 
ATOM      3  C   UNL     1      -9.848  -3.975  18.882  0.00  0.00    +0.000 A 
ATOM      4  C   UNL     1      -9.885  -1.264  19.538  0.00  0.00    +0.000 A 
ATOM      5  C   UNL     1     -10.423  -3.059  18.006  0.00  0.00    +0.000 A 
ATOM      6  C   UNL     1     -10.437  -1.709  18.341  0.00  0.00    +0.000 A 
ENDROOT
BRANCH   6   7
ATOM      7  O   UNL     1     -11.004  -0.829  17.466  0.00  0.00    +0.000 OA
ATOM      8  H   UNL     1     -10.971   0.059  17.862  0.00  0.00    +0.000 HD
ENDBRANCH   6   7
BRANCH   1   9
ATOM      9  O   UNL     1      -8.750  -4.523  20.881  0.00  0.00    +0.000 OA
BRANCH   9  10
ATOM     10  C   UNL     1      -9.543  -4.949  21.862  0.00  0.00    +0.000 C 
BRANCH  10  11
ATOM     11  C   UNL     1     -10.387  -5.394  22.922  0.00  0.00    +0.000 A 
ATOM     12  C   UNL     1      -9.831  -5.735  24.153  0.00  0.00    +0.000 A 
ATOM     13  C   UNL     1     -10.656  -6.175  25.187  0.00  0.00    +0.000 A 
ATOM     14  C   UNL     1     -12.030  -6.273  24.988  0.00  0.00    +0.000 A 
ATOM     15  C   UNL     1     -12.583  -5.930  23.755  0.00  0.00    +0.000 A 
ATOM     16  C   UNL     1     -11.761  -5.491  22.721  0.00  0.00    +0.000 A 
ENDBRANCH  10  11
ENDBRANCH   9  10
ENDBRANCH   1   9
TORSDOF 4
ENDMDL
MODEL 7
REMARK VINA RESULT:      -4.8      3.004      6.551
REMARK  Name = Monobenzone.pdbqt.pdb
REMARK  4 active torsions:
REMARK  status: ('A' for Active; 'I' for Inactive)
REMARK    1  A    between atoms: C_1  and  O_7
REMARK    2  A    between atoms: C_6  and  O_15
REMARK    3  A    between atoms: O_7  and  C_8
REMARK    4  A    between atoms: C_8  and  C_9
REMARK                            x       y       z     vdW  Elec       q    Type
REMARK                         _______ _______ _______ _____ _____    ______ ____
ROOT
ATOM      1  C   UNL     1      -6.868  -0.173  22.497  0.00  0.00    +0.000 A 
ATOM      2  C   UNL     1      -6.288   1.076  22.259  0.00  0.00    +0.000 A 
ATOM      3  C   UNL     1      -6.052  -1.278  22.745  0.00  0.00    +0.000 A 
ATOM      4  C   UNL     1      -4.903   1.220  22.270  0.00  0.00    +0.000 A 
ATOM      5  C   UNL     1      -4.666  -1.139  22.756  0.00  0.00    +0.000 A 
ATOM      6  C   UNL     1      -4.103   0.110  22.518  0.00  0.00    +0.000 A 
ENDROOT
BRANCH   6   7
ATOM      7  O   UNL     1      -2.743   0.222  22.535  0.00  0.00    +0.000 OA
ATOM      8  H   UNL     1      -2.363  -0.619  22.227  0.00  0.00    +0.000 HD
ENDBRANCH   6   7
BRANCH   1   9
ATOM      9  O   UNL     1      -8.219  -0.413  22.507  0.00  0.00    +0.000 OA
BRANCH   9  10
ATOM     10  C   UNL     1      -8.642  -1.266  21.578  0.00  0.00    +0.000 C 
BRANCH  10  11
ATOM     11  C   UNL     1      -9.081  -2.187  20.580  0.00  0.00    +0.000 A 
ATOM     12  C   UNL     1      -8.640  -3.508  20.615  0.00  0.00    +0.000 A 
ATOM     13  C   UNL     1      -9.065  -4.406  19.637  0.00  0.00    +0.000 A 
ATOM     14  C   UNL     1      -9.927  -3.981  18.630  0.00  0.00    +0.000 A 
ATOM     15  C   UNL     1     -10.367  -2.660  18.598  0.00  0.00    +0.000 A 
ATOM     16  C   UNL     1      -9.944  -1.761  19.574  0.00  0.00    +0.000 A 
ENDBRANCH  10  11
ENDBRANCH   9  10
ENDBRANCH   1   9
TORSDOF 4
ENDMDL
MODEL 8
REMARK VINA RESULT:      -4.8     14.301     15.517
REMARK  Name = Monobenzone.pdbqt.pdb
REMARK  4 active torsions:
REMARK  status: ('A' for Active; 'I' for Inactive)
REMARK    1  A    between atoms: C_1  and  O_7
REMARK    2  A    between atoms: C_6  and  O_15
REMARK    3  A    between atoms: O_7  and  C_8
REMARK    4  A    between atoms: C_8  and  C_9
REMARK                            x       y       z     vdW  Elec       q    Type
REMARK                         _______ _______ _______ _____ _____    ______ ____
ROOT
ATOM      1  C   UNL     1       5.243  -8.704  12.328  0.00  0.00    +0.000 A 
ATOM      2  C   UNL     1       5.411 -10.091  12.284  0.00  0.00    +0.000 A 
ATOM      3  C   UNL     1       3.999  -8.148  12.027  0.00  0.00    +0.000 A 
ATOM      4  C   UNL     1       4.342 -10.916  11.944  0.00  0.00    +0.000 A 
ATOM      5  C   UNL     1       2.927  -8.969  11.685  0.00  0.00    +0.000 A 
ATOM      6  C   UNL     1       3.108 -10.348  11.647  0.00  0.00    +0.000 A 
ENDROOT
BRANCH   6   7
ATOM      7  O   UNL     1       2.044 -11.132  11.310  0.00  0.00    +0.000 OA
ATOM      8  H   UNL     1       1.239 -10.730  11.679  0.00  0.00    +0.000 HD
ENDBRANCH   6   7
BRANCH   1   9
ATOM      9  O   UNL     1       6.234  -7.812  12.652  0.00  0.00    +0.000 OA
BRANCH   9  10
ATOM     10  C   UNL     1       5.888  -6.893  13.550  0.00  0.00    +0.000 C 
BRANCH  10  11
ATOM     11  C   UNL     1       5.513  -5.920  14.524  0.00  0.00    +0.000 A 
ATOM     12  C   UNL     1       5.664  -6.203  15.879  0.00  0.00    +0.000 A 
ATOM     13  C   UNL     1       5.293  -5.254  16.830  0.00  0.00    +0.000 A 
ATOM     14  C   UNL     1       4.773  -4.027  16.424  0.00  0.00    +0.000 A 
ATOM     15  C   UNL     1       4.624  -3.747  15.067  0.00  0.00    +0.000 A 
ATOM     16  C   UNL     1       4.994  -4.694  14.115  0.00  0.00    +0.000 A 
ENDBRANCH  10  11
ENDBRANCH   9  10
ENDBRANCH   1   9
TORSDOF 4
ENDMDL
MODEL 9
REMARK VINA RESULT:      -4.8      3.876      6.920
REMARK  Name = Monobenzone.pdbqt.pdb
REMARK  4 active torsions:
REMARK  status: ('A' for Active; 'I' for Inactive)
REMARK    1  A    between atoms: C_1  and  O_7
REMARK    2  A    between atoms: C_6  and  O_15
REMARK    3  A    between atoms: O_7  and  C_8
REMARK    4  A    between atoms: C_8  and  C_9
REMARK                            x       y       z     vdW  Elec       q    Type
REMARK                         _______ _______ _______ _____ _____    ______ ____
ROOT
ATOM      1  C   UNL     1      -5.017   0.422  22.517  0.00  0.00    +0.000 A 
ATOM      2  C   UNL     1      -3.944  -0.472  22.463  0.00  0.00    +0.000 A 
ATOM      3  C   UNL     1      -4.875   1.705  21.987  0.00  0.00    +0.000 A 
ATOM      4  C   UNL     1      -2.739  -0.088  21.882  0.00  0.00    +0.000 A 
ATOM      5  C   UNL     1      -3.671   2.095  21.405  0.00  0.00    +0.000 A 
ATOM      6  C   UNL     1      -2.612   1.194  21.357  0.00  0.00    +0.000 A 
ENDROOT
BRANCH   6   7
ATOM      7  O   UNL     1      -1.443   1.598  20.782  0.00  0.00    +0.000 OA
ATOM      8  H   UNL     1      -1.422   1.268  19.867  0.00  0.00    +0.000 HD
ENDBRANCH   6   7
BRANCH   1   9
ATOM      9  O   UNL     1      -6.240   0.134  23.068  0.00  0.00    +0.000 OA
BRANCH   9  10
ATOM     10  C   UNL     1      -6.953  -0.774  22.405  0.00  0.00    +0.000 C 
BRANCH  10  11
ATOM     11  C   UNL     1      -7.728  -1.736  21.693  0.00  0.00    +0.000 A 
ATOM     12  C   UNL     1      -8.743  -1.312  20.838  0.00  0.00    +0.000 A 
ATOM     13  C   UNL     1      -9.504  -2.252  20.146  0.00  0.00    +0.000 A 
ATOM     14  C   UNL     1      -9.248  -3.611  20.309  0.00  0.00    +0.000 A 
ATOM     15  C   UNL     1      -8.231  -4.032  21.164  0.00  0.00    +0.000 A 
ATOM     16  C   UNL     1      -7.470  -3.094  21.857  0.00  0.00    +0.000 A 
ENDBRANCH  10  11
ENDBRANCH   9  10
ENDBRANCH   1   9
TORSDOF 4
ENDMDL
