MODEL 1
REMARK VINA RESULT:      -6.1      0.000      0.000
REMARK  Name = 
REMARK  5 active torsions:
REMARK  status: ('A' for Active; 'I' for Inactive)
REMARK    1  A    between atoms: O_4  and  C_15
REMARK    2  A    between atoms: C_6  and  C_13
REMARK    3  A    between atoms: C_7  and  C_12
REMARK    4  A    between atoms: C_8  and  C_14
REMARK    5  A    between atoms: C_12  and  C_15
REMARK                            x       y       z     vdW  Elec       q    Type
REMARK                         _______ _______ _______ _____ _____    ______ ____
ROOT
ATOM      1  C   UNL     1      -9.619  -2.728  19.607  0.00  0.00    +0.000 A 
ATOM      2  C   UNL     1      -8.660  -0.988  21.042  0.00  0.00    +0.000 A 
ATOM      3  C   UNL     1      -8.892  -3.709  20.316  0.00  0.00    +0.000 A 
ATOM      4  C   UNL     1      -9.491  -1.376  19.982  0.00  0.00    +0.000 A 
ATOM      5  C   UNL     1      -7.937  -1.969  21.727  0.00  0.00    +0.000 A 
ATOM      6  C   UNL     1      -8.054  -3.313  21.369  0.00  0.00    +0.000 A 
ATOM      7  C   UNL     1      -8.982  -5.168  19.959  0.00  0.00    +0.000 C 
ENDROOT
BRANCH   1  11
ATOM      8  F   UNL     1     -11.078  -2.006  17.848  0.00  0.00    +0.000 F 
ATOM      9  F   UNL     1      -9.901  -3.786  17.460  0.00  0.00    +0.000 F 
ATOM     10  F   UNL     1     -11.578  -3.879  18.836  0.00  0.00    +0.000 F 
ATOM     11  C   UNL     1     -10.530  -3.097  18.455  0.00  0.00    +0.000 C 
ENDBRANCH   1  11
BRANCH   2  12
ATOM     12  C   UNL     1      -8.522   0.468  21.417  0.00  0.00    +0.000 C 
BRANCH  12  14
ATOM     13  O   UNL     1     -10.749   1.033  22.297  0.00  0.00    +0.000 OA
ATOM     14  C   UNL     1      -9.836   1.204  21.506  0.00  0.00    +0.000 C 
BRANCH  14  15
ATOM     15  O   UNL     1      -9.931   2.173  20.569  0.00  0.00    +0.000 OA
ATOM     16  H   UNL     1      -9.014   2.517  20.498  0.00  0.00    +0.000 HD
ENDBRANCH  14  15
ENDBRANCH  12  14
ENDBRANCH   2  12
TORSDOF 4
ENDMDL
MODEL 2
REMARK VINA RESULT:      -5.8      3.595      4.963
REMARK  Name = 
REMARK  5 active torsions:
REMARK  status: ('A' for Active; 'I' for Inactive)
REMARK    1  A    between atoms: O_4  and  C_15
REMARK    2  A    between atoms: C_6  and  C_13
REMARK    3  A    between atoms: C_7  and  C_12
REMARK    4  A    between atoms: C_8  and  C_14
REMARK    5  A    between atoms: C_12  and  C_15
REMARK                            x       y       z     vdW  Elec       q    Type
REMARK                         _______ _______ _______ _____ _____    ______ ____
ROOT
ATOM      1  C   UNL     1      -8.806  -1.041  20.783  0.00  0.00    +0.000 A 
ATOM      2  C   UNL     1      -8.881  -3.478  20.537  0.00  0.00    +0.000 A 
ATOM      3  C   UNL     1      -7.742  -1.170  21.702  0.00  0.00    +0.000 A 
ATOM      4  C   UNL     1      -9.362  -2.203  20.212  0.00  0.00    +0.000 A 
ATOM      5  C   UNL     1      -7.835  -3.591  21.457  0.00  0.00    +0.000 A 
ATOM      6  C   UNL     1      -7.272  -2.450  22.031  0.00  0.00    +0.000 A 
ATOM      7  C   UNL     1      -7.111   0.033  22.350  0.00  0.00    +0.000 C 
ENDROOT
BRANCH   1  11
ATOM      8  F   UNL     1     -10.264   0.788  21.304  0.00  0.00    +0.000 F 
ATOM      9  F   UNL     1      -8.408   1.286  20.298  0.00  0.00    +0.000 F 
ATOM     10  F   UNL     1     -10.003   0.306  19.198  0.00  0.00    +0.000 F 
ATOM     11  C   UNL     1      -9.361   0.315  20.400  0.00  0.00    +0.000 C 
ENDBRANCH   1  11
BRANCH   2  12
ATOM     12  C   UNL     1      -9.503  -4.712  19.928  0.00  0.00    +0.000 C 
BRANCH  12  14
ATOM     13  O   UNL     1      -7.780  -6.208  19.008  0.00  0.00    +0.000 OA
ATOM     14  C   UNL     1      -8.652  -5.367  18.867  0.00  0.00    +0.000 C 
BRANCH  14  15
ATOM     15  O   UNL     1      -8.967  -4.925  17.630  0.00  0.00    +0.000 OA
ATOM     16  H   UNL     1      -8.108  -4.613  17.270  0.00  0.00    +0.000 HD
ENDBRANCH  14  15
ENDBRANCH  12  14
ENDBRANCH   2  12
TORSDOF 4
ENDMDL
MODEL 3
REMARK VINA RESULT:      -5.8      3.535      4.311
REMARK  Name = 
REMARK  5 active torsions:
REMARK  status: ('A' for Active; 'I' for Inactive)
REMARK    1  A    between atoms: O_4  and  C_15
REMARK    2  A    between atoms: C_6  and  C_13
REMARK    3  A    between atoms: C_7  and  C_12
REMARK    4  A    between atoms: C_8  and  C_14
REMARK    5  A    between atoms: C_12  and  C_15
REMARK                            x       y       z     vdW  Elec       q    Type
REMARK                         _______ _______ _______ _____ _____    ______ ____
ROOT
ATOM      1  C   UNL     1      -8.855  -4.706  19.057  0.00  0.00    +0.000 A 
ATOM      2  C   UNL     1      -9.133  -3.336  21.069  0.00  0.00    +0.000 A 
ATOM      3  C   UNL     1      -9.825  -3.924  18.394  0.00  0.00    +0.000 A 
ATOM      4  C   UNL     1      -8.523  -4.399  20.392  0.00  0.00    +0.000 A 
ATOM      5  C   UNL     1     -10.100  -2.576  20.404  0.00  0.00    +0.000 A 
ATOM      6  C   UNL     1     -10.440  -2.866  19.081  0.00  0.00    +0.000 A 
ATOM      7  C   UNL     1     -10.226  -4.206  16.971  0.00  0.00    +0.000 C 
ENDROOT
BRANCH   1  11
ATOM      8  F   UNL     1      -7.579  -5.504  17.192  0.00  0.00    +0.000 F 
ATOM      9  F   UNL     1      -7.172  -6.430  19.111  0.00  0.00    +0.000 F 
ATOM     10  F   UNL     1      -9.018  -6.884  18.063  0.00  0.00    +0.000 F 
ATOM     11  C   UNL     1      -8.166  -5.865  18.368  0.00  0.00    +0.000 C 
ENDBRANCH   1  11
BRANCH   2  12
ATOM     12  C   UNL     1      -8.777  -3.034  22.506  0.00  0.00    +0.000 C 
BRANCH  12  14
ATOM     13  O   UNL     1      -7.602  -4.726  23.849  0.00  0.00    +0.000 OA
ATOM     14  C   UNL     1      -8.622  -4.262  23.369  0.00  0.00    +0.000 C 
BRANCH  14  15
ATOM     15  O   UNL     1      -9.811  -4.856  23.611  0.00  0.00    +0.000 OA
ATOM     16  H   UNL     1      -9.684  -5.279  24.488  0.00  0.00    +0.000 HD
ENDBRANCH  14  15
ENDBRANCH  12  14
ENDBRANCH   2  12
TORSDOF 4
ENDMDL
MODEL 4
REMARK VINA RESULT:      -5.6     17.189     18.656
REMARK  Name = 
REMARK  5 active torsions:
REMARK  status: ('A' for Active; 'I' for Inactive)
REMARK    1  A    between atoms: O_4  and  C_15
REMARK    2  A    between atoms: C_6  and  C_13
REMARK    3  A    between atoms: C_7  and  C_12
REMARK    4  A    between atoms: C_8  and  C_14
REMARK    5  A    between atoms: C_12  and  C_15
REMARK                            x       y       z     vdW  Elec       q    Type
REMARK                         _______ _______ _______ _____ _____    ______ ____
ROOT
ATOM      1  C   UNL     1       3.687  -9.817  11.877  0.00  0.00    +0.000 A 
ATOM      2  C   UNL     1       4.944 -11.910  12.089  0.00  0.00    +0.000 A 
ATOM      3  C   UNL     1       4.837  -9.092  12.255  0.00  0.00    +0.000 A 
ATOM      4  C   UNL     1       3.758 -11.223  11.800  0.00  0.00    +0.000 A 
ATOM      5  C   UNL     1       6.072 -11.179  12.474  0.00  0.00    +0.000 A 
ATOM      6  C   UNL     1       6.019  -9.787  12.553  0.00  0.00    +0.000 A 
ATOM      7  C   UNL     1       4.822  -7.590  12.361  0.00  0.00    +0.000 C 
ENDROOT
BRANCH   1  11
ATOM      8  F   UNL     1       1.334  -9.987  11.456  0.00  0.00    +0.000 F 
ATOM      9  F   UNL     1       2.007  -8.202  12.489  0.00  0.00    +0.000 F 
ATOM     10  F   UNL     1       2.419  -8.444  10.372  0.00  0.00    +0.000 F 
ATOM     11  C   UNL     1       2.382  -9.120  11.553  0.00  0.00    +0.000 C 
ENDBRANCH   1  11
BRANCH   2  12
ATOM     12  C   UNL     1       4.996 -13.418  12.019  0.00  0.00    +0.000 C 
BRANCH  12  14
ATOM     13  O   UNL     1       3.157 -14.179  13.464  0.00  0.00    +0.000 OA
ATOM     14  C   UNL     1       3.693 -14.092  12.372  0.00  0.00    +0.000 C 
BRANCH  14  15
ATOM     15  O   UNL     1       3.095 -14.626  11.285  0.00  0.00    +0.000 OA
ATOM     16  H   UNL     1       2.183 -14.819  11.593  0.00  0.00    +0.000 HD
ENDBRANCH  14  15
ENDBRANCH  12  14
ENDBRANCH   2  12
TORSDOF 4
ENDMDL
MODEL 5
REMARK VINA RESULT:      -5.5      3.164      4.789
REMARK  Name = 
REMARK  5 active torsions:
REMARK  status: ('A' for Active; 'I' for Inactive)
REMARK    1  A    between atoms: O_4  and  C_15
REMARK    2  A    between atoms: C_6  and  C_13
REMARK    3  A    between atoms: C_7  and  C_12
REMARK    4  A    between atoms: C_8  and  C_14
REMARK    5  A    between atoms: C_12  and  C_15
REMARK                            x       y       z     vdW  Elec       q    Type
REMARK                         _______ _______ _______ _____ _____    ______ ____
ROOT
ATOM      1  C   UNL     1      -8.629  -0.982  20.972  0.00  0.00    +0.000 A 
ATOM      2  C   UNL     1      -8.493  -3.429  21.035  0.00  0.00    +0.000 A 
ATOM      3  C   UNL     1      -7.527  -0.902  21.851  0.00  0.00    +0.000 A 
ATOM      4  C   UNL     1      -9.098  -2.251  20.576  0.00  0.00    +0.000 A 
ATOM      5  C   UNL     1      -7.410  -3.334  21.914  0.00  0.00    +0.000 A 
ATOM      6  C   UNL     1      -6.932  -2.085  22.314  0.00  0.00    +0.000 A 
ATOM      7  C   UNL     1      -6.984   0.423  22.314  0.00  0.00    +0.000 C 
ENDROOT
BRANCH   1  11
ATOM      8  F   UNL     1      -9.951   0.050  19.261  0.00  0.00    +0.000 F 
ATOM      9  F   UNL     1     -10.272   0.752  21.288  0.00  0.00    +0.000 F 
ATOM     10  F   UNL     1      -8.454   1.294  20.232  0.00  0.00    +0.000 F 
ATOM     11  C   UNL     1      -9.316   0.261  20.448  0.00  0.00    +0.000 C 
ENDBRANCH   1  11
BRANCH   2  12
ATOM     12  C   UNL     1      -9.022  -4.779  20.613  0.00  0.00    +0.000 C 
BRANCH  12  14
ATOM     13  O   UNL     1     -11.472  -4.762  20.840  0.00  0.00    +0.000 OA
ATOM     14  C   UNL     1     -10.366  -5.122  21.208  0.00  0.00    +0.000 C 
BRANCH  14  15
ATOM     15  O   UNL     1     -10.248  -5.953  22.266  0.00  0.00    +0.000 OA
ATOM     16  H   UNL     1      -9.904  -6.784  21.872  0.00  0.00    +0.000 HD
ENDBRANCH  14  15
ENDBRANCH  12  14
ENDBRANCH   2  12
TORSDOF 4
ENDMDL
MODEL 6
REMARK VINA RESULT:      -5.3      4.287      5.365
REMARK  Name = 
REMARK  5 active torsions:
REMARK  status: ('A' for Active; 'I' for Inactive)
REMARK    1  A    between atoms: O_4  and  C_15
REMARK    2  A    between atoms: C_6  and  C_13
REMARK    3  A    between atoms: C_7  and  C_12
REMARK    4  A    between atoms: C_8  and  C_14
REMARK    5  A    between atoms: C_12  and  C_15
REMARK                            x       y       z     vdW  Elec       q    Type
REMARK                         _______ _______ _______ _____ _____    ______ ____
ROOT
ATOM      1  C   UNL     1     -10.038  -3.927  21.143  0.00  0.00    +0.000 A 
ATOM      2  C   UNL     1     -11.957  -4.137  22.652  0.00  0.00    +0.000 A 
ATOM      3  C   UNL     1     -10.024  -2.532  21.360  0.00  0.00    +0.000 A 
ATOM      4  C   UNL     1     -11.010  -4.712  21.795  0.00  0.00    +0.000 A 
ATOM      5  C   UNL     1     -11.939  -2.753  22.848  0.00  0.00    +0.000 A 
ATOM      6  C   UNL     1     -10.981  -1.961  22.211  0.00  0.00    +0.000 A 
ATOM      7  C   UNL     1      -9.015  -1.641  20.687  0.00  0.00    +0.000 C 
ENDROOT
BRANCH   1  11
ATOM      8  F   UNL     1      -9.277  -5.928  20.065  0.00  0.00    +0.000 F 
ATOM      9  F   UNL     1      -9.015  -4.076  18.966  0.00  0.00    +0.000 F 
ATOM     10  F   UNL     1      -7.753  -4.501  20.681  0.00  0.00    +0.000 F 
ATOM     11  C   UNL     1      -9.034  -4.596  20.226  0.00  0.00    +0.000 C 
ENDBRANCH   1  11
BRANCH   2  12
ATOM     12  C   UNL     1     -13.002  -4.993  23.327  0.00  0.00    +0.000 C 
BRANCH  12  14
ATOM     13  O   UNL     1     -11.623  -6.079  25.050  0.00  0.00    +0.000 OA
ATOM     14  C   UNL     1     -12.431  -6.130  24.139  0.00  0.00    +0.000 C 
BRANCH  14  15
ATOM     15  O   UNL     1     -12.942  -7.321  23.759  0.00  0.00    +0.000 OA
ATOM     16  H   UNL     1     -12.173  -7.929  23.808  0.00  0.00    +0.000 HD
ENDBRANCH  14  15
ENDBRANCH  12  14
ENDBRANCH   2  12
TORSDOF 4
ENDMDL
MODEL 7
REMARK VINA RESULT:      -5.0     16.761     17.675
REMARK  Name = 
REMARK  5 active torsions:
REMARK  status: ('A' for Active; 'I' for Inactive)
REMARK    1  A    between atoms: O_4  and  C_15
REMARK    2  A    between atoms: C_6  and  C_13
REMARK    3  A    between atoms: C_7  and  C_12
REMARK    4  A    between atoms: C_8  and  C_14
REMARK    5  A    between atoms: C_12  and  C_15
REMARK                            x       y       z     vdW  Elec       q    Type
REMARK                         _______ _______ _______ _____ _____    ______ ____
ROOT
ATOM      1  C   UNL     1       4.121  -8.953  12.034  0.00  0.00    +0.000 A 
ATOM      2  C   UNL     1       5.357  -7.003  12.856  0.00  0.00    +0.000 A 
ATOM      3  C   UNL     1       5.301  -9.725  12.103  0.00  0.00    +0.000 A 
ATOM      4  C   UNL     1       4.168  -7.596  12.412  0.00  0.00    +0.000 A 
ATOM      5  C   UNL     1       6.520  -7.777  12.909  0.00  0.00    +0.000 A 
ATOM      6  C   UNL     1       6.491  -9.123  12.539  0.00  0.00    +0.000 A 
ATOM      7  C   UNL     1       5.316 -11.177  11.708  0.00  0.00    +0.000 C 
ENDROOT
BRANCH   1  11
ATOM      8  F   UNL     1       1.731  -8.810  11.942  0.00  0.00    +0.000 F 
ATOM      9  F   UNL     1       2.718  -9.655  10.205  0.00  0.00    +0.000 F 
ATOM     10  F   UNL     1       2.595 -10.805  12.042  0.00  0.00    +0.000 F 
ATOM     11  C   UNL     1       2.812  -9.548  11.561  0.00  0.00    +0.000 C 
ENDBRANCH   1  11
BRANCH   2  12
ATOM     12  C   UNL     1       5.391  -5.542  13.239  0.00  0.00    +0.000 C 
BRANCH  12  14
ATOM     13  O   UNL     1       7.468  -4.343  12.692  0.00  0.00    +0.000 OA
ATOM     14  C   UNL     1       6.341  -4.714  12.410  0.00  0.00    +0.000 C 
BRANCH  14  15
ATOM     15  O   UNL     1       5.810  -4.396  11.209  0.00  0.00    +0.000 OA
ATOM     16  H   UNL     1       5.940  -5.210  10.675  0.00  0.00    +0.000 HD
ENDBRANCH  14  15
ENDBRANCH  12  14
ENDBRANCH   2  12
TORSDOF 4
ENDMDL
MODEL 8
REMARK VINA RESULT:      -5.0      3.304      4.963
REMARK  Name = 
REMARK  5 active torsions:
REMARK  status: ('A' for Active; 'I' for Inactive)
REMARK    1  A    between atoms: O_4  and  C_15
REMARK    2  A    between atoms: C_6  and  C_13
REMARK    3  A    between atoms: C_7  and  C_12
REMARK    4  A    between atoms: C_8  and  C_14
REMARK    5  A    between atoms: C_12  and  C_15
REMARK                            x       y       z     vdW  Elec       q    Type
REMARK                         _______ _______ _______ _____ _____    ______ ____
ROOT
ATOM      1  C   UNL     1      -8.366   0.085  21.168  0.00  0.00    +0.000 A 
ATOM      2  C   UNL     1      -7.552  -2.132  21.824  0.00  0.00    +0.000 A 
ATOM      3  C   UNL     1      -7.353   0.684  21.947  0.00  0.00    +0.000 A 
ATOM      4  C   UNL     1      -8.451  -1.321  21.118  0.00  0.00    +0.000 A 
ATOM      5  C   UNL     1      -6.561  -1.525  22.601  0.00  0.00    +0.000 A 
ATOM      6  C   UNL     1      -6.462  -0.134  22.659  0.00  0.00    +0.000 A 
ATOM      7  C   UNL     1      -7.214   2.179  22.045  0.00  0.00    +0.000 C 
ENDROOT
BRANCH   1  11
ATOM      8  F   UNL     1     -10.311   1.484  21.183  0.00  0.00    +0.000 F 
ATOM      9  F   UNL     1      -8.791   1.955  19.709  0.00  0.00    +0.000 F 
ATOM     10  F   UNL     1     -10.037   0.197  19.449  0.00  0.00    +0.000 F 
ATOM     11  C   UNL     1      -9.360   0.918  20.387  0.00  0.00    +0.000 C 
ENDBRANCH   1  11
BRANCH   2  12
ATOM     12  C   UNL     1      -7.671  -3.637  21.773  0.00  0.00    +0.000 C 
BRANCH  12  14
ATOM     13  O   UNL     1      -9.641  -4.365  23.053  0.00  0.00    +0.000 OA
ATOM     14  C   UNL     1      -8.435  -4.230  22.931  0.00  0.00    +0.000 C 
BRANCH  14  15
ATOM     15  O   UNL     1      -7.607  -4.659  23.908  0.00  0.00    +0.000 OA
ATOM     16  H   UNL     1      -7.498  -5.616  23.716  0.00  0.00    +0.000 HD
ENDBRANCH  14  15
ENDBRANCH  12  14
ENDBRANCH   2  12
TORSDOF 4
ENDMDL
MODEL 9
REMARK VINA RESULT:      -4.9     18.517     19.731
REMARK  Name = 
REMARK  5 active torsions:
REMARK  status: ('A' for Active; 'I' for Inactive)
REMARK    1  A    between atoms: O_4  and  C_15
REMARK    2  A    between atoms: C_6  and  C_13
REMARK    3  A    between atoms: C_7  and  C_12
REMARK    4  A    between atoms: C_8  and  C_14
REMARK    5  A    between atoms: C_12  and  C_15
REMARK                            x       y       z     vdW  Elec       q    Type
REMARK                         _______ _______ _______ _____ _____    ______ ____
ROOT
ATOM      1  C   UNL     1      -1.040  -4.617   1.822  0.00  0.00    +0.000 A 
ATOM      2  C   UNL     1      -2.211  -2.787   2.956  0.00  0.00    +0.000 A 
ATOM      3  C   UNL     1      -2.282  -5.193   1.478  0.00  0.00    +0.000 A 
ATOM      4  C   UNL     1      -1.024  -3.416   2.561  0.00  0.00    +0.000 A 
ATOM      5  C   UNL     1      -3.434  -3.375   2.618  0.00  0.00    +0.000 A 
ATOM      6  C   UNL     1      -3.468  -4.563   1.886  0.00  0.00    +0.000 A 
ATOM      7  C   UNL     1      -2.365  -6.477   0.696  0.00  0.00    +0.000 C 
ENDROOT
BRANCH   1  11
ATOM      8  F   UNL     1       0.384  -5.414   0.068  0.00  0.00    +0.000 F 
ATOM      9  F   UNL     1       1.368  -4.542   1.794  0.00  0.00    +0.000 F 
ATOM     10  F   UNL     1       0.442  -6.499   1.953  0.00  0.00    +0.000 F 
ATOM     11  C   UNL     1       0.270  -5.258   1.418  0.00  0.00    +0.000 C 
ENDBRANCH   1  11
BRANCH   2  12
ATOM     12  C   UNL     1      -2.173  -1.510   3.763  0.00  0.00    +0.000 C 
BRANCH  12  14
ATOM     13  O   UNL     1      -0.187  -1.276   5.195  0.00  0.00    +0.000 OA
ATOM     14  C   UNL     1      -1.348  -1.607   5.022  0.00  0.00    +0.000 C 
BRANCH  14  15
ATOM     15  O   UNL     1      -2.061  -2.118   6.049  0.00  0.00    +0.000 OA
ATOM     16  H   UNL     1      -2.284  -3.025   5.748  0.00  0.00    +0.000 HD
ENDBRANCH  14  15
ENDBRANCH  12  14
ENDBRANCH   2  12
TORSDOF 4
ENDMDL
