MODEL 1
REMARK VINA RESULT:      -6.0      0.000      0.000
REMARK  Name = OTSSP167.pdbqt.pdb
REMARK  7 active torsions:
REMARK  status: ('A' for Active; 'I' for Inactive)
REMARK    1  A    between atoms: C_5  and  N_19
REMARK    2  A    between atoms: C_7  and  C_31
REMARK    3  A    between atoms: C_11  and  C_13
REMARK    4  A    between atoms: C_18  and  O_34
REMARK    5  A    between atoms: N_19  and  C_21
REMARK    6  A    between atoms: C_24  and  C_27
REMARK    7  A    between atoms: C_27  and  N_28
REMARK                            x       y       z     vdW  Elec       q    Type
REMARK                         _______ _______ _______ _____ _____    ______ ____
ROOT
ATOM      1  N   UNL     1      -9.341  -1.373  21.329  0.00  0.00    +0.000 NA
ATOM      2  N   UNL     1     -10.479  -4.801  20.775  0.00  0.00    +0.000 NA
ATOM      3  C   UNL     1      -9.325  -3.279  22.844  0.00  0.00    +0.000 A 
ATOM      4  C   UNL     1      -9.619  -2.675  21.593  0.00  0.00    +0.000 A 
ATOM      5  C   UNL     1      -9.623  -4.648  23.010  0.00  0.00    +0.000 A 
ATOM      6  C   UNL     1     -10.193  -3.500  20.603  0.00  0.00    +0.000 A 
ATOM      7  C   UNL     1     -10.188  -5.350  21.969  0.00  0.00    +0.000 A 
ATOM      8  C   UNL     1     -10.472  -2.924  19.378  0.00  0.00    +0.000 A 
ATOM      9  C   UNL     1      -9.634  -0.832  20.122  0.00  0.00    +0.000 A 
ATOM     10  C   UNL     1     -10.203  -1.589  19.116  0.00  0.00    +0.000 A 
ENDROOT
BRANCH   9  13
ATOM     11 CL   UNL     1      -7.490   3.433  22.099  0.00  0.00    +0.000 Cl
ATOM     12 CL   UNL     1      -9.996   3.458  17.261  0.00  0.00    +0.000 Cl
ATOM     13  C   UNL     1      -9.328   0.592  19.962  0.00  0.00    +0.000 A 
ATOM     14  C   UNL     1      -9.735   1.311  18.832  0.00  0.00    +0.000 A 
ATOM     15  C   UNL     1      -8.624   1.291  20.951  0.00  0.00    +0.000 A 
ATOM     16  C   UNL     1      -8.340   2.648  20.824  0.00  0.00    +0.000 A 
ATOM     17  C   UNL     1      -9.451   2.670  18.691  0.00  0.00    +0.000 A 
ATOM     18  C   UNL     1      -8.751   3.347  19.690  0.00  0.00    +0.000 A 
BRANCH  18  19
ATOM     19  O   UNL     1      -8.479   4.682  19.549  0.00  0.00    +0.000 OA
ATOM     20  H   UNL     1      -7.671   4.775  19.010  0.00  0.00    +0.000 HD
ENDBRANCH  18  19
ENDBRANCH   9  13
BRANCH   5  21
ATOM     21  C   UNL     1      -9.323  -5.386  24.235  0.00  0.00    +0.000 C 
ATOM     22  O   UNL     1      -8.221  -5.469  24.751  0.00  0.00    +0.000 OA
ATOM     23  C   UNL     1     -10.335  -6.188  24.997  0.00  0.00    +0.000 C 
ENDBRANCH   5  21
BRANCH   3  24
ATOM     24  N   UNL     1      -8.840  -2.542  23.972  0.00  0.00    +0.000 N 
ATOM     25  H   UNL     1      -9.308  -2.762  24.856  0.00  0.00    +0.000 HD
BRANCH  24  26
ATOM     26  C   UNL     1      -7.607  -1.975  24.135  0.00  0.00    +0.000 A 
ATOM     27  C   UNL     1      -7.549  -0.548  24.329  0.00  0.00    +0.000 A 
ATOM     28  C   UNL     1      -6.510   0.418  23.703  0.00  0.00    +0.000 A 
ATOM     29  C   UNL     1      -5.443   0.021  22.817  0.00  0.00    +0.000 A 
ATOM     30  C   UNL     1      -5.514  -1.402  22.601  0.00  0.00    +0.000 A 
ATOM     31  C   UNL     1      -6.554  -2.363  23.227  0.00  0.00    +0.000 A 
BRANCH  29  32
ATOM     32  C   UNL     1      -4.411   0.865  22.350  0.00  0.00    +0.000 C 
BRANCH  32  33
ATOM     33  N   UNL     1      -3.345   1.738  21.888  0.00  0.00    +0.000 NA
ATOM     34  C   UNL     1      -3.959   2.793  21.099  0.00  0.00    +0.000 C 
ATOM     35  C   UNL     1      -2.510   0.962  20.987  0.00  0.00    +0.000 C 
ENDBRANCH  32  33
ENDBRANCH  29  32
ENDBRANCH  24  26
ENDBRANCH   3  24
TORSDOF 7
ENDMDL
MODEL 2
REMARK VINA RESULT:      -5.9      4.118      8.146
REMARK  Name = OTSSP167.pdbqt.pdb
REMARK  7 active torsions:
REMARK  status: ('A' for Active; 'I' for Inactive)
REMARK    1  A    between atoms: C_5  and  N_19
REMARK    2  A    between atoms: C_7  and  C_31
REMARK    3  A    between atoms: C_11  and  C_13
REMARK    4  A    between atoms: C_18  and  O_34
REMARK    5  A    between atoms: N_19  and  C_21
REMARK    6  A    between atoms: C_24  and  C_27
REMARK    7  A    between atoms: C_27  and  N_28
REMARK                            x       y       z     vdW  Elec       q    Type
REMARK                         _______ _______ _______ _____ _____    ______ ____
ROOT
ATOM      1  N   UNL     1      -9.092  -3.624  23.129  0.00  0.00    +0.000 NA
ATOM      2  N   UNL     1      -7.251  -2.214  25.952  0.00  0.00    +0.000 NA
ATOM      3  C   UNL     1      -9.480  -3.878  25.519  0.00  0.00    +0.000 A 
ATOM      4  C   UNL     1      -8.748  -3.366  24.415  0.00  0.00    +0.000 A 
ATOM      5  C   UNL     1      -9.061  -3.526  26.819  0.00  0.00    +0.000 A 
ATOM      6  C   UNL     1      -7.645  -2.536  24.710  0.00  0.00    +0.000 A 
ATOM      7  C   UNL     1      -7.964  -2.710  26.980  0.00  0.00    +0.000 A 
ATOM      8  C   UNL     1      -6.932  -2.023  23.642  0.00  0.00    +0.000 A 
ATOM      9  C   UNL     1      -8.370  -3.116  22.101  0.00  0.00    +0.000 A 
ATOM     10  C   UNL     1      -7.277  -2.302  22.327  0.00  0.00    +0.000 A 
ENDROOT
BRANCH   9  13
ATOM     11 CL   UNL     1      -8.369  -6.643  18.326  0.00  0.00    +0.000 Cl
ATOM     12 CL   UNL     1     -10.912  -1.854  17.781  0.00  0.00    +0.000 Cl
ATOM     13  C   UNL     1      -8.809  -3.493  20.755  0.00  0.00    +0.000 A 
ATOM     14  C   UNL     1      -9.571  -2.630  19.959  0.00  0.00    +0.000 A 
ATOM     15  C   UNL     1      -8.464  -4.737  20.210  0.00  0.00    +0.000 A 
ATOM     16  C   UNL     1      -8.857  -5.105  18.926  0.00  0.00    +0.000 A 
ATOM     17  C   UNL     1      -9.975  -2.990  18.673  0.00  0.00    +0.000 A 
ATOM     18  C   UNL     1      -9.618  -4.233  18.149  0.00  0.00    +0.000 A 
BRANCH  18  19
ATOM     19  O   UNL     1     -10.014  -4.580  16.884  0.00  0.00    +0.000 OA
ATOM     20  H   UNL     1     -10.977  -4.736  16.896  0.00  0.00    +0.000 HD
ENDBRANCH  18  19
ENDBRANCH   9  13
BRANCH   5  21
ATOM     21  C   UNL     1      -9.763  -3.955  28.027  0.00  0.00    +0.000 C 
ATOM     22  O   UNL     1      -9.769  -5.092  28.467  0.00  0.00    +0.000 OA
ATOM     23  C   UNL     1     -10.617  -3.051  28.864  0.00  0.00    +0.000 C 
ENDBRANCH   5  21
BRANCH   3  24
ATOM     24  N   UNL     1     -10.555  -4.813  25.376  0.00  0.00    +0.000 N 
ATOM     25  H   UNL     1     -11.441  -4.398  25.074  0.00  0.00    +0.000 HD
BRANCH  24  26
ATOM     26  C   UNL     1     -10.472  -6.156  25.131  0.00  0.00    +0.000 A 
ATOM     27  C   UNL     1     -11.582  -6.979  25.539  0.00  0.00    +0.000 A 
ATOM     28  C   UNL     1     -11.488  -8.379  26.198  0.00  0.00    +0.000 A 
ATOM     29  C   UNL     1     -10.257  -9.064  26.509  0.00  0.00    +0.000 A 
ATOM     30  C   UNL     1      -9.144  -8.232  26.125  0.00  0.00    +0.000 A 
ATOM     31  C   UNL     1      -9.243  -6.833  25.469  0.00  0.00    +0.000 A 
BRANCH  29  32
ATOM     32  C   UNL     1     -10.155 -10.392  26.981  0.00  0.00    +0.000 C 
BRANCH  32  33
ATOM     33  N   UNL     1     -10.050 -11.763  27.447  0.00  0.00    +0.000 NA
ATOM     34  C   UNL     1     -11.331 -12.124  28.031  0.00  0.00    +0.000 C 
ATOM     35  C   UNL     1      -9.072 -11.781  28.523  0.00  0.00    +0.000 C 
ENDBRANCH  32  33
ENDBRANCH  29  32
ENDBRANCH  24  26
ENDBRANCH   3  24
TORSDOF 7
ENDMDL
MODEL 3
REMARK VINA RESULT:      -5.9     16.555     18.487
REMARK  Name = OTSSP167.pdbqt.pdb
REMARK  7 active torsions:
REMARK  status: ('A' for Active; 'I' for Inactive)
REMARK    1  A    between atoms: C_5  and  N_19
REMARK    2  A    between atoms: C_7  and  C_31
REMARK    3  A    between atoms: C_11  and  C_13
REMARK    4  A    between atoms: C_18  and  O_34
REMARK    5  A    between atoms: N_19  and  C_21
REMARK    6  A    between atoms: C_24  and  C_27
REMARK    7  A    between atoms: C_27  and  N_28
REMARK                            x       y       z     vdW  Elec       q    Type
REMARK                         _______ _______ _______ _____ _____    ______ ____
ROOT
ATOM      1  N   UNL     1     -22.890  -2.549  12.729  0.00  0.00    +0.000 NA
ATOM      2  N   UNL     1     -25.385  -3.613  15.177  0.00  0.00    +0.000 NA
ATOM      3  C   UNL     1     -23.224  -4.730  13.760  0.00  0.00    +0.000 A 
ATOM      4  C   UNL     1     -23.559  -3.361  13.585  0.00  0.00    +0.000 A 
ATOM      5  C   UNL     1     -24.001  -5.499  14.650  0.00  0.00    +0.000 A 
ATOM      6  C   UNL     1     -24.656  -2.872  14.326  0.00  0.00    +0.000 A 
ATOM      7  C   UNL     1     -25.047  -4.907  15.322  0.00  0.00    +0.000 A 
ATOM      8  C   UNL     1     -24.999  -1.543  14.155  0.00  0.00    +0.000 A 
ATOM      9  C   UNL     1     -23.241  -1.248  12.587  0.00  0.00    +0.000 A 
ATOM     10  C   UNL     1     -24.302  -0.711  13.291  0.00  0.00    +0.000 A 
ENDROOT
BRANCH   9  13
ATOM     11 CL   UNL     1     -19.309   2.042  11.947  0.00  0.00    +0.000 Cl
ATOM     12 CL   UNL     1     -22.300   0.290   7.743  0.00  0.00    +0.000 Cl
ATOM     13  C   UNL     1     -22.424  -0.455  11.665  0.00  0.00    +0.000 A 
ATOM     14  C   UNL     1     -22.678  -0.432  10.289  0.00  0.00    +0.000 A 
ATOM     15  C   UNL     1     -21.359   0.323  12.138  0.00  0.00    +0.000 A 
ATOM     16  C   UNL     1     -20.583   1.097  11.278  0.00  0.00    +0.000 A 
ATOM     17  C   UNL     1     -21.903   0.335   9.418  0.00  0.00    +0.000 A 
ATOM     18  C   UNL     1     -20.850   1.106   9.910  0.00  0.00    +0.000 A 
BRANCH  18  19
ATOM     19  O   UNL     1     -20.095   1.860   9.051  0.00  0.00    +0.000 OA
ATOM     20  H   UNL     1     -19.247   1.401   8.904  0.00  0.00    +0.000 HD
ENDBRANCH  18  19
ENDBRANCH   9  13
BRANCH   5  21
ATOM     21  C   UNL     1     -23.778  -6.926  14.875  0.00  0.00    +0.000 C 
ATOM     22  O   UNL     1     -22.739  -7.416  15.284  0.00  0.00    +0.000 OA
ATOM     23  C   UNL     1     -24.795  -7.987  14.583  0.00  0.00    +0.000 C 
ENDBRANCH   5  21
BRANCH   3  24
ATOM     24  N   UNL     1     -22.075  -5.334  13.155  0.00  0.00    +0.000 N 
ATOM     25  H   UNL     1     -21.402  -5.726  13.819  0.00  0.00    +0.000 HD
BRANCH  24  26
ATOM     26  C   UNL     1     -21.969  -5.862  11.898  0.00  0.00    +0.000 A 
ATOM     27  C   UNL     1     -21.095  -5.196  10.966  0.00  0.00    +0.000 A 
ATOM     28  C   UNL     1     -21.381  -4.947   9.462  0.00  0.00    +0.000 A 
ATOM     29  C   UNL     1     -22.586  -5.343   8.775  0.00  0.00    +0.000 A 
ATOM     30  C   UNL     1     -23.474  -5.987   9.710  0.00  0.00    +0.000 A 
ATOM     31  C   UNL     1     -23.184  -6.232  11.212  0.00  0.00    +0.000 A 
BRANCH  29  32
ATOM     32  C   UNL     1     -22.803  -5.246   7.382  0.00  0.00    +0.000 C 
BRANCH  32  33
ATOM     33  N   UNL     1     -23.032  -5.128   5.953  0.00  0.00    +0.000 NA
ATOM     34  C   UNL     1     -21.984  -5.879   5.281  0.00  0.00    +0.000 C 
ATOM     35  C   UNL     1     -22.849  -3.730   5.598  0.00  0.00    +0.000 C 
ENDBRANCH  32  33
ENDBRANCH  29  32
ENDBRANCH  24  26
ENDBRANCH   3  24
TORSDOF 7
ENDMDL
MODEL 4
REMARK VINA RESULT:      -5.8      4.230      5.341
REMARK  Name = OTSSP167.pdbqt.pdb
REMARK  7 active torsions:
REMARK  status: ('A' for Active; 'I' for Inactive)
REMARK    1  A    between atoms: C_5  and  N_19
REMARK    2  A    between atoms: C_7  and  C_31
REMARK    3  A    between atoms: C_11  and  C_13
REMARK    4  A    between atoms: C_18  and  O_34
REMARK    5  A    between atoms: N_19  and  C_21
REMARK    6  A    between atoms: C_24  and  C_27
REMARK    7  A    between atoms: C_27  and  N_28
REMARK                            x       y       z     vdW  Elec       q    Type
REMARK                         _______ _______ _______ _____ _____    ______ ____
ROOT
ATOM      1  N   UNL     1     -12.087  -2.057  22.467  0.00  0.00    +0.000 NA
ATOM      2  N   UNL     1     -11.034  -5.553  22.601  0.00  0.00    +0.000 NA
ATOM      3  C   UNL     1     -10.697  -3.321  20.918  0.00  0.00    +0.000 A 
ATOM      4  C   UNL     1     -11.468  -3.209  22.106  0.00  0.00    +0.000 A 
ATOM      5  C   UNL     1     -10.119  -4.571  20.614  0.00  0.00    +0.000 A 
ATOM      6  C   UNL     1     -11.595  -4.370  22.897  0.00  0.00    +0.000 A 
ATOM      7  C   UNL     1     -10.312  -5.633  21.469  0.00  0.00    +0.000 A 
ATOM      8  C   UNL     1     -12.353  -4.274  24.050  0.00  0.00    +0.000 A 
ATOM      9  C   UNL     1     -12.816  -1.988  23.608  0.00  0.00    +0.000 A 
ATOM     10  C   UNL     1     -12.971  -3.090  24.426  0.00  0.00    +0.000 A 
ENDROOT
BRANCH   9  13
ATOM     11 CL   UNL     1     -17.090   0.861  24.166  0.00  0.00    +0.000 Cl
ATOM     12 CL   UNL     1     -12.115   2.985  24.829  0.00  0.00    +0.000 Cl
ATOM     13  C   UNL     1     -13.406  -0.684  23.919  0.00  0.00    +0.000 A 
ATOM     14  C   UNL     1     -12.614   0.434  24.205  0.00  0.00    +0.000 A 
ATOM     15  C   UNL     1     -14.796  -0.508  23.926  0.00  0.00    +0.000 A 
ATOM     16  C   UNL     1     -15.373   0.729  24.202  0.00  0.00    +0.000 A 
ATOM     17  C   UNL     1     -13.182   1.677  24.489  0.00  0.00    +0.000 A 
ATOM     18  C   UNL     1     -14.568   1.830  24.487  0.00  0.00    +0.000 A 
BRANCH  18  19
ATOM     19  O   UNL     1     -15.120   3.054  24.762  0.00  0.00    +0.000 OA
ATOM     20  H   UNL     1     -14.652   3.436  25.528  0.00  0.00    +0.000 HD
ENDBRANCH  18  19
ENDBRANCH   9  13
BRANCH   5  21
ATOM     21  C   UNL     1      -9.346  -4.818  19.398  0.00  0.00    +0.000 C 
ATOM     22  O   UNL     1      -9.544  -4.280  18.322  0.00  0.00    +0.000 OA
ATOM     23  C   UNL     1      -8.228  -5.811  19.306  0.00  0.00    +0.000 C 
ENDBRANCH   5  21
BRANCH   3  24
ATOM     24  N   UNL     1     -10.396  -2.204  20.075  0.00  0.00    +0.000 N 
ATOM     25  H   UNL     1     -11.212  -1.784  19.620  0.00  0.00    +0.000 HD
BRANCH  24  26
ATOM     26  C   UNL     1      -9.321  -1.362  20.149  0.00  0.00    +0.000 A 
ATOM     27  C   UNL     1      -8.326  -1.639  21.153  0.00  0.00    +0.000 A 
ATOM     28  C   UNL     1      -7.601  -0.589  22.035  0.00  0.00    +0.000 A 
ATOM     29  C   UNL     1      -7.832   0.834  21.982  0.00  0.00    +0.000 A 
ATOM     30  C   UNL     1      -8.846   1.111  20.996  0.00  0.00    +0.000 A 
ATOM     31  C   UNL     1      -9.568   0.059  20.119  0.00  0.00    +0.000 A 
BRANCH  29  32
ATOM     32  C   UNL     1      -7.085   1.810  22.678  0.00  0.00    +0.000 C 
BRANCH  32  33
ATOM     33  N   UNL     1      -6.302   2.804  23.391  0.00  0.00    +0.000 NA
ATOM     34  C   UNL     1      -5.277   2.095  24.140  0.00  0.00    +0.000 C 
ATOM     35  C   UNL     1      -7.181   3.434  24.362  0.00  0.00    +0.000 C 
ENDBRANCH  32  33
ENDBRANCH  29  32
ENDBRANCH  24  26
ENDBRANCH   3  24
TORSDOF 7
ENDMDL
MODEL 5
REMARK VINA RESULT:      -5.8     17.118     20.104
REMARK  Name = OTSSP167.pdbqt.pdb
REMARK  7 active torsions:
REMARK  status: ('A' for Active; 'I' for Inactive)
REMARK    1  A    between atoms: C_5  and  N_19
REMARK    2  A    between atoms: C_7  and  C_31
REMARK    3  A    between atoms: C_11  and  C_13
REMARK    4  A    between atoms: C_18  and  O_34
REMARK    5  A    between atoms: N_19  and  C_21
REMARK    6  A    between atoms: C_24  and  C_27
REMARK    7  A    between atoms: C_27  and  N_28
REMARK                            x       y       z     vdW  Elec       q    Type
REMARK                         _______ _______ _______ _____ _____    ______ ____
ROOT
ATOM      1  N   UNL     1     -22.455  -3.044  10.513  0.00  0.00    +0.000 NA
ATOM      2  N   UNL     1     -23.892  -5.798  12.437  0.00  0.00    +0.000 NA
ATOM      3  C   UNL     1     -22.570  -5.417   9.980  0.00  0.00    +0.000 A 
ATOM      4  C   UNL     1     -22.813  -4.311  10.838  0.00  0.00    +0.000 A 
ATOM      5  C   UNL     1     -23.010  -6.691  10.394  0.00  0.00    +0.000 A 
ATOM      6  C   UNL     1     -23.484  -4.578  12.050  0.00  0.00    +0.000 A 
ATOM      7  C   UNL     1     -23.651  -6.827  11.605  0.00  0.00    +0.000 A 
ATOM      8  C   UNL     1     -23.736  -3.506  12.888  0.00  0.00    +0.000 A 
ATOM      9  C   UNL     1     -22.706  -2.013  11.357  0.00  0.00    +0.000 A 
ATOM     10  C   UNL     1     -23.353  -2.214  12.561  0.00  0.00    +0.000 A 
ENDROOT
BRANCH   9  13
ATOM     11 CL   UNL     1     -22.898   1.752   7.825  0.00  0.00    +0.000 Cl
ATOM     12 CL   UNL     1     -19.676   2.088  12.206  0.00  0.00    +0.000 Cl
ATOM     13  C   UNL     1     -22.238  -0.694  10.922  0.00  0.00    +0.000 A 
ATOM     14  C   UNL     1     -21.291   0.030  11.655  0.00  0.00    +0.000 A 
ATOM     15  C   UNL     1     -22.719  -0.117   9.740  0.00  0.00    +0.000 A 
ATOM     16  C   UNL     1     -22.272   1.128   9.302  0.00  0.00    +0.000 A 
ATOM     17  C   UNL     1     -20.841   1.281  11.229  0.00  0.00    +0.000 A 
ATOM     18  C   UNL     1     -21.330   1.836  10.046  0.00  0.00    +0.000 A 
BRANCH  18  19
ATOM     19  O   UNL     1     -20.881   3.062   9.631  0.00  0.00    +0.000 OA
ATOM     20  H   UNL     1     -19.965   2.961   9.312  0.00  0.00    +0.000 HD
ENDBRANCH  18  19
ENDBRANCH   9  13
BRANCH   5  21
ATOM     21  C   UNL     1     -22.856  -7.892   9.576  0.00  0.00    +0.000 C 
ATOM     22  O   UNL     1     -21.790  -8.358   9.210  0.00  0.00    +0.000 OA
ATOM     23  C   UNL     1     -24.004  -8.688   9.034  0.00  0.00    +0.000 C 
ENDBRANCH   5  21
BRANCH   3  24
ATOM     24  N   UNL     1     -21.811  -5.313   8.771  0.00  0.00    +0.000 N 
ATOM     25  H   UNL     1     -21.000  -5.937   8.724  0.00  0.00    +0.000 HD
BRANCH  24  26
ATOM     26  C   UNL     1     -22.239  -4.885   7.545  0.00  0.00    +0.000 A 
ATOM     27  C   UNL     1     -21.742  -3.619   7.069  0.00  0.00    +0.000 A 
ATOM     28  C   UNL     1     -22.564  -2.534   6.327  0.00  0.00    +0.000 A 
ATOM     29  C   UNL     1     -23.969  -2.635   6.011  0.00  0.00    +0.000 A 
ATOM     30  C   UNL     1     -24.475  -3.889   6.509  0.00  0.00    +0.000 A 
ATOM     31  C   UNL     1     -23.650  -4.969   7.251  0.00  0.00    +0.000 A 
BRANCH  29  32
ATOM     32  C   UNL     1     -24.697  -1.721   5.218  0.00  0.00    +0.000 C 
BRANCH  32  33
ATOM     33  N   UNL     1     -25.440  -0.766   4.414  0.00  0.00    +0.000 NA
ATOM     34  C   UNL     1     -26.593  -0.346   5.192  0.00  0.00    +0.000 C 
ATOM     35  C   UNL     1     -25.946  -1.479   3.253  0.00  0.00    +0.000 C 
ENDBRANCH  32  33
ENDBRANCH  29  32
ENDBRANCH  24  26
ENDBRANCH   3  24
TORSDOF 7
ENDMDL
MODEL 6
REMARK VINA RESULT:      -5.7      4.908      8.327
REMARK  Name = OTSSP167.pdbqt.pdb
REMARK  7 active torsions:
REMARK  status: ('A' for Active; 'I' for Inactive)
REMARK    1  A    between atoms: C_5  and  N_19
REMARK    2  A    between atoms: C_7  and  C_31
REMARK    3  A    between atoms: C_11  and  C_13
REMARK    4  A    between atoms: C_18  and  O_34
REMARK    5  A    between atoms: N_19  and  C_21
REMARK    6  A    between atoms: C_24  and  C_27
REMARK    7  A    between atoms: C_27  and  N_28
REMARK                            x       y       z     vdW  Elec       q    Type
REMARK                         _______ _______ _______ _____ _____    ______ ____
ROOT
ATOM      1  N   UNL     1     -12.093  -2.425  23.284  0.00  0.00    +0.000 NA
ATOM      2  N   UNL     1      -9.663  -0.794  21.097  0.00  0.00    +0.000 NA
ATOM      3  C   UNL     1     -10.792  -3.350  21.446  0.00  0.00    +0.000 A 
ATOM      4  C   UNL     1     -11.191  -2.274  22.283  0.00  0.00    +0.000 A 
ATOM      5  C   UNL     1      -9.823  -3.098  20.452  0.00  0.00    +0.000 A 
ATOM      6  C   UNL     1     -10.579  -1.023  22.051  0.00  0.00    +0.000 A 
ATOM      7  C   UNL     1      -9.301  -1.831  20.320  0.00  0.00    +0.000 A 
ATOM      8  C   UNL     1     -10.952   0.029  22.868  0.00  0.00    +0.000 A 
ATOM      9  C   UNL     1     -12.447  -1.374  24.064  0.00  0.00    +0.000 A 
ATOM     10  C   UNL     1     -11.888  -0.125  23.881  0.00  0.00    +0.000 A 
ENDROOT
BRANCH   9  13
ATOM     11 CL   UNL     1     -14.373  -4.658  27.558  0.00  0.00    +0.000 Cl
ATOM     12 CL   UNL     1     -16.623   0.223  26.659  0.00  0.00    +0.000 Cl
ATOM     13  C   UNL     1     -13.460  -1.644  25.088  0.00  0.00    +0.000 A 
ATOM     14  C   UNL     1     -14.465  -0.718  25.393  0.00  0.00    +0.000 A 
ATOM     15  C   UNL     1     -13.464  -2.855  25.793  0.00  0.00    +0.000 A 
ATOM     16  C   UNL     1     -14.429  -3.135  26.757  0.00  0.00    +0.000 A 
ATOM     17  C   UNL     1     -15.433  -0.986  26.361  0.00  0.00    +0.000 A 
ATOM     18  C   UNL     1     -15.421  -2.199  27.048  0.00  0.00    +0.000 A 
BRANCH  18  19
ATOM     19  O   UNL     1     -16.377  -2.459  27.995  0.00  0.00    +0.000 OA
ATOM     20  H   UNL     1     -17.207  -2.689  27.537  0.00  0.00    +0.000 HD
ENDBRANCH  18  19
ENDBRANCH   9  13
BRANCH   5  21
ATOM     21  C   UNL     1      -9.303  -4.136  19.565  0.00  0.00    +0.000 C 
ATOM     22  O   UNL     1      -8.533  -5.021  19.899  0.00  0.00    +0.000 OA
ATOM     23  C   UNL     1      -9.614  -4.218  18.101  0.00  0.00    +0.000 C 
ENDBRANCH   5  21
BRANCH   3  24
ATOM     24  N   UNL     1     -11.401  -4.644  21.497  0.00  0.00    +0.000 N 
ATOM     25  H   UNL     1     -11.681  -5.018  20.586  0.00  0.00    +0.000 HD
BRANCH  24  26
ATOM     26  C   UNL     1     -11.246  -5.607  22.456  0.00  0.00    +0.000 A 
ATOM     27  C   UNL     1     -12.396  -5.941  23.257  0.00  0.00    +0.000 A 
ATOM     28  C   UNL     1     -12.398  -6.216  24.783  0.00  0.00    +0.000 A 
ATOM     29  C   UNL     1     -11.233  -6.166  25.632  0.00  0.00    +0.000 A 
ATOM     30  C   UNL     1     -10.085  -5.807  24.838  0.00  0.00    +0.000 A 
ATOM     31  C   UNL     1     -10.089  -5.531  23.314  0.00  0.00    +0.000 A 
BRANCH  29  32
ATOM     32  C   UNL     1     -11.194  -6.546  26.992  0.00  0.00    +0.000 C 
BRANCH  32  33
ATOM     33  N   UNL     1     -11.137  -6.930  28.392  0.00  0.00    +0.000 NA
ATOM     34  C   UNL     1     -12.363  -7.648  28.696  0.00  0.00    +0.000 C 
ATOM     35  C   UNL     1     -11.153  -5.707  29.178  0.00  0.00    +0.000 C 
ENDBRANCH  32  33
ENDBRANCH  29  32
ENDBRANCH  24  26
ENDBRANCH   3  24
TORSDOF 7
ENDMDL
MODEL 7
REMARK VINA RESULT:      -5.6      4.462      8.095
REMARK  Name = OTSSP167.pdbqt.pdb
REMARK  7 active torsions:
REMARK  status: ('A' for Active; 'I' for Inactive)
REMARK    1  A    between atoms: C_5  and  N_19
REMARK    2  A    between atoms: C_7  and  C_31
REMARK    3  A    between atoms: C_11  and  C_13
REMARK    4  A    between atoms: C_18  and  O_34
REMARK    5  A    between atoms: N_19  and  C_21
REMARK    6  A    between atoms: C_24  and  C_27
REMARK    7  A    between atoms: C_27  and  N_28
REMARK                            x       y       z     vdW  Elec       q    Type
REMARK                         _______ _______ _______ _____ _____    ______ ____
ROOT
ATOM      1  N   UNL     1     -10.712  -2.615  23.111  0.00  0.00    +0.000 NA
ATOM      2  N   UNL     1      -9.655  -1.192  26.307  0.00  0.00    +0.000 NA
ATOM      3  C   UNL     1     -12.004  -2.211  25.135  0.00  0.00    +0.000 A 
ATOM      4  C   UNL     1     -10.792  -2.185  24.395  0.00  0.00    +0.000 A 
ATOM      5  C   UNL     1     -11.992  -1.713  26.454  0.00  0.00    +0.000 A 
ATOM      6  C   UNL     1      -9.657  -1.658  25.047  0.00  0.00    +0.000 A 
ATOM      7  C   UNL     1     -10.818  -1.226  26.984  0.00  0.00    +0.000 A 
ATOM      8  C   UNL     1      -8.474  -1.618  24.332  0.00  0.00    +0.000 A 
ATOM      9  C   UNL     1      -9.537  -2.573  22.436  0.00  0.00    +0.000 A 
ATOM     10  C   UNL     1      -8.391  -2.073  23.024  0.00  0.00    +0.000 A 
ENDROOT
BRANCH   9  13
ATOM     11 CL   UNL     1     -11.117  -2.002  17.551  0.00  0.00    +0.000 Cl
ATOM     12 CL   UNL     1      -8.179  -6.310  19.134  0.00  0.00    +0.000 Cl
ATOM     13  C   UNL     1      -9.559  -3.100  21.070  0.00  0.00    +0.000 A 
ATOM     14  C   UNL     1      -8.940  -4.310  20.736  0.00  0.00    +0.000 A 
ATOM     15  C   UNL     1     -10.218  -2.409  20.044  0.00  0.00    +0.000 A 
ATOM     16  C   UNL     1     -10.265  -2.904  18.744  0.00  0.00    +0.000 A 
ATOM     17  C   UNL     1      -8.974  -4.813  19.435  0.00  0.00    +0.000 A 
ATOM     18  C   UNL     1      -9.640  -4.111  18.430  0.00  0.00    +0.000 A 
BRANCH  18  19
ATOM     19  O   UNL     1      -9.674  -4.611  17.155  0.00  0.00    +0.000 OA
ATOM     20  H   UNL     1     -10.496  -4.304  16.728  0.00  0.00    +0.000 HD
ENDBRANCH  18  19
ENDBRANCH   9  13
BRANCH   5  21
ATOM     21  C   UNL     1     -13.186  -1.646  27.293  0.00  0.00    +0.000 C 
ATOM     22  O   UNL     1     -14.264  -1.196  26.941  0.00  0.00    +0.000 OA
ATOM     23  C   UNL     1     -13.228  -2.083  28.726  0.00  0.00    +0.000 C 
ENDBRANCH   5  21
BRANCH   3  24
ATOM     24  N   UNL     1     -13.206  -2.812  24.641  0.00  0.00    +0.000 N 
ATOM     25  H   UNL     1     -13.658  -2.295  23.881  0.00  0.00    +0.000 HD
BRANCH  24  26
ATOM     26  C   UNL     1     -13.569  -4.129  24.694  0.00  0.00    +0.000 A 
ATOM     27  C   UNL     1     -13.670  -4.742  25.994  0.00  0.00    +0.000 A 
ATOM     28  C   UNL     1     -13.195  -6.169  26.371  0.00  0.00    +0.000 A 
ATOM     29  C   UNL     1     -12.566  -7.097  25.463  0.00  0.00    +0.000 A 
ATOM     30  C   UNL     1     -12.440  -6.477  24.167  0.00  0.00    +0.000 A 
ATOM     31  C   UNL     1     -12.915  -5.050  23.796  0.00  0.00    +0.000 A 
BRANCH  29  32
ATOM     32  C   UNL     1     -12.253  -8.443  25.754  0.00  0.00    +0.000 C 
BRANCH  32  33
ATOM     33  N   UNL     1     -11.948  -9.833  26.045  0.00  0.00    +0.000 NA
ATOM     34  C   UNL     1     -12.582 -10.162  27.311  0.00  0.00    +0.000 C 
ATOM     35  C   UNL     1     -10.512  -9.928  26.249  0.00  0.00    +0.000 C 
ENDBRANCH  32  33
ENDBRANCH  29  32
ENDBRANCH  24  26
ENDBRANCH   3  24
TORSDOF 7
ENDMDL
MODEL 8
REMARK VINA RESULT:      -5.6      3.682      7.531
REMARK  Name = OTSSP167.pdbqt.pdb
REMARK  7 active torsions:
REMARK  status: ('A' for Active; 'I' for Inactive)
REMARK    1  A    between atoms: C_5  and  N_19
REMARK    2  A    between atoms: C_7  and  C_31
REMARK    3  A    between atoms: C_11  and  C_13
REMARK    4  A    between atoms: C_18  and  O_34
REMARK    5  A    between atoms: N_19  and  C_21
REMARK    6  A    between atoms: C_24  and  C_27
REMARK    7  A    between atoms: C_27  and  N_28
REMARK                            x       y       z     vdW  Elec       q    Type
REMARK                         _______ _______ _______ _____ _____    ______ ____
ROOT
ATOM      1  N   UNL     1      -8.942  -1.932  23.117  0.00  0.00    +0.000 NA
ATOM      2  N   UNL     1      -7.359   0.585  25.240  0.00  0.00    +0.000 NA
ATOM      3  C   UNL     1      -8.935  -1.728  25.543  0.00  0.00    +0.000 A 
ATOM      4  C   UNL     1      -8.554  -1.290  24.247  0.00  0.00    +0.000 A 
ATOM      5  C   UNL     1      -8.507  -0.973  26.655  0.00  0.00    +0.000 A 
ATOM      6  C   UNL     1      -7.767  -0.121  24.173  0.00  0.00    +0.000 A 
ATOM      7  C   UNL     1      -7.736   0.150  26.456  0.00  0.00    +0.000 A 
ATOM      8  C   UNL     1      -7.399   0.320  22.915  0.00  0.00    +0.000 A 
ATOM      9  C   UNL     1      -8.560  -1.482  21.896  0.00  0.00    +0.000 A 
ATOM     10  C   UNL     1      -7.784  -0.348  21.762  0.00  0.00    +0.000 A 
ENDROOT
BRANCH   9  13
ATOM     11 CL   UNL     1      -8.451  -6.004  19.399  0.00  0.00    +0.000 Cl
ATOM     12 CL   UNL     1     -11.239  -1.732  17.483  0.00  0.00    +0.000 Cl
ATOM     13  C   UNL     1      -9.003  -2.277  20.748  0.00  0.00    +0.000 A 
ATOM     14  C   UNL     1      -9.822  -1.736  19.750  0.00  0.00    +0.000 A 
ATOM     15  C   UNL     1      -8.607  -3.613  20.603  0.00  0.00    +0.000 A 
ATOM     16  C   UNL     1      -9.004  -4.377  19.509  0.00  0.00    +0.000 A 
ATOM     17  C   UNL     1     -10.231  -2.494  18.652  0.00  0.00    +0.000 A 
ATOM     18  C   UNL     1      -9.822  -3.822  18.526  0.00  0.00    +0.000 A 
BRANCH  18  19
ATOM     19  O   UNL     1     -10.223  -4.561  17.444  0.00  0.00    +0.000 OA
ATOM     20  H   UNL     1     -10.343  -5.485  17.732  0.00  0.00    +0.000 HD
ENDBRANCH  18  19
ENDBRANCH   9  13
BRANCH   5  21
ATOM     21  C   UNL     1      -8.876  -1.301  28.031  0.00  0.00    +0.000 C 
ATOM     22  O   UNL     1     -10.015  -1.485  28.425  0.00  0.00    +0.000 OA
ATOM     23  C   UNL     1      -7.893  -1.406  29.157  0.00  0.00    +0.000 C 
ENDBRANCH   5  21
BRANCH   3  24
ATOM     24  N   UNL     1      -9.643  -2.950  25.776  0.00  0.00    +0.000 N 
ATOM     25  H   UNL     1     -10.635  -2.922  25.522  0.00  0.00    +0.000 HD
BRANCH  24  26
ATOM     26  C   UNL     1      -9.133  -4.217  25.834  0.00  0.00    +0.000 A 
ATOM     27  C   UNL     1      -9.445  -5.113  24.750  0.00  0.00    +0.000 A 
ATOM     28  C   UNL     1      -9.806  -6.615  24.880  0.00  0.00    +0.000 A 
ATOM     29  C   UNL     1      -9.890  -7.339  26.126  0.00  0.00    +0.000 A 
ATOM     30  C   UNL     1      -9.603  -6.439  27.214  0.00  0.00    +0.000 A 
ATOM     31  C   UNL     1      -9.245  -4.939  27.079  0.00  0.00    +0.000 A 
BRANCH  29  32
ATOM     32  C   UNL     1     -10.082  -8.733  26.251  0.00  0.00    +0.000 C 
BRANCH  32  33
ATOM     33  N   UNL     1     -10.261 -10.169  26.373  0.00  0.00    +0.000 NA
ATOM     34  C   UNL     1     -11.689 -10.422  26.470  0.00  0.00    +0.000 C 
ATOM     35  C   UNL     1      -9.670 -10.573  27.638  0.00  0.00    +0.000 C 
ENDBRANCH  32  33
ENDBRANCH  29  32
ENDBRANCH  24  26
ENDBRANCH   3  24
TORSDOF 7
ENDMDL
MODEL 9
REMARK VINA RESULT:      -5.6     16.701     18.298
REMARK  Name = OTSSP167.pdbqt.pdb
REMARK  7 active torsions:
REMARK  status: ('A' for Active; 'I' for Inactive)
REMARK    1  A    between atoms: C_5  and  N_19
REMARK    2  A    between atoms: C_7  and  C_31
REMARK    3  A    between atoms: C_11  and  C_13
REMARK    4  A    between atoms: C_18  and  O_34
REMARK    5  A    between atoms: N_19  and  C_21
REMARK    6  A    between atoms: C_24  and  C_27
REMARK    7  A    between atoms: C_27  and  N_28
REMARK                            x       y       z     vdW  Elec       q    Type
REMARK                         _______ _______ _______ _____ _____    ______ ____
ROOT
ATOM      1  N   UNL     1     -23.393  -3.101  13.602  0.00  0.00    +0.000 NA
ATOM      2  N   UNL     1     -25.891  -3.941  16.133  0.00  0.00    +0.000 NA
ATOM      3  C   UNL     1     -23.642  -5.129  14.926  0.00  0.00    +0.000 A 
ATOM      4  C   UNL     1     -24.042  -3.819  14.553  0.00  0.00    +0.000 A 
ATOM      5  C   UNL     1     -24.401  -5.806  15.904  0.00  0.00    +0.000 A 
ATOM      6  C   UNL     1     -25.180  -3.290  15.198  0.00  0.00    +0.000 A 
ATOM      7  C   UNL     1     -25.492  -5.182  16.466  0.00  0.00    +0.000 A 
ATOM      8  C   UNL     1     -25.584  -2.018  14.834  0.00  0.00    +0.000 A 
ATOM      9  C   UNL     1     -23.806  -1.853  13.271  0.00  0.00    +0.000 A 
ATOM     10  C   UNL     1     -24.909  -1.280  13.873  0.00  0.00    +0.000 A 
ENDROOT
BRANCH   9  13
ATOM     11 CL   UNL     1     -22.094  -1.682   8.399  0.00  0.00    +0.000 Cl
ATOM     12 CL   UNL     1     -20.671   2.079  12.076  0.00  0.00    +0.000 Cl
ATOM     13  C   UNL     1     -23.006  -1.156  12.260  0.00  0.00    +0.000 A 
ATOM     14  C   UNL     1     -22.285   0.005  12.562  0.00  0.00    +0.000 A 
ATOM     15  C   UNL     1     -22.925  -1.642  10.949  0.00  0.00    +0.000 A 
ATOM     16  C   UNL     1     -22.156  -1.003   9.980  0.00  0.00    +0.000 A 
ATOM     17  C   UNL     1     -21.516   0.657  11.598  0.00  0.00    +0.000 A 
ATOM     18  C   UNL     1     -21.447   0.154  10.299  0.00  0.00    +0.000 A 
BRANCH  18  19
ATOM     19  O   UNL     1     -20.687   0.796   9.357  0.00  0.00    +0.000 OA
ATOM     20  H   UNL     1     -19.829   1.026   9.761  0.00  0.00    +0.000 HD
ENDBRANCH  18  19
ENDBRANCH   9  13
BRANCH   5  21
ATOM     21  C   UNL     1     -24.113  -7.172  16.333  0.00  0.00    +0.000 C 
ATOM     22  O   UNL     1     -23.053  -7.750  16.162  0.00  0.00    +0.000 OA
ATOM     23  C   UNL     1     -25.111  -8.067  17.002  0.00  0.00    +0.000 C 
ENDBRANCH   5  21
BRANCH   3  24
ATOM     24  N   UNL     1     -22.450  -5.751  14.433  0.00  0.00    +0.000 N 
ATOM     25  H   UNL     1     -21.839  -6.134  15.160  0.00  0.00    +0.000 HD
BRANCH  24  26
ATOM     26  C   UNL     1     -22.240  -6.302  13.200  0.00  0.00    +0.000 A 
ATOM     27  C   UNL     1     -21.170  -5.761  12.400  0.00  0.00    +0.000 A 
ATOM     28  C   UNL     1     -21.215  -5.494  10.874  0.00  0.00    +0.000 A 
ATOM     29  C   UNL     1     -22.354  -5.746  10.025  0.00  0.00    +0.000 A 
ATOM     30  C   UNL     1     -23.435  -6.263  10.826  0.00  0.00    +0.000 A 
ATOM     31  C   UNL     1     -23.386  -6.526  12.352  0.00  0.00    +0.000 A 
BRANCH  29  32
ATOM     32  C   UNL     1     -22.365  -5.638   8.616  0.00  0.00    +0.000 C 
BRANCH  32  33
ATOM     33  N   UNL     1     -22.392  -5.538   7.168  0.00  0.00    +0.000 NA
ATOM     34  C   UNL     1     -21.222  -4.776   6.762  0.00  0.00    +0.000 C 
ATOM     35  C   UNL     1     -23.560  -4.750   6.809  0.00  0.00    +0.000 C 
ENDBRANCH  32  33
ENDBRANCH  29  32
ENDBRANCH  24  26
ENDBRANCH   3  24
TORSDOF 7
ENDMDL
