MODEL 1
REMARK VINA RESULT:      -5.8      0.000      0.000
REMARK  Name = 
REMARK  0 active torsions:
REMARK  status: ('A' for Active; 'I' for Inactive)
REMARK                            x       y       z     vdW  Elec       q    Type
REMARK                         _______ _______ _______ _____ _____    ______ ____
ROOT
ATOM      1  O   UNL     1      -9.640  -1.113  22.405  0.00  0.00    +0.000 OA
ATOM      2  O   UNL     1      -8.239  -4.661  25.955  0.00  0.00    +0.000 OA
ATOM      3  N   UNL     1      -8.735  -1.178  21.383  0.00  0.00    +0.000 N 
ATOM      4  N   UNL     1      -8.517  -4.146  23.716  0.00  0.00    +0.000 N 
ATOM      5  C   UNL     1      -7.869  -2.451  21.429  0.00  0.00    +0.000 C 
ATOM      6  C   UNL     1      -8.689  -3.746  21.264  0.00  0.00    +0.000 C 
ATOM      7  C   UNL     1      -6.963  -2.521  22.665  0.00  0.00    +0.000 C 
ATOM      8  C   UNL     1      -9.448  -4.133  22.565  0.00  0.00    +0.000 C 
ATOM      9  C   UNL     1      -9.549  -3.655  19.990  0.00  0.00    +0.000 C 
ATOM     10  C   UNL     1      -7.740  -2.920  23.919  0.00  0.00    +0.000 C 
ATOM     11  C   UNL     1      -9.498  -1.148  20.076  0.00  0.00    +0.000 C 
ATOM     12  C   UNL     1      -6.157  -1.229  22.851  0.00  0.00    +0.000 C 
ATOM     13  C   UNL     1      -7.831   0.035  21.466  0.00  0.00    +0.000 C 
ATOM     14  C   UNL     1     -10.380  -2.381  19.920  0.00  0.00    +0.000 C 
ATOM     15  C   UNL     1      -7.008   0.031  22.747  0.00  0.00    +0.000 C 
ATOM     16  C   UNL     1     -10.174  -5.477  22.393  0.00  0.00    +0.000 C 
ATOM     17  C   UNL     1     -10.763  -5.928  23.716  0.00  0.00    +0.000 C 
ATOM     18  C   UNL     1      -8.778  -4.888  24.870  0.00  0.00    +0.000 C 
ATOM     19  C   UNL     1      -9.644  -6.118  24.714  0.00  0.00    +0.000 C 
ENDROOT
TORSDOF 0
ENDMDL
MODEL 2
REMARK VINA RESULT:      -5.8      1.613      5.529
REMARK  Name = 
REMARK  0 active torsions:
REMARK  status: ('A' for Active; 'I' for Inactive)
REMARK                            x       y       z     vdW  Elec       q    Type
REMARK                         _______ _______ _______ _____ _____    ______ ____
ROOT
ATOM      1  O   UNL     1     -10.448  -2.786  22.715  0.00  0.00    +0.000 OA
ATOM      2  O   UNL     1      -9.840   1.193  19.407  0.00  0.00    +0.000 OA
ATOM      3  N   UNL     1      -9.631  -3.798  22.293  0.00  0.00    +0.000 N 
ATOM      4  N   UNL     1      -8.837  -0.492  20.637  0.00  0.00    +0.000 N 
ATOM      5  C   UNL     1      -8.583  -3.332  21.264  0.00  0.00    +0.000 C 
ATOM      6  C   UNL     1      -7.599  -2.291  21.834  0.00  0.00    +0.000 C 
ATOM      7  C   UNL     1      -9.202  -2.849  19.947  0.00  0.00    +0.000 C 
ATOM      8  C   UNL     1      -8.232  -0.874  21.933  0.00  0.00    +0.000 C 
ATOM      9  C   UNL     1      -6.964  -2.832  23.128  0.00  0.00    +0.000 C 
ATOM     10  C   UNL     1      -9.798  -1.448  20.078  0.00  0.00    +0.000 C 
ATOM     11  C   UNL     1      -8.917  -4.363  23.502  0.00  0.00    +0.000 C 
ATOM     12  C   UNL     1     -10.200  -3.868  19.381  0.00  0.00    +0.000 C 
ATOM     13  C   UNL     1     -10.490  -4.877  21.666  0.00  0.00    +0.000 C 
ATOM     14  C   UNL     1      -7.994  -3.328  24.135  0.00  0.00    +0.000 C 
ATOM     15  C   UNL     1     -11.199  -4.370  20.417  0.00  0.00    +0.000 C 
ATOM     16  C   UNL     1      -7.194   0.154  22.411  0.00  0.00    +0.000 C 
ATOM     17  C   UNL     1      -7.770   1.555  22.336  0.00  0.00    +0.000 C 
ATOM     18  C   UNL     1      -9.043   0.843  20.280  0.00  0.00    +0.000 C 
ATOM     19  C   UNL     1      -8.120   1.868  20.899  0.00  0.00    +0.000 C 
ENDROOT
TORSDOF 0
ENDMDL
MODEL 3
REMARK VINA RESULT:      -5.5      1.877      4.266
REMARK  Name = 
REMARK  0 active torsions:
REMARK  status: ('A' for Active; 'I' for Inactive)
REMARK                            x       y       z     vdW  Elec       q    Type
REMARK                         _______ _______ _______ _____ _____    ______ ____
ROOT
ATOM      1  O   UNL     1      -9.530  -4.971  21.909  0.00  0.00    +0.000 OA
ATOM      2  O   UNL     1      -7.214  -2.522  25.883  0.00  0.00    +0.000 OA
ATOM      3  N   UNL     1     -10.690  -4.302  21.636  0.00  0.00    +0.000 N 
ATOM      4  N   UNL     1      -8.366  -2.340  23.883  0.00  0.00    +0.000 N 
ATOM      5  C   UNL     1     -10.749  -2.911  22.297  0.00  0.00    +0.000 C 
ATOM      6  C   UNL     1      -9.654  -1.953  21.787  0.00  0.00    +0.000 C 
ATOM      7  C   UNL     1     -10.766  -2.971  23.829  0.00  0.00    +0.000 C 
ATOM      8  C   UNL     1      -8.263  -2.265  22.408  0.00  0.00    +0.000 C 
ATOM      9  C   UNL     1      -9.700  -1.885  20.250  0.00  0.00    +0.000 C 
ATOM     10  C   UNL     1      -9.380  -3.262  24.403  0.00  0.00    +0.000 C 
ATOM     11  C   UNL     1     -10.798  -4.139  20.135  0.00  0.00    +0.000 C 
ATOM     12  C   UNL     1     -11.839  -3.937  24.348  0.00  0.00    +0.000 C 
ATOM     13  C   UNL     1     -11.853  -5.134  22.136  0.00  0.00    +0.000 C 
ATOM     14  C   UNL     1      -9.679  -3.258  19.591  0.00  0.00    +0.000 C 
ATOM     15  C   UNL     1     -11.815  -5.292  23.651  0.00  0.00    +0.000 C 
ATOM     16  C   UNL     1      -7.220  -1.231  21.954  0.00  0.00    +0.000 C 
ATOM     17  C   UNL     1      -5.915  -1.440  22.699  0.00  0.00    +0.000 C 
ATOM     18  C   UNL     1      -7.263  -2.132  24.714  0.00  0.00    +0.000 C 
ATOM     19  C   UNL     1      -6.158  -1.249  24.179  0.00  0.00    +0.000 C 
ENDROOT
TORSDOF 0
ENDMDL
MODEL 4
REMARK VINA RESULT:      -5.5     18.785     19.700
REMARK  Name = 
REMARK  0 active torsions:
REMARK  status: ('A' for Active; 'I' for Inactive)
REMARK                            x       y       z     vdW  Elec       q    Type
REMARK                         _______ _______ _______ _____ _____    ______ ____
ROOT
ATOM      1  O   UNL     1       7.455 -11.519  11.358  0.00  0.00    +0.000 OA
ATOM      2  O   UNL     1       4.813  -7.109  12.203  0.00  0.00    +0.000 OA
ATOM      3  N   UNL     1       7.561 -12.169  12.556  0.00  0.00    +0.000 N 
ATOM      4  N   UNL     1       5.014  -9.375  12.629  0.00  0.00    +0.000 N 
ATOM      5  C   UNL     1       6.603 -11.612  13.627  0.00  0.00    +0.000 C 
ATOM      6  C   UNL     1       5.117 -11.784  13.255  0.00  0.00    +0.000 C 
ATOM      7  C   UNL     1       6.914 -10.162  14.019  0.00  0.00    +0.000 C 
ATOM      8  C   UNL     1       4.649 -10.744  12.197  0.00  0.00    +0.000 C 
ATOM      9  C   UNL     1       4.836 -13.258  12.913  0.00  0.00    +0.000 C 
ATOM     10  C   UNL     1       6.426  -9.169  12.965  0.00  0.00    +0.000 C 
ATOM     11  C   UNL     1       7.247 -13.632  12.328  0.00  0.00    +0.000 C 
ATOM     12  C   UNL     1       8.396  -9.974  14.371  0.00  0.00    +0.000 C 
ATOM     13  C   UNL     1       8.986 -12.033  13.052  0.00  0.00    +0.000 C 
ATOM     14  C   UNL     1       5.802 -13.826  11.883  0.00  0.00    +0.000 C 
ATOM     15  C   UNL     1       9.340 -10.579  13.338  0.00  0.00    +0.000 C 
ATOM     16  C   UNL     1       3.143 -10.882  11.926  0.00  0.00    +0.000 C 
ATOM     17  C   UNL     1       2.665  -9.756  11.029  0.00  0.00    +0.000 C 
ATOM     18  C   UNL     1       4.339  -8.246  12.159  0.00  0.00    +0.000 C 
ATOM     19  C   UNL     1       2.902  -8.436  11.728  0.00  0.00    +0.000 C 
ENDROOT
TORSDOF 0
ENDMDL
MODEL 5
REMARK VINA RESULT:      -5.4      1.905      2.699
REMARK  Name = 
REMARK  0 active torsions:
REMARK  status: ('A' for Active; 'I' for Inactive)
REMARK                            x       y       z     vdW  Elec       q    Type
REMARK                         _______ _______ _______ _____ _____    ______ ____
ROOT
ATOM      1  O   UNL     1     -10.020  -2.241  24.127  0.00  0.00    +0.000 OA
ATOM      2  O   UNL     1      -7.394  -6.507  25.558  0.00  0.00    +0.000 OA
ATOM      3  N   UNL     1     -10.324  -2.373  22.801  0.00  0.00    +0.000 N 
ATOM      4  N   UNL     1      -9.165  -5.615  24.364  0.00  0.00    +0.000 N 
ATOM      5  C   UNL     1     -10.136  -3.812  22.283  0.00  0.00    +0.000 C 
ATOM      6  C   UNL     1     -11.072  -4.828  22.969  0.00  0.00    +0.000 C 
ATOM      7  C   UNL     1      -8.678  -4.283  22.326  0.00  0.00    +0.000 C 
ATOM      8  C   UNL     1     -10.587  -5.205  24.398  0.00  0.00    +0.000 C 
ATOM      9  C   UNL     1     -12.529  -4.342  22.865  0.00  0.00    +0.000 C 
ATOM     10  C   UNL     1      -8.242  -4.661  23.742  0.00  0.00    +0.000 C 
ATOM     11  C   UNL     1     -11.769  -1.964  22.606  0.00  0.00    +0.000 C 
ATOM     12  C   UNL     1      -7.734  -3.271  21.665  0.00  0.00    +0.000 C 
ATOM     13  C   UNL     1      -9.428  -1.444  22.008  0.00  0.00    +0.000 C 
ATOM     14  C   UNL     1     -12.715  -2.907  23.340  0.00  0.00    +0.000 C 
ATOM     15  C   UNL     1      -7.963  -1.839  22.136  0.00  0.00    +0.000 C 
ATOM     16  C   UNL     1     -11.487  -6.290  25.011  0.00  0.00    +0.000 C 
ATOM     17  C   UNL     1     -10.905  -6.773  26.325  0.00  0.00    +0.000 C 
ATOM     18  C   UNL     1      -8.606  -6.433  25.349  0.00  0.00    +0.000 C 
ATOM     19  C   UNL     1      -9.543  -7.376  26.069  0.00  0.00    +0.000 C 
ENDROOT
TORSDOF 0
ENDMDL
MODEL 6
REMARK VINA RESULT:      -5.4     16.816     17.786
REMARK  Name = 
REMARK  0 active torsions:
REMARK  status: ('A' for Active; 'I' for Inactive)
REMARK                            x       y       z     vdW  Elec       q    Type
REMARK                         _______ _______ _______ _____ _____    ______ ____
ROOT
ATOM      1  O   UNL     1       4.794  -8.184  15.718  0.00  0.00    +0.000 OA
ATOM      2  O   UNL     1       3.301 -12.285  12.873  0.00  0.00    +0.000 OA
ATOM      3  N   UNL     1       6.077  -7.880  15.356  0.00  0.00    +0.000 N 
ATOM      4  N   UNL     1       4.398 -10.248  12.933  0.00  0.00    +0.000 N 
ATOM      5  C   UNL     1       6.507  -8.563  14.044  0.00  0.00    +0.000 C 
ATOM      6  C   UNL     1       5.675  -8.112  12.827  0.00  0.00    +0.000 C 
ATOM      7  C   UNL     1       6.557 -10.092  14.148  0.00  0.00    +0.000 C 
ATOM      8  C   UNL     1       4.270  -8.779  12.794  0.00  0.00    +0.000 C 
ATOM      9  C   UNL     1       5.688  -6.576  12.731  0.00  0.00    +0.000 C 
ATOM     10  C   UNL     1       5.162 -10.712  14.095  0.00  0.00    +0.000 C 
ATOM     11  C   UNL     1       6.175  -6.379  15.185  0.00  0.00    +0.000 C 
ATOM     12  C   UNL     1       7.366 -10.553  15.368  0.00  0.00    +0.000 C 
ATOM     13  C   UNL     1       7.006  -8.320  16.468  0.00  0.00    +0.000 C 
ATOM     14  C   UNL     1       5.299  -5.894  14.036  0.00  0.00    +0.000 C 
ATOM     15  C   UNL     1       6.977  -9.832  16.653  0.00  0.00    +0.000 C 
ATOM     16  C   UNL     1       3.509  -8.384  11.519  0.00  0.00    +0.000 C 
ATOM     17  C   UNL     1       2.219  -9.173  11.412  0.00  0.00    +0.000 C 
ATOM     18  C   UNL     1       3.410 -11.123  12.476  0.00  0.00    +0.000 C 
ATOM     19  C   UNL     1       2.548 -10.646  11.329  0.00  0.00    +0.000 C 
ENDROOT
TORSDOF 0
ENDMDL
MODEL 7
REMARK VINA RESULT:      -5.4     20.949     22.823
REMARK  Name = 
REMARK  0 active torsions:
REMARK  status: ('A' for Active; 'I' for Inactive)
REMARK                            x       y       z     vdW  Elec       q    Type
REMARK                         _______ _______ _______ _____ _____    ______ ____
ROOT
ATOM      1  O   UNL     1      -2.443  -5.874  -0.971  0.00  0.00    +0.000 OA
ATOM      2  O   UNL     1       0.004  -2.823   2.472  0.00  0.00    +0.000 OA
ATOM      3  N   UNL     1      -2.685  -7.071  -0.357  0.00  0.00    +0.000 N 
ATOM      4  N   UNL     1      -1.684  -4.357   2.079  0.00  0.00    +0.000 N 
ATOM      5  C   UNL     1      -2.508  -7.007   1.172  0.00  0.00    +0.000 C 
ATOM      6  C   UNL     1      -3.501  -6.046   1.856  0.00  0.00    +0.000 C 
ATOM      7  C   UNL     1      -1.065  -6.714   1.600  0.00  0.00    +0.000 C 
ATOM      8  C   UNL     1      -3.095  -4.555   1.678  0.00  0.00    +0.000 C 
ATOM      9  C   UNL     1      -4.939  -6.403   1.437  0.00  0.00    +0.000 C 
ATOM     10  C   UNL     1      -0.709  -5.238   1.427  0.00  0.00    +0.000 C 
ATOM     11  C   UNL     1      -4.108  -7.482  -0.672  0.00  0.00    +0.000 C 
ATOM     12  C   UNL     1      -0.066  -7.651   0.910  0.00  0.00    +0.000 C 
ATOM     13  C   UNL     1      -1.729  -8.102  -0.921  0.00  0.00    +0.000 C 
ATOM     14  C   UNL     1      -5.112  -6.504  -0.073  0.00  0.00    +0.000 C 
ATOM     15  C   UNL     1      -0.282  -7.756  -0.595  0.00  0.00    +0.000 C 
ATOM     16  C   UNL     1      -4.051  -3.635   2.453  0.00  0.00    +0.000 C 
ATOM     17  C   UNL     1      -3.547  -2.205   2.417  0.00  0.00    +0.000 C 
ATOM     18  C   UNL     1      -1.195  -3.111   2.475  0.00  0.00    +0.000 C 
ATOM     19  C   UNL     1      -2.189  -2.145   3.079  0.00  0.00    +0.000 C 
ENDROOT
TORSDOF 0
ENDMDL
MODEL 8
REMARK VINA RESULT:      -5.4      2.809      4.690
REMARK  Name = 
REMARK  0 active torsions:
REMARK  status: ('A' for Active; 'I' for Inactive)
REMARK                            x       y       z     vdW  Elec       q    Type
REMARK                         _______ _______ _______ _____ _____    ______ ____
ROOT
ATOM      1  O   UNL     1      -8.776  -3.885  22.851  0.00  0.00    +0.000 OA
ATOM      2  O   UNL     1     -13.735  -2.302  23.078  0.00  0.00    +0.000 OA
ATOM      3  N   UNL     1      -8.248  -3.407  21.684  0.00  0.00    +0.000 N 
ATOM      4  N   UNL     1     -11.540  -1.772  22.572  0.00  0.00    +0.000 N 
ATOM      5  C   UNL     1      -9.116  -2.312  21.037  0.00  0.00    +0.000 C 
ATOM      6  C   UNL     1      -9.249  -1.050  21.913  0.00  0.00    +0.000 C 
ATOM      7  C   UNL     1     -10.489  -2.820  20.582  0.00  0.00    +0.000 C 
ATOM      8  C   UNL     1     -10.253  -1.249  23.084  0.00  0.00    +0.000 C 
ATOM      9  C   UNL     1      -7.850  -0.545  22.310  0.00  0.00    +0.000 C 
ATOM     10  C   UNL     1     -11.452  -2.987  21.756  0.00  0.00    +0.000 C 
ATOM     11  C   UNL     1      -6.878  -2.836  21.987  0.00  0.00    +0.000 C 
ATOM     12  C   UNL     1     -10.371  -4.088  19.726  0.00  0.00    +0.000 C 
ATOM     13  C   UNL     1      -8.107  -4.562  20.713  0.00  0.00    +0.000 C 
ATOM     14  C   UNL     1      -6.973  -1.632  22.917  0.00  0.00    +0.000 C 
ATOM     15  C   UNL     1      -9.464  -5.146  20.342  0.00  0.00    +0.000 C 
ATOM     16  C   UNL     1     -10.433   0.056  23.875  0.00  0.00    +0.000 C 
ATOM     17  C   UNL     1     -11.540  -0.100  24.901  0.00  0.00    +0.000 C 
ATOM     18  C   UNL     1     -12.737  -1.604  23.271  0.00  0.00    +0.000 C 
ATOM     19  C   UNL     1     -12.836  -0.404  24.185  0.00  0.00    +0.000 C 
ENDROOT
TORSDOF 0
ENDMDL
MODEL 9
REMARK VINA RESULT:      -5.3      3.108      4.587
REMARK  Name = 
REMARK  0 active torsions:
REMARK  status: ('A' for Active; 'I' for Inactive)
REMARK                            x       y       z     vdW  Elec       q    Type
REMARK                         _______ _______ _______ _____ _____    ______ ____
ROOT
ATOM      1  O   UNL     1     -11.719  -3.678  21.191  0.00  0.00    +0.000 OA
ATOM      2  O   UNL     1     -12.515   0.931  23.486  0.00  0.00    +0.000 OA
ATOM      3  N   UNL     1     -10.424  -4.040  21.439  0.00  0.00    +0.000 N 
ATOM      4  N   UNL     1     -11.586  -1.184  23.628  0.00  0.00    +0.000 N 
ATOM      5  C   UNL     1      -9.773  -3.207  22.559  0.00  0.00    +0.000 C 
ATOM      6  C   UNL     1     -10.464  -3.387  23.925  0.00  0.00    +0.000 C 
ATOM      7  C   UNL     1      -9.627  -1.723  22.201  0.00  0.00    +0.000 C 
ATOM      8  C   UNL     1     -11.799  -2.595  24.020  0.00  0.00    +0.000 C 
ATOM      9  C   UNL     1     -10.548  -4.885  24.269  0.00  0.00    +0.000 C 
ATOM     10  C   UNL     1     -10.955  -0.975  22.321  0.00  0.00    +0.000 C 
ATOM     11  C   UNL     1     -10.412  -5.500  21.840  0.00  0.00    +0.000 C 
ATOM     12  C   UNL     1      -8.960  -1.531  20.833  0.00  0.00    +0.000 C 
ATOM     13  C   UNL     1      -9.624  -3.863  20.165  0.00  0.00    +0.000 C 
ATOM     14  C   UNL     1     -11.158  -5.720  23.151  0.00  0.00    +0.000 C 
ATOM     15  C   UNL     1      -9.569  -2.401  19.740  0.00  0.00    +0.000 C 
ATOM     16  C   UNL     1     -12.408  -2.719  25.425  0.00  0.00    +0.000 C 
ATOM     17  C   UNL     1     -13.612  -1.807  25.558  0.00  0.00    +0.000 C 
ATOM     18  C   UNL     1     -12.438  -0.161  24.052  0.00  0.00    +0.000 C 
ATOM     19  C   UNL     1     -13.169  -0.375  25.358  0.00  0.00    +0.000 C 
ENDROOT
TORSDOF 0
ENDMDL
