MODEL 1
REMARK VINA RESULT:      -6.5      0.000      0.000
REMARK  Name = 
REMARK  23 active torsions:
REMARK  status: ('A' for Active; 'I' for Inactive)
REMARK    1  A    between atoms: O_2  and  C_17
REMARK    2  A    between atoms: O_2  and  C_36
REMARK    3  A    between atoms: O_3  and  C_20
REMARK    4  A    between atoms: O_3  and  C_37
REMARK    5  A    between atoms: O_4  and  C_21
REMARK    6  A    between atoms: O_5  and  C_22
REMARK    7  A    between atoms: O_6  and  C_30
REMARK    8  A    between atoms: O_6  and  C_39
REMARK    9  A    between atoms: O_8  and  C_31
REMARK   10  A    between atoms: O_8  and  C_40
REMARK   11  A    between atoms: O_13  and  C_42
REMARK   12  A    between atoms: N_15  and  C_46
REMARK   13  A    between atoms: C_18  and  C_29
REMARK   14  A    between atoms: C_24  and  C_33
REMARK   15  A    between atoms: C_24  and  C_34
REMARK   16  A    between atoms: C_32  and  C_35
REMARK   17  A    between atoms: C_36  and  C_38
REMARK   18  A    between atoms: C_37  and  C_41
REMARK   19  A    between atoms: C_39  and  C_43
REMARK   20  A    between atoms: C_40  and  C_42
REMARK   21  A    between atoms: C_42  and  C_46
REMARK   22  A    between atoms: C_46  and  C_50
REMARK   23  A    between atoms: C_53  and  C_56
REMARK                            x       y       z     vdW  Elec       q    Type
REMARK                         _______ _______ _______ _____ _____    ______ ____
ROOT
ATOM      1  O   UNL     1     -25.069   5.336   6.115  0.00  0.00    +0.000 OA
ATOM      2  O   UNL     1     -24.380   5.820  12.729  0.00  0.00    +0.000 OA
ATOM      3  C   UNL     1     -23.408   4.081   8.854  0.00  0.00    +0.000 C 
ATOM      4  C   UNL     1     -24.363   3.998   7.628  0.00  0.00    +0.000 C 
ATOM      5  C   UNL     1     -24.453   4.644  10.334  0.00  0.00    +0.000 C 
ATOM      6  C   UNL     1     -24.653   5.548   7.492  0.00  0.00    +0.000 C 
ATOM      7  C   UNL     1     -22.268   2.609   8.952  0.00  0.00    +0.000 C 
ATOM      8  C   UNL     1     -20.911   1.854  10.037  0.00  0.00    +0.000 C 
ATOM      9  C   UNL     1     -25.016   6.060   9.895  0.00  0.00    +0.000 C 
ATOM     10  C   UNL     1     -25.650   6.122   8.472  0.00  0.00    +0.000 C 
ATOM     11  C   UNL     1     -20.419   2.319  11.677  0.00  0.00    +0.000 C 
ATOM     12  C   UNL     1     -24.080   4.236   6.093  0.00  0.00    +0.000 C 
ATOM     13  C   UNL     1     -23.893   4.843  12.119  0.00  0.00    +0.000 C 
ATOM     14  C   UNL     1     -21.358   0.344  10.306  0.00  0.00    +0.000 C 
ATOM     15  C   UNL     1     -21.663   2.336  12.691  0.00  0.00    +0.000 C 
ATOM     16  C   UNL     1     -25.771   3.780  10.512  0.00  0.00    +0.000 C 
ATOM     17  C   UNL     1     -22.657   3.769  13.124  0.00  0.00    +0.000 C 
ATOM     18  C   UNL     1     -22.130   0.012  11.662  0.00  0.00    +0.000 C 
ATOM     19  C   UNL     1     -22.245   1.094  12.798  0.00  0.00    +0.000 C 
ATOM     20  C   UNL     1     -19.405   1.177  12.186  0.00  0.00    +0.000 C 
ATOM     21  C   UNL     1     -19.405   3.494  11.864  0.00  0.00    +0.000 C 
ATOM     22  C   UNL     1     -23.256   0.762  13.867  0.00  0.00    +0.000 C 
ENDROOT
BRANCH   9  23
ATOM     23  O   UNL     1     -23.953   7.011   9.918  0.00  0.00    +0.000 OA
ATOM     24  H   UNL     1     -24.215   7.732   9.310  0.00  0.00    +0.000 HD
ENDBRANCH   9  23
BRANCH   8  25
ATOM     25  O   UNL     1     -19.738   1.793   9.204  0.00  0.00    +0.000 OA
ATOM     26  H   UNL     1     -19.640   0.886   8.866  0.00  0.00    +0.000 HD
ENDBRANCH   8  25
BRANCH  18  27
ATOM     27  O   UNL     1     -23.494  -0.372  11.320  0.00  0.00    +0.000 OA
BRANCH  27  29
ATOM     28  O   UNL     1     -23.714  -2.071  12.798  0.00  0.00    +0.000 OA
ATOM     29  C   UNL     1     -23.886  -1.624  11.669  0.00  0.00    +0.000 C 
BRANCH  29  30
ATOM     30  C   UNL     1     -24.405  -2.475  10.505  0.00  0.00    +0.000 C 
BRANCH  30  31
ATOM     31  O   UNL     1     -25.458  -3.388  10.836  0.00  0.00    +0.000 OA
ATOM     32  H   UNL     1     -26.280  -2.863  10.836  0.00  0.00    +0.000 HD
ENDBRANCH  30  31
BRANCH  30  33
ATOM     33  C   UNL     1     -23.199  -3.235   9.888  0.00  0.00    +0.000 C 
BRANCH  33  34
ATOM     34  C   UNL     1     -23.165  -3.052   8.377  0.00  0.00    +0.000 A 
ATOM     35  C   UNL     1     -24.073  -3.765   7.574  0.00  0.00    +0.000 A 
ATOM     36  C   UNL     1     -22.231  -2.213   7.749  0.00  0.00    +0.000 A 
ATOM     37  C   UNL     1     -24.057  -3.627   6.185  0.00  0.00    +0.000 A 
ATOM     38  C   UNL     1     -22.218  -2.075   6.361  0.00  0.00    +0.000 A 
ATOM     39  C   UNL     1     -23.132  -2.780   5.579  0.00  0.00    +0.000 A 
ENDBRANCH  33  34
BRANCH  33  41
ATOM     40  O   UNL     1     -22.305  -6.614  10.818  0.00  0.00    +0.000 OA
ATOM     41  N   UNL     1     -23.253  -4.659  10.244  0.00  0.00    +0.000 N 
ATOM     42  C   UNL     1     -22.292  -5.621  10.097  0.00  0.00    +0.000 C 
ATOM     43  H   UNL     1     -23.970  -4.900  10.921  0.00  0.00    +0.000 HD
BRANCH  42  44
ATOM     44  C   UNL     1     -21.206  -5.452   9.105  0.00  0.00    +0.000 A 
ATOM     45  C   UNL     1     -20.034  -4.756   9.418  0.00  0.00    +0.000 A 
ATOM     46  C   UNL     1     -21.402  -5.943   7.809  0.00  0.00    +0.000 A 
ATOM     47  C   UNL     1     -19.036  -4.607   8.454  0.00  0.00    +0.000 A 
ATOM     48  C   UNL     1     -20.404  -5.790   6.846  0.00  0.00    +0.000 A 
ATOM     49  C   UNL     1     -19.218  -5.131   7.173  0.00  0.00    +0.000 A 
ENDBRANCH  42  44
ENDBRANCH  33  41
ENDBRANCH  30  33
ENDBRANCH  29  30
ENDBRANCH  27  29
ENDBRANCH  18  27
BRANCH  17  50
ATOM     50  O   UNL     1     -21.768   4.564  13.938  0.00  0.00    +0.000 OA
BRANCH  50  52
ATOM     51  O   UNL     1     -21.510   5.765  15.809  0.00  0.00    +0.000 OA
ATOM     52  C   UNL     1     -21.958   4.761  15.262  0.00  0.00    +0.000 C 
ATOM     53  C   UNL     1     -22.645   3.679  16.041  0.00  0.00    +0.000 C 
ENDBRANCH  50  52
ENDBRANCH  17  50
BRANCH   7  54
ATOM     54  O   UNL     1     -23.163   2.087   9.765  0.00  0.00    +0.000 OA
BRANCH  54  56
ATOM     55  O   UNL     1     -22.663   1.342   7.967  0.00  0.00    +0.000 OA
ATOM     56  C   UNL     1     -23.561   1.202   8.791  0.00  0.00    +0.000 C 
BRANCH  56  57
ATOM     57  C   UNL     1     -25.268   0.338   8.756  0.00  0.00    +0.000 A 
ATOM     58  C   UNL     1     -25.716  -0.608   7.736  0.00  0.00    +0.000 A 
ATOM     59  C   UNL     1     -26.283   0.379   9.760  0.00  0.00    +0.000 A 
ATOM     60  C   UNL     1     -26.920  -1.355   7.728  0.00  0.00    +0.000 A 
ATOM     61  C   UNL     1     -27.499  -0.362   9.769  0.00  0.00    +0.000 A 
ATOM     62  C   UNL     1     -27.819  -1.233   8.756  0.00  0.00    +0.000 A 
ENDBRANCH  56  57
ENDBRANCH  54  56
ENDBRANCH   7  54
BRANCH   4  63
ATOM     63  O   UNL     1     -25.535   3.193   7.899  0.00  0.00    +0.000 OA
BRANCH  63  65
ATOM     64  O   UNL     1     -26.150   2.227   5.979  0.00  0.00    +0.000 OA
ATOM     65  C   UNL     1     -26.471   2.866   6.979  0.00  0.00    +0.000 C 
ATOM     66  C   UNL     1     -27.864   3.387   7.132  0.00  0.00    +0.000 C 
ENDBRANCH  63  65
ENDBRANCH   4  63
TORSDOF 17
ENDMDL
MODEL 2
REMARK VINA RESULT:      -6.1      2.100      3.194
REMARK  Name = 
REMARK  23 active torsions:
REMARK  status: ('A' for Active; 'I' for Inactive)
REMARK    1  A    between atoms: O_2  and  C_17
REMARK    2  A    between atoms: O_2  and  C_36
REMARK    3  A    between atoms: O_3  and  C_20
REMARK    4  A    between atoms: O_3  and  C_37
REMARK    5  A    between atoms: O_4  and  C_21
REMARK    6  A    between atoms: O_5  and  C_22
REMARK    7  A    between atoms: O_6  and  C_30
REMARK    8  A    between atoms: O_6  and  C_39
REMARK    9  A    between atoms: O_8  and  C_31
REMARK   10  A    between atoms: O_8  and  C_40
REMARK   11  A    between atoms: O_13  and  C_42
REMARK   12  A    between atoms: N_15  and  C_46
REMARK   13  A    between atoms: C_18  and  C_29
REMARK   14  A    between atoms: C_24  and  C_33
REMARK   15  A    between atoms: C_24  and  C_34
REMARK   16  A    between atoms: C_32  and  C_35
REMARK   17  A    between atoms: C_36  and  C_38
REMARK   18  A    between atoms: C_37  and  C_41
REMARK   19  A    between atoms: C_39  and  C_43
REMARK   20  A    between atoms: C_40  and  C_42
REMARK   21  A    between atoms: C_42  and  C_46
REMARK   22  A    between atoms: C_46  and  C_50
REMARK   23  A    between atoms: C_53  and  C_56
REMARK                            x       y       z     vdW  Elec       q    Type
REMARK                         _______ _______ _______ _____ _____    ______ ____
ROOT
ATOM      1  O   UNL     1     -26.935   3.883   6.578  0.00  0.00    +0.000 OA
ATOM      2  O   UNL     1     -26.574   2.407  13.070  0.00  0.00    +0.000 OA
ATOM      3  C   UNL     1     -24.852   2.782   9.087  0.00  0.00    +0.000 C 
ATOM      4  C   UNL     1     -25.628   2.651   7.743  0.00  0.00    +0.000 C 
ATOM      5  C   UNL     1     -26.032   2.224  10.464  0.00  0.00    +0.000 C 
ATOM      6  C   UNL     1     -26.685   3.799   8.009  0.00  0.00    +0.000 C 
ATOM      7  C   UNL     1     -23.110   2.129   8.952  0.00  0.00    +0.000 C 
ATOM      8  C   UNL     1     -21.555   1.831   9.992  0.00  0.00    +0.000 C 
ATOM      9  C   UNL     1     -27.253   3.230  10.358  0.00  0.00    +0.000 C 
ATOM     10  C   UNL     1     -27.832   3.441   8.926  0.00  0.00    +0.000 C 
ATOM     11  C   UNL     1     -21.372   1.902  11.755  0.00  0.00    +0.000 C 
ATOM     12  C   UNL     1     -25.516   3.495   6.412  0.00  0.00    +0.000 C 
ATOM     13  C   UNL     1     -25.651   2.067  12.300  0.00  0.00    +0.000 C 
ATOM     14  C   UNL     1     -21.146   0.308   9.737  0.00  0.00    +0.000 C 
ATOM     15  C   UNL     1     -22.437   0.962  12.503  0.00  0.00    +0.000 C 
ATOM     16  C   UNL     1     -26.703   0.821  10.159  0.00  0.00    +0.000 C 
ATOM     17  C   UNL     1     -24.033   1.478  13.151  0.00  0.00    +0.000 C 
ATOM     18  C   UNL     1     -21.626  -0.792  10.788  0.00  0.00    +0.000 C 
ATOM     19  C   UNL     1     -22.284  -0.358  12.149  0.00  0.00    +0.000 C 
ATOM     20  C   UNL     1     -19.908   1.315  12.082  0.00  0.00    +0.000 C 
ATOM     21  C   UNL     1     -21.121   3.283  12.441  0.00  0.00    +0.000 C 
ATOM     22  C   UNL     1     -22.970  -1.480  12.889  0.00  0.00    +0.000 C 
ENDROOT
BRANCH   9  23
ATOM     23  O   UNL     1     -26.843   4.512  10.834  0.00  0.00    +0.000 OA
ATOM     24  H   UNL     1     -27.093   5.155  10.140  0.00  0.00    +0.000 HD
ENDBRANCH   9  23
BRANCH   8  25
ATOM     25  O   UNL     1     -20.526   2.639   9.389  0.00  0.00    +0.000 OA
ATOM     26  H   UNL     1     -20.675   3.570   9.634  0.00  0.00    +0.000 HD
ENDBRANCH   8  25
BRANCH  18  27
ATOM     27  O   UNL     1     -22.589  -1.660  10.122  0.00  0.00    +0.000 OA
BRANCH  27  29
ATOM     28  O   UNL     1     -21.577  -3.090   8.691  0.00  0.00    +0.000 OA
ATOM     29  C   UNL     1     -22.155  -2.892   9.754  0.00  0.00    +0.000 C 
BRANCH  29  30
ATOM     30  C   UNL     1     -22.585  -4.024  10.693  0.00  0.00    +0.000 C 
BRANCH  30  31
ATOM     31  O   UNL     1     -21.515  -4.763  11.293  0.00  0.00    +0.000 OA
ATOM     32  H   UNL     1     -20.918  -5.014  10.564  0.00  0.00    +0.000 HD
ENDBRANCH  30  31
BRANCH  30  33
ATOM     33  C   UNL     1     -23.528  -4.973   9.903  0.00  0.00    +0.000 C 
BRANCH  33  34
ATOM     34  C   UNL     1     -24.962  -4.836  10.394  0.00  0.00    +0.000 A 
ATOM     35  C   UNL     1     -25.928  -5.767   9.974  0.00  0.00    +0.000 A 
ATOM     36  C   UNL     1     -25.365  -3.785  11.233  0.00  0.00    +0.000 A 
ATOM     37  C   UNL     1     -27.254  -5.660  10.396  0.00  0.00    +0.000 A 
ATOM     38  C   UNL     1     -26.691  -3.681  11.655  0.00  0.00    +0.000 A 
ATOM     39  C   UNL     1     -27.634  -4.619  11.239  0.00  0.00    +0.000 A 
ENDBRANCH  33  34
BRANCH  33  41
ATOM     40  O   UNL     1     -21.738  -8.080   9.429  0.00  0.00    +0.000 OA
ATOM     41  N   UNL     1     -23.065  -6.363  10.013  0.00  0.00    +0.000 N 
ATOM     42  C   UNL     1     -22.443  -7.140   9.074  0.00  0.00    +0.000 C 
ATOM     43  H   UNL     1     -22.939  -6.695  10.964  0.00  0.00    +0.000 HD
BRANCH  42  44
ATOM     44  C   UNL     1     -22.577  -6.828   7.633  0.00  0.00    +0.000 A 
ATOM     45  C   UNL     1     -23.675  -7.270   6.890  0.00  0.00    +0.000 A 
ATOM     46  C   UNL     1     -21.538  -6.135   7.000  0.00  0.00    +0.000 A 
ATOM     47  C   UNL     1     -23.763  -6.965   5.530  0.00  0.00    +0.000 A 
ATOM     48  C   UNL     1     -21.626  -5.834   5.641  0.00  0.00    +0.000 A 
ATOM     49  C   UNL     1     -22.743  -6.242   4.910  0.00  0.00    +0.000 A 
ENDBRANCH  42  44
ENDBRANCH  33  41
ENDBRANCH  30  33
ENDBRANCH  29  30
ENDBRANCH  27  29
ENDBRANCH  18  27
BRANCH  17  50
ATOM     50  O   UNL     1     -23.687   2.285  14.298  0.00  0.00    +0.000 OA
BRANCH  50  52
ATOM     51  O   UNL     1     -23.774   2.679  16.499  0.00  0.00    +0.000 OA
ATOM     52  C   UNL     1     -23.896   1.884  15.572  0.00  0.00    +0.000 C 
ATOM     53  C   UNL     1     -24.190   0.434  15.812  0.00  0.00    +0.000 C 
ENDBRANCH  50  52
ENDBRANCH  17  50
BRANCH   7  54
ATOM     54  O   UNL     1     -23.598   0.998   9.416  0.00  0.00    +0.000 OA
BRANCH  54  56
ATOM     55  O   UNL     1     -22.877   1.296   7.565  0.00  0.00    +0.000 OA
ATOM     56  C   UNL     1     -23.445   0.404   8.186  0.00  0.00    +0.000 C 
BRANCH  56  57
ATOM     57  C   UNL     1     -24.276  -1.244   7.676  0.00  0.00    +0.000 A 
ATOM     58  C   UNL     1     -25.530  -1.761   8.220  0.00  0.00    +0.000 A 
ATOM     59  C   UNL     1     -23.882  -2.126   6.625  0.00  0.00    +0.000 A 
ATOM     60  C   UNL     1     -26.238  -2.913   7.797  0.00  0.00    +0.000 A 
ATOM     61  C   UNL     1     -24.578  -3.288   6.187  0.00  0.00    +0.000 A 
ATOM     62  C   UNL     1     -25.759  -3.682   6.769  0.00  0.00    +0.000 A 
ENDBRANCH  56  57
ENDBRANCH  54  56
ENDBRANCH   7  54
BRANCH   4  63
ATOM     63  O   UNL     1     -26.205   1.336   7.568  0.00  0.00    +0.000 OA
BRANCH  63  65
ATOM     64  O   UNL     1     -26.024   0.686   5.437  0.00  0.00    +0.000 OA
ATOM     65  C   UNL     1     -26.744   0.882   6.414  0.00  0.00    +0.000 C 
ATOM     66  C   UNL     1     -28.228   0.737   6.303  0.00  0.00    +0.000 C 
ENDBRANCH  63  65
ENDBRANCH   4  63
TORSDOF 17
ENDMDL
MODEL 3
REMARK VINA RESULT:      -5.9     18.662     23.256
REMARK  Name = 
REMARK  23 active torsions:
REMARK  status: ('A' for Active; 'I' for Inactive)
REMARK    1  A    between atoms: O_2  and  C_17
REMARK    2  A    between atoms: O_2  and  C_36
REMARK    3  A    between atoms: O_3  and  C_20
REMARK    4  A    between atoms: O_3  and  C_37
REMARK    5  A    between atoms: O_4  and  C_21
REMARK    6  A    between atoms: O_5  and  C_22
REMARK    7  A    between atoms: O_6  and  C_30
REMARK    8  A    between atoms: O_6  and  C_39
REMARK    9  A    between atoms: O_8  and  C_31
REMARK   10  A    between atoms: O_8  and  C_40
REMARK   11  A    between atoms: O_13  and  C_42
REMARK   12  A    between atoms: N_15  and  C_46
REMARK   13  A    between atoms: C_18  and  C_29
REMARK   14  A    between atoms: C_24  and  C_33
REMARK   15  A    between atoms: C_24  and  C_34
REMARK   16  A    between atoms: C_32  and  C_35
REMARK   17  A    between atoms: C_36  and  C_38
REMARK   18  A    between atoms: C_37  and  C_41
REMARK   19  A    between atoms: C_39  and  C_43
REMARK   20  A    between atoms: C_40  and  C_42
REMARK   21  A    between atoms: C_42  and  C_46
REMARK   22  A    between atoms: C_46  and  C_50
REMARK   23  A    between atoms: C_53  and  C_56
REMARK                            x       y       z     vdW  Elec       q    Type
REMARK                         _______ _______ _______ _____ _____    ______ ____
ROOT
ATOM      1  O   UNL     1      -7.958  -2.726  32.498  0.00  0.00    +0.000 OA
ATOM      2  O   UNL     1     -13.630  -5.713  30.665  0.00  0.00    +0.000 OA
ATOM      3  C   UNL     1      -9.317  -5.138  30.455  0.00  0.00    +0.000 C 
ATOM      4  C   UNL     1      -8.560  -3.811  30.754  0.00  0.00    +0.000 C 
ATOM      5  C   UNL     1     -11.167  -4.720  30.403  0.00  0.00    +0.000 C 
ATOM      6  C   UNL     1      -9.082  -3.611  32.235  0.00  0.00    +0.000 C 
ATOM      7  C   UNL     1      -8.489  -6.125  29.107  0.00  0.00    +0.000 C 
ATOM      8  C   UNL     1      -8.692  -7.714  28.095  0.00  0.00    +0.000 C 
ATOM      9  C   UNL     1     -11.476  -4.148  31.850  0.00  0.00    +0.000 C 
ATOM     10  C   UNL     1     -10.484  -3.065  32.373  0.00  0.00    +0.000 C 
ATOM     11  C   UNL     1     -10.104  -8.780  27.981  0.00  0.00    +0.000 C 
ATOM     12  C   UNL     1      -7.208  -3.559  31.532  0.00  0.00    +0.000 C 
ATOM     13  C   UNL     1     -12.590  -5.881  29.994  0.00  0.00    +0.000 C 
ATOM     14  C   UNL     1      -8.559  -7.275  26.565  0.00  0.00    +0.000 C 
ATOM     15  C   UNL     1     -11.430  -7.973  27.572  0.00  0.00    +0.000 C 
ATOM     16  C   UNL     1     -11.486  -3.485  29.461  0.00  0.00    +0.000 C 
ATOM     17  C   UNL     1     -12.655  -7.304  28.705  0.00  0.00    +0.000 C 
ATOM     18  C   UNL     1      -9.894  -7.001  25.735  0.00  0.00    +0.000 C 
ATOM     19  C   UNL     1     -11.297  -7.372  26.342  0.00  0.00    +0.000 C 
ATOM     20  C   UNL     1      -9.793  -9.819  26.790  0.00  0.00    +0.000 C 
ATOM     21  C   UNL     1     -10.318  -9.882  29.069  0.00  0.00    +0.000 C 
ATOM     22  C   UNL     1     -12.467  -6.775  25.601  0.00  0.00    +0.000 C 
ENDROOT
BRANCH   9  23
ATOM     23  O   UNL     1     -11.451  -5.222  32.790  0.00  0.00    +0.000 OA
ATOM     24  H   UNL     1     -11.570  -4.818  33.673  0.00  0.00    +0.000 HD
ENDBRANCH   9  23
BRANCH   8  25
ATOM     25  O   UNL     1      -7.533  -8.514  28.396  0.00  0.00    +0.000 OA
ATOM     26  H   UNL     1      -7.068  -8.717  27.565  0.00  0.00    +0.000 HD
ENDBRANCH   8  25
BRANCH  18  27
ATOM     27  O   UNL     1      -9.944  -5.579  25.422  0.00  0.00    +0.000 OA
BRANCH  27  29
ATOM     28  O   UNL     1      -8.352  -4.921  23.954  0.00  0.00    +0.000 OA
ATOM     29  C   UNL     1      -9.522  -5.207  24.186  0.00  0.00    +0.000 C 
BRANCH  29  30
ATOM     30  C   UNL     1     -10.646  -5.021  23.161  0.00  0.00    +0.000 C 
BRANCH  30  31
ATOM     31  O   UNL     1     -10.603  -5.908  22.038  0.00  0.00    +0.000 OA
ATOM     32  H   UNL     1     -10.932  -6.768  22.360  0.00  0.00    +0.000 HD
ENDBRANCH  30  31
BRANCH  30  33
ATOM     33  C   UNL     1     -10.627  -3.541  22.688  0.00  0.00    +0.000 C 
BRANCH  33  34
ATOM     34  C   UNL     1     -11.755  -2.755  23.340  0.00  0.00    +0.000 A 
ATOM     35  C   UNL     1     -11.928  -1.397  23.017  0.00  0.00    +0.000 A 
ATOM     36  C   UNL     1     -12.617  -3.334  24.285  0.00  0.00    +0.000 A 
ATOM     37  C   UNL     1     -12.945  -0.647  23.608  0.00  0.00    +0.000 A 
ATOM     38  C   UNL     1     -13.635  -2.582  24.874  0.00  0.00    +0.000 A 
ATOM     39  C   UNL     1     -13.800  -1.240  24.535  0.00  0.00    +0.000 A 
ENDBRANCH  33  34
BRANCH  33  41
ATOM     40  O   UNL     1      -9.826  -3.182  19.179  0.00  0.00    +0.000 OA
ATOM     41  N   UNL     1     -10.714  -3.470  21.223  0.00  0.00    +0.000 N 
ATOM     42  C   UNL     1      -9.907  -2.803  20.344  0.00  0.00    +0.000 C 
ATOM     43  H   UNL     1     -11.259  -4.213  20.794  0.00  0.00    +0.000 HD
BRANCH  42  44
ATOM     44  C   UNL     1      -9.091  -1.653  20.797  0.00  0.00    +0.000 A 
ATOM     45  C   UNL     1      -7.980  -1.830  21.627  0.00  0.00    +0.000 A 
ATOM     46  C   UNL     1      -9.496  -0.363  20.437  0.00  0.00    +0.000 A 
ATOM     47  C   UNL     1      -7.240  -0.722  22.043  0.00  0.00    +0.000 A 
ATOM     48  C   UNL     1      -8.757   0.743  20.856  0.00  0.00    +0.000 A 
ATOM     49  C   UNL     1      -7.625   0.561  21.651  0.00  0.00    +0.000 A 
ENDBRANCH  42  44
ENDBRANCH  33  41
ENDBRANCH  30  33
ENDBRANCH  29  30
ENDBRANCH  27  29
ENDBRANCH  18  27
BRANCH  17  50
ATOM     50  O   UNL     1     -13.325  -8.479  29.211  0.00  0.00    +0.000 OA
BRANCH  50  52
ATOM     51  O   UNL     1     -15.110  -9.823  29.325  0.00  0.00    +0.000 OA
ATOM     52  C   UNL     1     -14.612  -8.775  28.925  0.00  0.00    +0.000 C 
ATOM     53  C   UNL     1     -15.369  -7.832  28.038  0.00  0.00    +0.000 C 
ENDBRANCH  50  52
ENDBRANCH  17  50
BRANCH   7  54
ATOM     54  O   UNL     1      -9.329  -5.533  28.285  0.00  0.00    +0.000 OA
BRANCH  54  56
ATOM     55  O   UNL     1      -7.338  -5.271  28.306  0.00  0.00    +0.000 OA
ATOM     56  C   UNL     1      -8.316  -4.755  27.776  0.00  0.00    +0.000 C 
BRANCH  56  57
ATOM     57  C   UNL     1      -8.592  -3.134  26.798  0.00  0.00    +0.000 A 
ATOM     58  C   UNL     1      -9.865  -2.425  26.679  0.00  0.00    +0.000 A 
ATOM     59  C   UNL     1      -7.602  -2.321  26.166  0.00  0.00    +0.000 A 
ATOM     60  C   UNL     1     -10.093  -1.170  26.063  0.00  0.00    +0.000 A 
ATOM     61  C   UNL     1      -7.812  -1.059  25.541  0.00  0.00    +0.000 A 
ATOM     62  C   UNL     1      -9.057  -0.479  25.491  0.00  0.00    +0.000 A 
ENDBRANCH  56  57
ENDBRANCH  54  56
ENDBRANCH   7  54
BRANCH   4  63
ATOM     63  O   UNL     1      -8.929  -2.750  29.843  0.00  0.00    +0.000 OA
BRANCH  63  65
ATOM     64  O   UNL     1      -7.123  -1.497  29.433  0.00  0.00    +0.000 OA
ATOM     65  C   UNL     1      -8.305  -1.553  29.767  0.00  0.00    +0.000 C 
ATOM     66  C   UNL     1      -9.029  -0.319  30.205  0.00  0.00    +0.000 C 
ENDBRANCH  63  65
ENDBRANCH   4  63
TORSDOF 17
ENDMDL
MODEL 4
REMARK VINA RESULT:      -5.8     17.539     21.802
REMARK  Name = 
REMARK  23 active torsions:
REMARK  status: ('A' for Active; 'I' for Inactive)
REMARK    1  A    between atoms: O_2  and  C_17
REMARK    2  A    between atoms: O_2  and  C_36
REMARK    3  A    between atoms: O_3  and  C_20
REMARK    4  A    between atoms: O_3  and  C_37
REMARK    5  A    between atoms: O_4  and  C_21
REMARK    6  A    between atoms: O_5  and  C_22
REMARK    7  A    between atoms: O_6  and  C_30
REMARK    8  A    between atoms: O_6  and  C_39
REMARK    9  A    between atoms: O_8  and  C_31
REMARK   10  A    between atoms: O_8  and  C_40
REMARK   11  A    between atoms: O_13  and  C_42
REMARK   12  A    between atoms: N_15  and  C_46
REMARK   13  A    between atoms: C_18  and  C_29
REMARK   14  A    between atoms: C_24  and  C_33
REMARK   15  A    between atoms: C_24  and  C_34
REMARK   16  A    between atoms: C_32  and  C_35
REMARK   17  A    between atoms: C_36  and  C_38
REMARK   18  A    between atoms: C_37  and  C_41
REMARK   19  A    between atoms: C_39  and  C_43
REMARK   20  A    between atoms: C_40  and  C_42
REMARK   21  A    between atoms: C_42  and  C_46
REMARK   22  A    between atoms: C_46  and  C_50
REMARK   23  A    between atoms: C_53  and  C_56
REMARK                            x       y       z     vdW  Elec       q    Type
REMARK                         _______ _______ _______ _____ _____    ______ ____
ROOT
ATOM      1  O   UNL     1     -16.313  -1.323  29.140  0.00  0.00    +0.000 OA
ATOM      2  O   UNL     1     -14.688  -7.559  27.430  0.00  0.00    +0.000 OA
ATOM      3  C   UNL     1     -13.728  -3.584  28.931  0.00  0.00    +0.000 C 
ATOM      4  C   UNL     1     -14.479  -2.269  28.572  0.00  0.00    +0.000 C 
ATOM      5  C   UNL     1     -14.375  -4.930  27.761  0.00  0.00    +0.000 C 
ATOM      6  C   UNL     1     -15.917  -2.720  29.055  0.00  0.00    +0.000 C 
ATOM      7  C   UNL     1     -11.904  -3.296  29.193  0.00  0.00    +0.000 C 
ATOM      8  C   UNL     1     -10.296  -4.224  29.573  0.00  0.00    +0.000 C 
ATOM      9  C   UNL     1     -15.928  -5.002  28.076  0.00  0.00    +0.000 C 
ATOM     10  C   UNL     1     -16.672  -3.634  28.117  0.00  0.00    +0.000 C 
ATOM     11  C   UNL     1      -9.999  -5.972  29.562  0.00  0.00    +0.000 C 
ATOM     12  C   UNL     1     -14.900  -1.050  29.484  0.00  0.00    +0.000 C 
ATOM     13  C   UNL     1     -13.791  -6.714  27.637  0.00  0.00    +0.000 C 
ATOM     14  C   UNL     1      -9.254  -3.764  28.453  0.00  0.00    +0.000 C 
ATOM     15  C   UNL     1     -10.429  -6.642  28.167  0.00  0.00    +0.000 C 
ATOM     16  C   UNL     1     -14.344  -4.480  26.241  0.00  0.00    +0.000 C 
ATOM     17  C   UNL     1     -12.011  -7.416  27.808  0.00  0.00    +0.000 C 
ATOM     18  C   UNL     1      -9.064  -4.689  27.167  0.00  0.00    +0.000 C 
ATOM     19  C   UNL     1      -9.715  -6.119  27.114  0.00  0.00    +0.000 C 
ATOM     20  C   UNL     1      -8.406  -6.161  29.708  0.00  0.00    +0.000 C 
ATOM     21  C   UNL     1     -10.353  -6.814  30.830  0.00  0.00    +0.000 C 
ATOM     22  C   UNL     1      -9.727  -6.742  25.740  0.00  0.00    +0.000 C 
ENDROOT
BRANCH   9  23
ATOM     23  O   UNL     1     -16.116  -5.616  29.350  0.00  0.00    +0.000 OA
ATOM     24  H   UNL     1     -16.072  -6.582  29.200  0.00  0.00    +0.000 HD
ENDBRANCH   9  23
BRANCH   8  25
ATOM     25  O   UNL     1      -9.824  -3.684  30.821  0.00  0.00    +0.000 OA
ATOM     26  H   UNL     1      -9.522  -4.417  31.386  0.00  0.00    +0.000 HD
ENDBRANCH   8  25
BRANCH  18  27
ATOM     27  O   UNL     1      -9.574  -3.961  26.011  0.00  0.00    +0.000 OA
BRANCH  27  29
ATOM     28  O   UNL     1      -7.997  -2.407  25.544  0.00  0.00    +0.000 OA
ATOM     29  C   UNL     1      -8.656  -3.382  25.196  0.00  0.00    +0.000 C 
BRANCH  29  30
ATOM     30  C   UNL     1      -8.631  -3.940  23.770  0.00  0.00    +0.000 C 
BRANCH  30  31
ATOM     31  O   UNL     1      -7.594  -4.891  23.503  0.00  0.00    +0.000 OA
ATOM     32  H   UNL     1      -6.753  -4.403  23.580  0.00  0.00    +0.000 HD
ENDBRANCH  30  31
BRANCH  30  33
ATOM     33  C   UNL     1      -8.539  -2.742  22.784  0.00  0.00    +0.000 C 
BRANCH  33  34
ATOM     34  C   UNL     1      -9.365  -3.011  21.534  0.00  0.00    +0.000 A 
ATOM     35  C   UNL     1      -9.307  -2.106  20.460  0.00  0.00    +0.000 A 
ATOM     36  C   UNL     1     -10.215  -4.124  21.429  0.00  0.00    +0.000 A 
ATOM     37  C   UNL     1     -10.063  -2.319  19.307  0.00  0.00    +0.000 A 
ATOM     38  C   UNL     1     -10.968  -4.335  20.274  0.00  0.00    +0.000 A 
ATOM     39  C   UNL     1     -10.891  -3.435  19.212  0.00  0.00    +0.000 A 
ENDBRANCH  33  34
BRANCH  33  41
ATOM     40  O   UNL     1      -5.190  -1.378  22.704  0.00  0.00    +0.000 OA
ATOM     41  N   UNL     1      -7.137  -2.468  22.440  0.00  0.00    +0.000 N 
ATOM     42  C   UNL     1      -6.414  -1.322  22.624  0.00  0.00    +0.000 C 
ATOM     43  H   UNL     1      -6.564  -3.295  22.306  0.00  0.00    +0.000 HD
BRANCH  42  44
ATOM     44  C   UNL     1      -7.099  -0.018  22.775  0.00  0.00    +0.000 A 
ATOM     45  C   UNL     1      -7.627   0.660  21.672  0.00  0.00    +0.000 A 
ATOM     46  C   UNL     1      -7.148   0.569  24.045  0.00  0.00    +0.000 A 
ATOM     47  C   UNL     1      -8.257   1.893  21.851  0.00  0.00    +0.000 A 
ATOM     48  C   UNL     1      -7.775   1.802  24.220  0.00  0.00    +0.000 A 
ATOM     49  C   UNL     1      -8.337   2.458  23.124  0.00  0.00    +0.000 A 
ENDBRANCH  42  44
ENDBRANCH  33  41
ENDBRANCH  30  33
ENDBRANCH  29  30
ENDBRANCH  27  29
ENDBRANCH  18  27
BRANCH  17  50
ATOM     50  O   UNL     1     -11.970  -8.639  28.575  0.00  0.00    +0.000 OA
BRANCH  50  52
ATOM     51  O   UNL     1     -12.928 -10.617  28.150  0.00  0.00    +0.000 OA
ATOM     52  C   UNL     1     -11.967  -9.866  28.008  0.00  0.00    +0.000 C 
ATOM     53  C   UNL     1     -10.726 -10.302  27.287  0.00  0.00    +0.000 C 
ENDBRANCH  50  52
ENDBRANCH  17  50
BRANCH   7  54
ATOM     54  O   UNL     1     -11.763  -3.635  27.929  0.00  0.00    +0.000 OA
BRANCH  54  56
ATOM     55  O   UNL     1     -11.444  -1.807  28.699  0.00  0.00    +0.000 OA
ATOM     56  C   UNL     1     -11.460  -2.337  27.593  0.00  0.00    +0.000 C 
BRANCH  56  57
ATOM     57  C   UNL     1     -11.451  -1.664  25.801  0.00  0.00    +0.000 A 
ATOM     58  C   UNL     1     -12.128  -2.282  24.664  0.00  0.00    +0.000 A 
ATOM     59  C   UNL     1     -10.911  -0.424  25.342  0.00  0.00    +0.000 A 
ATOM     60  C   UNL     1     -12.243  -1.765  23.349  0.00  0.00    +0.000 A 
ATOM     61  C   UNL     1     -11.014   0.111  24.027  0.00  0.00    +0.000 A 
ATOM     62  C   UNL     1     -11.683  -0.556  23.029  0.00  0.00    +0.000 A 
ENDBRANCH  56  57
ENDBRANCH  54  56
ENDBRANCH   7  54
BRANCH   4  63
ATOM     63  O   UNL     1     -14.394  -1.956  27.162  0.00  0.00    +0.000 OA
BRANCH  63  65
ATOM     64  O   UNL     1     -14.004   0.233  26.924  0.00  0.00    +0.000 OA
ATOM     65  C   UNL     1     -14.682  -0.748  26.625  0.00  0.00    +0.000 C 
ATOM     66  C   UNL     1     -15.896  -0.597  25.766  0.00  0.00    +0.000 C 
ENDBRANCH  63  65
ENDBRANCH   4  63
TORSDOF 17
ENDMDL
MODEL 5
REMARK VINA RESULT:      -5.8     16.494     21.164
REMARK  Name = 
REMARK  23 active torsions:
REMARK  status: ('A' for Active; 'I' for Inactive)
REMARK    1  A    between atoms: O_2  and  C_17
REMARK    2  A    between atoms: O_2  and  C_36
REMARK    3  A    between atoms: O_3  and  C_20
REMARK    4  A    between atoms: O_3  and  C_37
REMARK    5  A    between atoms: O_4  and  C_21
REMARK    6  A    between atoms: O_5  and  C_22
REMARK    7  A    between atoms: O_6  and  C_30
REMARK    8  A    between atoms: O_6  and  C_39
REMARK    9  A    between atoms: O_8  and  C_31
REMARK   10  A    between atoms: O_8  and  C_40
REMARK   11  A    between atoms: O_13  and  C_42
REMARK   12  A    between atoms: N_15  and  C_46
REMARK   13  A    between atoms: C_18  and  C_29
REMARK   14  A    between atoms: C_24  and  C_33
REMARK   15  A    between atoms: C_24  and  C_34
REMARK   16  A    between atoms: C_32  and  C_35
REMARK   17  A    between atoms: C_36  and  C_38
REMARK   18  A    between atoms: C_37  and  C_41
REMARK   19  A    between atoms: C_39  and  C_43
REMARK   20  A    between atoms: C_40  and  C_42
REMARK   21  A    between atoms: C_42  and  C_46
REMARK   22  A    between atoms: C_46  and  C_50
REMARK   23  A    between atoms: C_53  and  C_56
REMARK                            x       y       z     vdW  Elec       q    Type
REMARK                         _______ _______ _______ _____ _____    ______ ____
ROOT
ATOM      1  O   UNL     1     -18.451 -12.862   2.223  0.00  0.00    +0.000 OA
ATOM      2  O   UNL     1     -17.794 -19.382   3.453  0.00  0.00    +0.000 OA
ATOM      3  C   UNL     1     -17.428 -15.182   4.549  0.00  0.00    +0.000 C 
ATOM      4  C   UNL     1     -17.225 -13.997   3.561  0.00  0.00    +0.000 C 
ATOM      5  C   UNL     1     -17.208 -16.780   3.552  0.00  0.00    +0.000 C 
ATOM      6  C   UNL     1     -18.522 -14.239   2.687  0.00  0.00    +0.000 C 
ATOM      7  C   UNL     1     -16.547 -14.898   6.169  0.00  0.00    +0.000 C 
ATOM      8  C   UNL     1     -16.191 -15.737   7.829  0.00  0.00    +0.000 C 
ATOM      9  C   UNL     1     -18.339 -16.703   2.443  0.00  0.00    +0.000 C 
ATOM     10  C   UNL     1     -18.435 -15.353   1.669  0.00  0.00    +0.000 C 
ATOM     11  C   UNL     1     -16.464 -17.426   8.297  0.00  0.00    +0.000 C 
ATOM     12  C   UNL     1     -17.868 -12.554   3.548  0.00  0.00    +0.000 C 
ATOM     13  C   UNL     1     -17.242 -18.546   4.201  0.00  0.00    +0.000 C 
ATOM     14  C   UNL     1     -14.608 -15.653   8.028  0.00  0.00    +0.000 C 
ATOM     15  C   UNL     1     -15.773 -18.449   7.270  0.00  0.00    +0.000 C 
ATOM     16  C   UNL     1     -15.873 -16.784   2.696  0.00  0.00    +0.000 C 
ATOM     17  C   UNL     1     -16.567 -19.235   5.863  0.00  0.00    +0.000 C 
ATOM     18  C   UNL     1     -13.723 -16.912   7.608  0.00  0.00    +0.000 C 
ATOM     19  C   UNL     1     -14.409 -18.274   7.224  0.00  0.00    +0.000 C 
ATOM     20  C   UNL     1     -15.743 -17.623   9.723  0.00  0.00    +0.000 C 
ATOM     21  C   UNL     1     -17.880 -17.858   8.799  0.00  0.00    +0.000 C 
ATOM     22  C   UNL     1     -13.489 -19.262   6.550  0.00  0.00    +0.000 C 
ENDROOT
BRANCH   9  23
ATOM     23  O   UNL     1     -19.608 -16.921   3.057  0.00  0.00    +0.000 OA
ATOM     24  H   UNL     1     -20.268 -16.915   2.334  0.00  0.00    +0.000 HD
ENDBRANCH   9  23
BRANCH   8  25
ATOM     25  O   UNL     1     -16.777 -14.881   8.829  0.00  0.00    +0.000 OA
ATOM     26  H   UNL     1     -16.472 -13.969   8.677  0.00  0.00    +0.000 HD
ENDBRANCH   8  25
BRANCH  18  27
ATOM     27  O   UNL     1     -12.906 -16.526   6.464  0.00  0.00    +0.000 OA
BRANCH  27  29
ATOM     28  O   UNL     1     -10.860 -17.171   5.744  0.00  0.00    +0.000 OA
ATOM     29  C   UNL     1     -11.560 -16.644   6.602  0.00  0.00    +0.000 C 
BRANCH  29  30
ATOM     30  C   UNL     1     -11.023 -16.216   7.971  0.00  0.00    +0.000 C 
BRANCH  30  31
ATOM     31  O   UNL     1      -9.924 -15.297   7.938  0.00  0.00    +0.000 OA
ATOM     32  H   UNL     1     -10.313 -14.407   8.025  0.00  0.00    +0.000 HD
ENDBRANCH  30  31
BRANCH  30  33
ATOM     33  C   UNL     1     -10.639 -17.497   8.761  0.00  0.00    +0.000 C 
BRANCH  33  34
ATOM     34  C   UNL     1     -11.289 -17.495  10.137  0.00  0.00    +0.000 A 
ATOM     35  C   UNL     1     -11.934 -18.656  10.599  0.00  0.00    +0.000 A 
ATOM     36  C   UNL     1     -11.295 -16.354  10.956  0.00  0.00    +0.000 A 
ATOM     37  C   UNL     1     -12.551 -18.680  11.850  0.00  0.00    +0.000 A 
ATOM     38  C   UNL     1     -11.911 -16.381  12.208  0.00  0.00    +0.000 A 
ATOM     39  C   UNL     1     -12.536 -17.543  12.656  0.00  0.00    +0.000 A 
ENDBRANCH  33  34
BRANCH  33  41
ATOM     40  O   UNL     1      -7.218 -18.631   8.454  0.00  0.00    +0.000 OA
ATOM     41  N   UNL     1      -9.179 -17.614   8.869  0.00  0.00    +0.000 N 
ATOM     42  C   UNL     1      -8.395 -18.733   8.785  0.00  0.00    +0.000 C 
ATOM     43  H   UNL     1      -8.671 -16.749   8.713  0.00  0.00    +0.000 HD
BRANCH  42  44
ATOM     44  C   UNL     1      -8.970 -20.072   9.045  0.00  0.00    +0.000 A 
ATOM     45  C   UNL     1      -9.687 -20.761   8.062  0.00  0.00    +0.000 A 
ATOM     46  C   UNL     1      -8.844 -20.616  10.329  0.00  0.00    +0.000 A 
ATOM     47  C   UNL     1     -10.224 -22.019   8.347  0.00  0.00    +0.000 A 
ATOM     48  C   UNL     1      -9.383 -21.871  10.611  0.00  0.00    +0.000 A 
ATOM     49  C   UNL     1     -10.064 -22.575   9.616  0.00  0.00    +0.000 A 
ENDBRANCH  42  44
ENDBRANCH  33  41
ENDBRANCH  30  33
ENDBRANCH  29  30
ENDBRANCH  27  29
ENDBRANCH  18  27
BRANCH  17  50
ATOM     50  O   UNL     1     -17.465 -20.189   6.470  0.00  0.00    +0.000 OA
BRANCH  50  52
ATOM     51  O   UNL     1     -17.855 -22.213   5.598  0.00  0.00    +0.000 OA
ATOM     52  C   UNL     1     -17.262 -21.525   6.424  0.00  0.00    +0.000 C 
ATOM     53  C   UNL     1     -16.370 -22.136   7.463  0.00  0.00    +0.000 C 
ENDBRANCH  50  52
ENDBRANCH  17  50
BRANCH   7  54
ATOM     54  O   UNL     1     -15.556 -15.588   5.644  0.00  0.00    +0.000 OA
BRANCH  54  56
ATOM     55  O   UNL     1     -15.519 -13.631   6.098  0.00  0.00    +0.000 OA
ATOM     56  C   UNL     1     -14.774 -14.459   5.585  0.00  0.00    +0.000 C 
BRANCH  56  57
ATOM     57  C   UNL     1     -13.131 -14.338   4.610  0.00  0.00    +0.000 A 
ATOM     58  C   UNL     1     -11.980 -13.525   4.993  0.00  0.00    +0.000 A 
ATOM     59  C   UNL     1     -12.741 -15.102   3.469  0.00  0.00    +0.000 A 
ATOM     60  C   UNL     1     -10.708 -13.490   4.368  0.00  0.00    +0.000 A 
ATOM     61  C   UNL     1     -11.471 -15.080   2.826  0.00  0.00    +0.000 A 
ATOM     62  C   UNL     1     -10.451 -14.276   3.276  0.00  0.00    +0.000 A 
ENDBRANCH  56  57
ENDBRANCH  54  56
ENDBRANCH   7  54
BRANCH   4  63
ATOM     63  O   UNL     1     -15.982 -14.101   2.826  0.00  0.00    +0.000 OA
BRANCH  63  65
ATOM     64  O   UNL     1     -14.903 -12.143   2.838  0.00  0.00    +0.000 OA
ATOM     65  C   UNL     1     -15.379 -13.073   2.189  0.00  0.00    +0.000 C 
ATOM     66  C   UNL     1     -15.402 -13.020   0.695  0.00  0.00    +0.000 C 
ENDBRANCH  63  65
ENDBRANCH   4  63
TORSDOF 17
ENDMDL
MODEL 6
REMARK VINA RESULT:      -5.7     17.528     21.630
REMARK  Name = 
REMARK  23 active torsions:
REMARK  status: ('A' for Active; 'I' for Inactive)
REMARK    1  A    between atoms: O_2  and  C_17
REMARK    2  A    between atoms: O_2  and  C_36
REMARK    3  A    between atoms: O_3  and  C_20
REMARK    4  A    between atoms: O_3  and  C_37
REMARK    5  A    between atoms: O_4  and  C_21
REMARK    6  A    between atoms: O_5  and  C_22
REMARK    7  A    between atoms: O_6  and  C_30
REMARK    8  A    between atoms: O_6  and  C_39
REMARK    9  A    between atoms: O_8  and  C_31
REMARK   10  A    between atoms: O_8  and  C_40
REMARK   11  A    between atoms: O_13  and  C_42
REMARK   12  A    between atoms: N_15  and  C_46
REMARK   13  A    between atoms: C_18  and  C_29
REMARK   14  A    between atoms: C_24  and  C_33
REMARK   15  A    between atoms: C_24  and  C_34
REMARK   16  A    between atoms: C_32  and  C_35
REMARK   17  A    between atoms: C_36  and  C_38
REMARK   18  A    between atoms: C_37  and  C_41
REMARK   19  A    between atoms: C_39  and  C_43
REMARK   20  A    between atoms: C_40  and  C_42
REMARK   21  A    between atoms: C_42  and  C_46
REMARK   22  A    between atoms: C_46  and  C_50
REMARK   23  A    between atoms: C_53  and  C_56
REMARK                            x       y       z     vdW  Elec       q    Type
REMARK                         _______ _______ _______ _____ _____    ______ ____
ROOT
ATOM      1  O   UNL     1     -16.700  -0.854  27.064  0.00  0.00    +0.000 OA
ATOM      2  O   UNL     1     -11.633   0.859  23.083  0.00  0.00    +0.000 OA
ATOM      3  C   UNL     1     -13.997  -2.050  25.302  0.00  0.00    +0.000 C 
ATOM      4  C   UNL     1     -14.820  -1.762  26.592  0.00  0.00    +0.000 C 
ATOM      5  C   UNL     1     -12.941  -0.511  24.963  0.00  0.00    +0.000 C 
ATOM      6  C   UNL     1     -15.745  -0.626  25.991  0.00  0.00    +0.000 C 
ATOM      7  C   UNL     1     -13.270  -3.767  25.308  0.00  0.00    +0.000 C 
ATOM      8  C   UNL     1     -12.159  -4.910  24.285  0.00  0.00    +0.000 C 
ATOM      9  C   UNL     1     -14.001   0.652  24.769  0.00  0.00    +0.000 C 
ATOM     10  C   UNL     1     -15.112   0.740  25.859  0.00  0.00    +0.000 C 
ATOM     11  C   UNL     1     -11.140  -4.504  22.890  0.00  0.00    +0.000 C 
ATOM     12  C   UNL     1     -16.254  -2.264  27.023  0.00  0.00    +0.000 C 
ATOM     13  C   UNL     1     -11.666  -0.279  23.599  0.00  0.00    +0.000 C 
ATOM     14  C   UNL     1     -11.040  -5.445  25.292  0.00  0.00    +0.000 C 
ATOM     15  C   UNL     1     -10.135  -3.295  23.217  0.00  0.00    +0.000 C 
ATOM     16  C   UNL     1     -12.128  -0.039  26.239  0.00  0.00    +0.000 C 
ATOM     17  C   UNL     1     -10.426  -1.555  22.874  0.00  0.00    +0.000 C 
ATOM     18  C   UNL     1      -9.631  -4.698  25.328  0.00  0.00    +0.000 C 
ATOM     19  C   UNL     1      -9.279  -3.613  24.245  0.00  0.00    +0.000 C 
ATOM     20  C   UNL     1     -10.237  -5.805  22.595  0.00  0.00    +0.000 C 
ATOM     21  C   UNL     1     -11.780  -4.457  21.466  0.00  0.00    +0.000 C 
ATOM     22  C   UNL     1      -8.071  -2.774  24.582  0.00  0.00    +0.000 C 
ENDROOT
BRANCH   9  23
ATOM     23  O   UNL     1     -14.661   0.476  23.516  0.00  0.00    +0.000 OA
ATOM     24  H   UNL     1     -14.263   1.125  22.901  0.00  0.00    +0.000 HD
ENDBRANCH   9  23
BRANCH   8  25
ATOM     25  O   UNL     1     -12.980  -6.042  23.942  0.00  0.00    +0.000 OA
ATOM     26  H   UNL     1     -12.438  -6.849  23.995  0.00  0.00    +0.000 HD
ENDBRANCH   8  25
BRANCH  18  27
ATOM     27  O   UNL     1      -9.503  -4.043  26.624  0.00  0.00    +0.000 OA
BRANCH  27  29
ATOM     28  O   UNL     1      -7.619  -5.151  27.209  0.00  0.00    +0.000 OA
ATOM     29  C   UNL     1      -8.682  -4.632  27.531  0.00  0.00    +0.000 C 
BRANCH  29  30
ATOM     30  C   UNL     1      -9.266  -4.733  28.944  0.00  0.00    +0.000 C 
BRANCH  30  31
ATOM     31  O   UNL     1      -8.347  -4.460  30.007  0.00  0.00    +0.000 OA
ATOM     32  H   UNL     1      -8.325  -5.265  30.559  0.00  0.00    +0.000 HD
ENDBRANCH  30  31
BRANCH  30  33
ATOM     33  C   UNL     1      -9.886  -6.148  29.109  0.00  0.00    +0.000 C 
BRANCH  33  34
ATOM     34  C   UNL     1     -11.050  -6.113  30.089  0.00  0.00    +0.000 A 
ATOM     35  C   UNL     1     -11.629  -7.321  30.518  0.00  0.00    +0.000 A 
ATOM     36  C   UNL     1     -11.592  -4.906  30.559  0.00  0.00    +0.000 A 
ATOM     37  C   UNL     1     -12.705  -7.320  31.406  0.00  0.00    +0.000 A 
ATOM     38  C   UNL     1     -12.668  -4.908  31.448  0.00  0.00    +0.000 A 
ATOM     39  C   UNL     1     -13.223  -6.114  31.873  0.00  0.00    +0.000 A 
ENDBRANCH  33  34
BRANCH  33  41
ATOM     40  O   UNL     1      -7.383  -8.759  29.166  0.00  0.00    +0.000 OA
ATOM     41  N   UNL     1      -8.863  -7.109  29.541  0.00  0.00    +0.000 N 
ATOM     42  C   UNL     1      -8.506  -8.302  28.973  0.00  0.00    +0.000 C 
ATOM     43  H   UNL     1      -8.157  -6.726  30.163  0.00  0.00    +0.000 HD
BRANCH  42  44
ATOM     44  C   UNL     1      -9.448  -9.023  28.088  0.00  0.00    +0.000 A 
ATOM     45  C   UNL     1      -9.552  -8.714  26.728  0.00  0.00    +0.000 A 
ATOM     46  C   UNL     1     -10.296  -9.983  28.653  0.00  0.00    +0.000 A 
ATOM     47  C   UNL     1     -10.459  -9.408  25.925  0.00  0.00    +0.000 A 
ATOM     48  C   UNL     1     -11.203 -10.673  27.850  0.00  0.00    +0.000 A 
ATOM     49  C   UNL     1     -11.276 -10.391  26.485  0.00  0.00    +0.000 A 
ENDBRANCH  42  44
ENDBRANCH  33  41
ENDBRANCH  30  33
ENDBRANCH  29  30
ENDBRANCH  27  29
ENDBRANCH  18  27
BRANCH  17  50
ATOM     50  O   UNL     1     -10.325  -1.472  21.436  0.00  0.00    +0.000 OA
BRANCH  50  52
ATOM     51  O   UNL     1      -8.161  -1.285  20.895  0.00  0.00    +0.000 OA
ATOM     52  C   UNL     1      -9.305  -0.850  20.802  0.00  0.00    +0.000 C 
ATOM     53  C   UNL     1      -9.607   0.422  20.068  0.00  0.00    +0.000 C 
ENDBRANCH  50  52
ENDBRANCH  17  50
BRANCH   7  54
ATOM     54  O   UNL     1     -12.185  -3.205  25.799  0.00  0.00    +0.000 OA
BRANCH  54  56
ATOM     55  O   UNL     1     -11.780  -2.936  27.748  0.00  0.00    +0.000 OA
ATOM     56  C   UNL     1     -12.499  -3.653  27.060  0.00  0.00    +0.000 C 
BRANCH  56  57
ATOM     57  C   UNL     1     -13.540  -5.219  27.418  0.00  0.00    +0.000 A 
ATOM     58  C   UNL     1     -13.081  -6.595  27.241  0.00  0.00    +0.000 A 
ATOM     59  C   UNL     1     -14.833  -5.284  28.019  0.00  0.00    +0.000 A 
ATOM     60  C   UNL     1     -13.772  -7.781  27.597  0.00  0.00    +0.000 A 
ATOM     61  C   UNL     1     -15.543  -6.464  28.382  0.00  0.00    +0.000 A 
ATOM     62  C   UNL     1     -15.013  -7.714  28.175  0.00  0.00    +0.000 A 
ENDBRANCH  56  57
ENDBRANCH  54  56
ENDBRANCH   7  54
BRANCH   4  63
ATOM     63  O   UNL     1     -13.984  -1.331  27.691  0.00  0.00    +0.000 OA
BRANCH  63  65
ATOM     64  O   UNL     1     -14.670   0.059  29.302  0.00  0.00    +0.000 OA
ATOM     65  C   UNL     1     -14.429  -1.093  28.946  0.00  0.00    +0.000 C 
ATOM     66  C   UNL     1     -14.511  -2.222  29.923  0.00  0.00    +0.000 C 
ENDBRANCH  63  65
ENDBRANCH   4  63
TORSDOF 17
ENDMDL
MODEL 7
REMARK VINA RESULT:      -5.7     17.848     22.232
REMARK  Name = 
REMARK  23 active torsions:
REMARK  status: ('A' for Active; 'I' for Inactive)
REMARK    1  A    between atoms: O_2  and  C_17
REMARK    2  A    between atoms: O_2  and  C_36
REMARK    3  A    between atoms: O_3  and  C_20
REMARK    4  A    between atoms: O_3  and  C_37
REMARK    5  A    between atoms: O_4  and  C_21
REMARK    6  A    between atoms: O_5  and  C_22
REMARK    7  A    between atoms: O_6  and  C_30
REMARK    8  A    between atoms: O_6  and  C_39
REMARK    9  A    between atoms: O_8  and  C_31
REMARK   10  A    between atoms: O_8  and  C_40
REMARK   11  A    between atoms: O_13  and  C_42
REMARK   12  A    between atoms: N_15  and  C_46
REMARK   13  A    between atoms: C_18  and  C_29
REMARK   14  A    between atoms: C_24  and  C_33
REMARK   15  A    between atoms: C_24  and  C_34
REMARK   16  A    between atoms: C_32  and  C_35
REMARK   17  A    between atoms: C_36  and  C_38
REMARK   18  A    between atoms: C_37  and  C_41
REMARK   19  A    between atoms: C_39  and  C_43
REMARK   20  A    between atoms: C_40  and  C_42
REMARK   21  A    between atoms: C_42  and  C_46
REMARK   22  A    between atoms: C_46  and  C_50
REMARK   23  A    between atoms: C_53  and  C_56
REMARK                            x       y       z     vdW  Elec       q    Type
REMARK                         _______ _______ _______ _____ _____    ______ ____
ROOT
ATOM      1  O   UNL     1     -15.211  -3.051  30.315  0.00  0.00    +0.000 OA
ATOM      2  O   UNL     1     -12.915  -9.131  28.826  0.00  0.00    +0.000 OA
ATOM      3  C   UNL     1     -12.395  -4.861  29.518  0.00  0.00    +0.000 C 
ATOM      4  C   UNL     1     -13.474  -3.763  29.287  0.00  0.00    +0.000 C 
ATOM      5  C   UNL     1     -13.068  -6.468  28.765  0.00  0.00    +0.000 C 
ATOM      6  C   UNL     1     -14.579  -4.359  30.252  0.00  0.00    +0.000 C 
ATOM      7  C   UNL     1     -10.677  -4.240  29.146  0.00  0.00    +0.000 C 
ATOM      8  C   UNL     1      -8.874  -4.817  29.080  0.00  0.00    +0.000 C 
ATOM      9  C   UNL     1     -14.407  -6.741  29.570  0.00  0.00    +0.000 C 
ATOM     10  C   UNL     1     -15.372  -5.525  29.708  0.00  0.00    +0.000 C 
ATOM     11  C   UNL     1      -8.238  -6.471  29.154  0.00  0.00    +0.000 C 
ATOM     12  C   UNL     1     -13.848  -2.498  30.155  0.00  0.00    +0.000 C 
ATOM     13  C   UNL     1     -12.192  -8.128  28.644  0.00  0.00    +0.000 C 
ATOM     14  C   UNL     1      -8.330  -4.381  27.642  0.00  0.00    +0.000 C 
ATOM     15  C   UNL     1      -8.915  -7.421  28.050  0.00  0.00    +0.000 C 
ATOM     16  C   UNL     1     -13.584  -6.273  27.279  0.00  0.00    +0.000 C 
ATOM     17  C   UNL     1     -10.336  -8.492  28.303  0.00  0.00    +0.000 C 
ATOM     18  C   UNL     1      -8.344  -5.460  26.467  0.00  0.00    +0.000 C 
ATOM     19  C   UNL     1      -8.671  -6.967  26.775  0.00  0.00    +0.000 C 
ATOM     20  C   UNL     1      -6.671  -6.370  28.797  0.00  0.00    +0.000 C 
ATOM     21  C   UNL     1      -8.018  -7.142  30.548  0.00  0.00    +0.000 C 
ATOM     22  C   UNL     1      -8.961  -7.799  25.550  0.00  0.00    +0.000 C 
ENDROOT
BRANCH   9  23
ATOM     23  O   UNL     1     -14.077  -7.161  30.893  0.00  0.00    +0.000 OA
ATOM     24  H   UNL     1     -13.175  -7.537  30.846  0.00  0.00    +0.000 HD
ENDBRANCH   9  23
BRANCH   8  25
ATOM     25  O   UNL     1      -8.174  -4.010  30.046  0.00  0.00    +0.000 OA
ATOM     26  H   UNL     1      -8.826  -3.510  30.568  0.00  0.00    +0.000 HD
ENDBRANCH   8  25
BRANCH  18  27
ATOM     27  O   UNL     1      -9.314  -5.024  25.469  0.00  0.00    +0.000 OA
BRANCH  27  29
ATOM     28  O   UNL     1      -7.689  -4.944  23.896  0.00  0.00    +0.000 OA
ATOM     29  C   UNL     1      -8.881  -4.951  24.184  0.00  0.00    +0.000 C 
BRANCH  29  30
ATOM     30  C   UNL     1      -9.990  -4.716  23.154  0.00  0.00    +0.000 C 
BRANCH  30  31
ATOM     31  O   UNL     1     -10.284  -5.832  22.305  0.00  0.00    +0.000 OA
ATOM     32  H   UNL     1      -9.463  -6.023  21.816  0.00  0.00    +0.000 HD
ENDBRANCH  30  31
BRANCH  30  33
ATOM     33  C   UNL     1      -9.605  -3.473  22.305  0.00  0.00    +0.000 C 
BRANCH  33  34
ATOM     34  C   UNL     1      -9.634  -3.806  20.820  0.00  0.00    +0.000 A 
ATOM     35  C   UNL     1     -10.643  -3.259  20.009  0.00  0.00    +0.000 A 
ATOM     36  C   UNL     1      -8.700  -4.675  20.233  0.00  0.00    +0.000 A 
ATOM     37  C   UNL     1     -10.704  -3.557  18.647  0.00  0.00    +0.000 A 
ATOM     38  C   UNL     1      -8.761  -4.970  18.871  0.00  0.00    +0.000 A 
ATOM     39  C   UNL     1      -9.761  -4.410  18.077  0.00  0.00    +0.000 A 
ENDBRANCH  33  34
BRANCH  33  41
ATOM     40  O   UNL     1      -6.930  -1.450  23.658  0.00  0.00    +0.000 OA
ATOM     41  N   UNL     1      -8.285  -2.968  22.705  0.00  0.00    +0.000 N 
ATOM     42  C   UNL     1      -7.886  -1.677  22.924  0.00  0.00    +0.000 C 
ATOM     43  H   UNL     1      -7.678  -3.660  23.133  0.00  0.00    +0.000 HD
BRANCH  42  44
ATOM     44  C   UNL     1      -8.629  -0.549  22.318  0.00  0.00    +0.000 A 
ATOM     45  C   UNL     1      -8.648  -0.347  20.935  0.00  0.00    +0.000 A 
ATOM     46  C   UNL     1      -9.263   0.366  23.167  0.00  0.00    +0.000 A 
ATOM     47  C   UNL     1      -9.351   0.733  20.400  0.00  0.00    +0.000 A 
ATOM     48  C   UNL     1      -9.962   1.447  22.630  0.00  0.00    +0.000 A 
ATOM     49  C   UNL     1     -10.014   1.623  21.246  0.00  0.00    +0.000 A 
ENDBRANCH  42  44
ENDBRANCH  33  41
ENDBRANCH  30  33
ENDBRANCH  29  30
ENDBRANCH  27  29
ENDBRANCH  18  27
BRANCH  17  50
ATOM     50  O   UNL     1      -9.818  -9.550  29.138  0.00  0.00    +0.000 OA
BRANCH  50  52
ATOM     51  O   UNL     1      -8.760 -11.516  29.295  0.00  0.00    +0.000 OA
ATOM     52  C   UNL     1      -9.517 -10.781  28.667  0.00  0.00    +0.000 C 
ATOM     53  C   UNL     1     -10.063 -11.172  27.327  0.00  0.00    +0.000 C 
ENDBRANCH  50  52
ENDBRANCH  17  50
BRANCH   7  54
ATOM     54  O   UNL     1     -10.852  -4.753  27.946  0.00  0.00    +0.000 OA
BRANCH  54  56
ATOM     55  O   UNL     1     -10.619  -2.800  28.356  0.00  0.00    +0.000 OA
ATOM     56  C   UNL     1     -10.942  -3.495  27.399  0.00  0.00    +0.000 C 
BRANCH  56  57
ATOM     57  C   UNL     1     -11.720  -3.119  25.691  0.00  0.00    +0.000 A 
ATOM     58  C   UNL     1     -12.660  -3.984  24.982  0.00  0.00    +0.000 A 
ATOM     59  C   UNL     1     -11.610  -1.913  24.934  0.00  0.00    +0.000 A 
ATOM     60  C   UNL     1     -13.345  -3.699  23.775  0.00  0.00    +0.000 A 
ATOM     61  C   UNL     1     -12.289  -1.609  23.719  0.00  0.00    +0.000 A 
ATOM     62  C   UNL     1     -13.160  -2.499  23.139  0.00  0.00    +0.000 A 
ENDBRANCH  56  57
ENDBRANCH  54  56
ENDBRANCH   7  54
BRANCH   4  63
ATOM     63  O   UNL     1     -13.879  -3.675  27.900  0.00  0.00    +0.000 OA
BRANCH  63  65
ATOM     64  O   UNL     1     -15.967  -3.293  27.199  0.00  0.00    +0.000 OA
ATOM     65  C   UNL     1     -14.844  -2.851  27.434  0.00  0.00    +0.000 C 
ATOM     66  C   UNL     1     -14.502  -1.435  27.098  0.00  0.00    +0.000 C 
ENDBRANCH  63  65
ENDBRANCH   4  63
TORSDOF 17
ENDMDL
MODEL 8
REMARK VINA RESULT:      -5.6      2.959      9.797
REMARK  Name = 
REMARK  23 active torsions:
REMARK  status: ('A' for Active; 'I' for Inactive)
REMARK    1  A    between atoms: O_2  and  C_17
REMARK    2  A    between atoms: O_2  and  C_36
REMARK    3  A    between atoms: O_3  and  C_20
REMARK    4  A    between atoms: O_3  and  C_37
REMARK    5  A    between atoms: O_4  and  C_21
REMARK    6  A    between atoms: O_5  and  C_22
REMARK    7  A    between atoms: O_6  and  C_30
REMARK    8  A    between atoms: O_6  and  C_39
REMARK    9  A    between atoms: O_8  and  C_31
REMARK   10  A    between atoms: O_8  and  C_40
REMARK   11  A    between atoms: O_13  and  C_42
REMARK   12  A    between atoms: N_15  and  C_46
REMARK   13  A    between atoms: C_18  and  C_29
REMARK   14  A    between atoms: C_24  and  C_33
REMARK   15  A    between atoms: C_24  and  C_34
REMARK   16  A    between atoms: C_32  and  C_35
REMARK   17  A    between atoms: C_36  and  C_38
REMARK   18  A    between atoms: C_37  and  C_41
REMARK   19  A    between atoms: C_39  and  C_43
REMARK   20  A    between atoms: C_40  and  C_42
REMARK   21  A    between atoms: C_42  and  C_46
REMARK   22  A    between atoms: C_46  and  C_50
REMARK   23  A    between atoms: C_53  and  C_56
REMARK                            x       y       z     vdW  Elec       q    Type
REMARK                         _______ _______ _______ _____ _____    ______ ____
ROOT
ATOM      1  O   UNL     1     -22.564  -7.054  14.702  0.00  0.00    +0.000 OA
ATOM      2  O   UNL     1     -27.113  -7.565   9.853  0.00  0.00    +0.000 OA
ATOM      3  C   UNL     1     -23.187  -6.445  11.373  0.00  0.00    +0.000 C 
ATOM      4  C   UNL     1     -22.859  -6.040  12.840  0.00  0.00    +0.000 C 
ATOM      5  C   UNL     1     -25.077  -6.522  11.228  0.00  0.00    +0.000 C 
ATOM      6  C   UNL     1     -23.373  -7.367  13.534  0.00  0.00    +0.000 C 
ATOM      7  C   UNL     1     -22.138  -5.515  10.143  0.00  0.00    +0.000 C 
ATOM      8  C   UNL     1     -21.878  -5.302   8.279  0.00  0.00    +0.000 C 
ATOM      9  C   UNL     1     -25.501  -7.630  12.281  0.00  0.00    +0.000 C 
ATOM     10  C   UNL     1     -24.871  -7.488  13.699  0.00  0.00    +0.000 C 
ATOM     11  C   UNL     1     -22.902  -5.870   6.946  0.00  0.00    +0.000 C 
ATOM     12  C   UNL     1     -21.626  -6.415  13.753  0.00  0.00    +0.000 C 
ATOM     13  C   UNL     1     -26.091  -6.867   9.681  0.00  0.00    +0.000 C 
ATOM     14  C   UNL     1     -21.930  -3.728   8.009  0.00  0.00    +0.000 C 
ATOM     15  C   UNL     1     -24.422  -5.381   7.112  0.00  0.00    +0.000 C 
ATOM     16  C   UNL     1     -25.783  -5.217  11.784  0.00  0.00    +0.000 C 
ATOM     17  C   UNL     1     -25.758  -6.314   7.871  0.00  0.00    +0.000 C 
ATOM     18  C   UNL     1     -23.310  -3.086   7.528  0.00  0.00    +0.000 C 
ATOM     19  C   UNL     1     -24.514  -4.009   7.115  0.00  0.00    +0.000 C 
ATOM     20  C   UNL     1     -22.326  -5.185   5.608  0.00  0.00    +0.000 C 
ATOM     21  C   UNL     1     -22.739  -7.336   6.430  0.00  0.00    +0.000 C 
ATOM     22  C   UNL     1     -25.833  -3.285   6.994  0.00  0.00    +0.000 C 
ENDROOT
BRANCH   9  23
ATOM     23  O   UNL     1     -25.123  -8.913  11.784  0.00  0.00    +0.000 OA
ATOM     24  H   UNL     1     -25.146  -8.848  10.808  0.00  0.00    +0.000 HD
ENDBRANCH   9  23
BRANCH   8  25
ATOM     25  O   UNL     1     -20.522  -5.717   8.027  0.00  0.00    +0.000 OA
ATOM     26  H   UNL     1     -19.985  -4.930   7.828  0.00  0.00    +0.000 HD
ENDBRANCH   8  25
BRANCH  18  27
ATOM     27  O   UNL     1     -23.799  -2.222   8.595  0.00  0.00    +0.000 OA
BRANCH  27  29
ATOM     28  O   UNL     1     -22.403  -0.444   8.501  0.00  0.00    +0.000 OA
ATOM     29  C   UNL     1     -23.543  -0.894   8.476  0.00  0.00    +0.000 C 
BRANCH  29  30
ATOM     30  C   UNL     1     -24.791  -0.005   8.473  0.00  0.00    +0.000 C 
BRANCH  30  31
ATOM     31  O   UNL     1     -25.129   0.571   7.206  0.00  0.00    +0.000 OA
ATOM     32  H   UNL     1     -24.533   0.158   6.554  0.00  0.00    +0.000 HD
ENDBRANCH  30  31
BRANCH  30  33
ATOM     33  C   UNL     1     -24.596   1.105   9.542  0.00  0.00    +0.000 C 
BRANCH  33  34
ATOM     34  C   UNL     1     -25.875   1.314  10.340  0.00  0.00    +0.000 A 
ATOM     35  C   UNL     1     -25.963   2.393  11.235  0.00  0.00    +0.000 A 
ATOM     36  C   UNL     1     -26.969   0.440  10.234  0.00  0.00    +0.000 A 
ATOM     37  C   UNL     1     -27.118   2.603  11.990  0.00  0.00    +0.000 A 
ATOM     38  C   UNL     1     -28.124   0.652  10.988  0.00  0.00    +0.000 A 
ATOM     39  C   UNL     1     -28.199   1.734  11.864  0.00  0.00    +0.000 A 
ENDBRANCH  33  34
BRANCH  33  41
ATOM     40  O   UNL     1     -22.594   3.741   8.086  0.00  0.00    +0.000 OA
ATOM     41  N   UNL     1     -24.161   2.356   8.908  0.00  0.00    +0.000 N 
ATOM     42  C   UNL     1     -22.947   2.984   8.984  0.00  0.00    +0.000 C 
ATOM     43  H   UNL     1     -24.719   2.644   8.111  0.00  0.00    +0.000 HD
BRANCH  42  44
ATOM     44  C   UNL     1     -22.036   2.720  10.121  0.00  0.00    +0.000 A 
ATOM     45  C   UNL     1     -22.282   3.250  11.391  0.00  0.00    +0.000 A 
ATOM     46  C   UNL     1     -20.870   1.982   9.885  0.00  0.00    +0.000 A 
ATOM     47  C   UNL     1     -21.395   2.989  12.437  0.00  0.00    +0.000 A 
ATOM     48  C   UNL     1     -19.984   1.725  10.931  0.00  0.00    +0.000 A 
ATOM     49  C   UNL     1     -20.252   2.221  12.207  0.00  0.00    +0.000 A 
ENDBRANCH  42  44
ENDBRANCH  33  41
ENDBRANCH  30  33
ENDBRANCH  29  30
ENDBRANCH  27  29
ENDBRANCH  18  27
BRANCH  17  50
ATOM     50  O   UNL     1     -26.024  -7.363   6.915  0.00  0.00    +0.000 OA
BRANCH  50  52
ATOM     51  O   UNL     1     -27.016  -7.830   4.964  0.00  0.00    +0.000 OA
ATOM     52  C   UNL     1     -27.098  -7.359   6.094  0.00  0.00    +0.000 C 
ATOM     53  C   UNL     1     -28.348  -6.686   6.578  0.00  0.00    +0.000 C 
ENDBRANCH  50  52
ENDBRANCH  17  50
BRANCH   7  54
ATOM     54  O   UNL     1     -23.143  -4.668  10.067  0.00  0.00    +0.000 OA
BRANCH  54  56
ATOM     55  O   UNL     1     -21.293  -4.215  10.708  0.00  0.00    +0.000 OA
ATOM     56  C   UNL     1     -22.410  -3.708  10.724  0.00  0.00    +0.000 C 
BRANCH  56  57
ATOM     57  C   UNL     1     -23.175  -2.217  11.649  0.00  0.00    +0.000 A 
ATOM     58  C   UNL     1     -24.575  -2.102  12.052  0.00  0.00    +0.000 A 
ATOM     59  C   UNL     1     -22.491  -1.085  12.187  0.00  0.00    +0.000 A 
ATOM     60  C   UNL     1     -25.160  -1.074  12.833  0.00  0.00    +0.000 A 
ATOM     61  C   UNL     1     -23.061  -0.042  12.971  0.00  0.00    +0.000 A 
ATOM     62  C   UNL     1     -24.396  -0.036  13.298  0.00  0.00    +0.000 A 
ENDBRANCH  56  57
ENDBRANCH  54  56
ENDBRANCH   7  54
BRANCH   4  63
ATOM     63  O   UNL     1     -23.561  -4.842  13.248  0.00  0.00    +0.000 OA
BRANCH  63  65
ATOM     64  O   UNL     1     -22.360  -3.713  14.759  0.00  0.00    +0.000 OA
ATOM     65  C   UNL     1     -23.425  -4.248  14.456  0.00  0.00    +0.000 C 
ATOM     66  C   UNL     1     -24.534  -4.351  15.454  0.00  0.00    +0.000 C 
ENDBRANCH  63  65
ENDBRANCH   4  63
TORSDOF 17
ENDMDL
MODEL 9
REMARK VINA RESULT:      -5.6     19.773     25.177
REMARK  Name = 
REMARK  23 active torsions:
REMARK  status: ('A' for Active; 'I' for Inactive)
REMARK    1  A    between atoms: O_2  and  C_17
REMARK    2  A    between atoms: O_2  and  C_36
REMARK    3  A    between atoms: O_3  and  C_20
REMARK    4  A    between atoms: O_3  and  C_37
REMARK    5  A    between atoms: O_4  and  C_21
REMARK    6  A    between atoms: O_5  and  C_22
REMARK    7  A    between atoms: O_6  and  C_30
REMARK    8  A    between atoms: O_6  and  C_39
REMARK    9  A    between atoms: O_8  and  C_31
REMARK   10  A    between atoms: O_8  and  C_40
REMARK   11  A    between atoms: O_13  and  C_42
REMARK   12  A    between atoms: N_15  and  C_46
REMARK   13  A    between atoms: C_18  and  C_29
REMARK   14  A    between atoms: C_24  and  C_33
REMARK   15  A    between atoms: C_24  and  C_34
REMARK   16  A    between atoms: C_32  and  C_35
REMARK   17  A    between atoms: C_36  and  C_38
REMARK   18  A    between atoms: C_37  and  C_41
REMARK   19  A    between atoms: C_39  and  C_43
REMARK   20  A    between atoms: C_40  and  C_42
REMARK   21  A    between atoms: C_42  and  C_46
REMARK   22  A    between atoms: C_46  and  C_50
REMARK   23  A    between atoms: C_53  and  C_56
REMARK                            x       y       z     vdW  Elec       q    Type
REMARK                         _______ _______ _______ _____ _____    ______ ____
ROOT
ATOM      1  O   UNL     1      -2.998 -10.789  -7.694  0.00  0.00    +0.000 OA
ATOM      2  O   UNL     1      -7.380 -12.521  -2.977  0.00  0.00    +0.000 OA
ATOM      3  C   UNL     1      -5.418  -9.607  -5.552  0.00  0.00    +0.000 C 
ATOM      4  C   UNL     1      -3.971  -9.718  -6.117  0.00  0.00    +0.000 C 
ATOM      5  C   UNL     1      -5.618 -10.985  -4.264  0.00  0.00    +0.000 C 
ATOM      6  C   UNL     1      -4.154 -11.099  -6.869  0.00  0.00    +0.000 C 
ATOM      7  C   UNL     1      -5.890  -7.839  -5.189  0.00  0.00    +0.000 C 
ATOM      8  C   UNL     1      -7.306  -6.800  -4.480  0.00  0.00    +0.000 C 
ATOM      9  C   UNL     1      -5.379 -12.321  -5.086  0.00  0.00    +0.000 C 
ATOM     10  C   UNL     1      -4.115 -12.335  -5.999  0.00  0.00    +0.000 C 
ATOM     11  C   UNL     1      -8.746  -7.345  -3.600  0.00  0.00    +0.000 C 
ATOM     12  C   UNL     1      -3.404  -9.373  -7.550  0.00  0.00    +0.000 C 
ATOM     13  C   UNL     1      -7.109 -11.316  -3.167  0.00  0.00    +0.000 C 
ATOM     14  C   UNL     1      -6.643  -5.866  -3.365  0.00  0.00    +0.000 C 
ATOM     15  C   UNL     1      -8.363  -8.261  -2.338  0.00  0.00    +0.000 C 
ATOM     16  C   UNL     1      -4.436 -11.006  -3.207  0.00  0.00    +0.000 C 
ATOM     17  C   UNL     1      -8.287 -10.057  -2.318  0.00  0.00    +0.000 C 
ATOM     18  C   UNL     1      -6.706  -6.341  -1.843  0.00  0.00    +0.000 C 
ATOM     19  C   UNL     1      -7.590  -7.575  -1.431  0.00  0.00    +0.000 C 
ATOM     20  C   UNL     1      -9.455  -6.018  -3.025  0.00  0.00    +0.000 C 
ATOM     21  C   UNL     1      -9.995  -7.828  -4.405  0.00  0.00    +0.000 C 
ATOM     22  C   UNL     1      -7.308  -8.101  -0.045  0.00  0.00    +0.000 C 
ENDROOT
BRANCH   9  23
ATOM     23  O   UNL     1      -6.505 -12.553  -5.933  0.00  0.00    +0.000 OA
ATOM     24  H   UNL     1      -6.441 -11.902  -6.660  0.00  0.00    +0.000 HD
ENDBRANCH   9  23
BRANCH   8  25
ATOM     25  O   UNL     1      -7.721  -5.930  -5.550  0.00  0.00    +0.000 OA
ATOM     26  H   UNL     1      -8.063  -5.103  -5.167  0.00  0.00    +0.000 HD
ENDBRANCH   8  25
BRANCH  18  27
ATOM     27  O   UNL     1      -5.347  -6.645  -1.411  0.00  0.00    +0.000 OA
BRANCH  27  29
ATOM     28  O   UNL     1      -4.384  -4.612  -1.166  0.00  0.00    +0.000 OA
ATOM     29  C   UNL     1      -4.706  -5.694  -0.685  0.00  0.00    +0.000 C 
BRANCH  29  30
ATOM     30  C   UNL     1      -4.280  -6.144   0.716  0.00  0.00    +0.000 C 
BRANCH  30  31
ATOM     31  O   UNL     1      -5.348  -6.311   1.656  0.00  0.00    +0.000 OA
ATOM     32  H   UNL     1      -4.957  -6.164   2.537  0.00  0.00    +0.000 HD
ENDBRANCH  30  31
BRANCH  30  33
ATOM     33  C   UNL     1      -3.235  -5.127   1.253  0.00  0.00    +0.000 C 
BRANCH  33  34
ATOM     34  C   UNL     1      -1.932  -5.831   1.604  0.00  0.00    +0.000 A 
ATOM     35  C   UNL     1      -0.709  -5.179   1.370  0.00  0.00    +0.000 A 
ATOM     36  C   UNL     1      -1.908  -7.134   2.128  0.00  0.00    +0.000 A 
ATOM     37  C   UNL     1       0.502  -5.804   1.670  0.00  0.00    +0.000 A 
ATOM     38  C   UNL     1      -0.696  -7.756   2.429  0.00  0.00    +0.000 A 
ATOM     39  C   UNL     1       0.508  -7.091   2.202  0.00  0.00    +0.000 A 
ENDBRANCH  33  34
BRANCH  33  41
ATOM     40  O   UNL     1      -4.330  -2.528   3.516  0.00  0.00    +0.000 OA
ATOM     41  N   UNL     1      -3.772  -4.404   2.413  0.00  0.00    +0.000 N 
ATOM     42  C   UNL     1      -3.509  -3.128   2.830  0.00  0.00    +0.000 C 
ATOM     43  H   UNL     1      -4.636  -4.785   2.788  0.00  0.00    +0.000 HD
BRANCH  42  44
ATOM     44  C   UNL     1      -2.259  -2.448   2.421  0.00  0.00    +0.000 A 
ATOM     45  C   UNL     1      -1.145  -2.401   3.265  0.00  0.00    +0.000 A 
ATOM     46  C   UNL     1      -2.232  -1.782   1.190  0.00  0.00    +0.000 A 
ATOM     47  C   UNL     1       0.014  -1.741   2.850  0.00  0.00    +0.000 A 
ATOM     48  C   UNL     1      -1.075  -1.122   0.779  0.00  0.00    +0.000 A 
ATOM     49  C   UNL     1       0.050  -1.110   1.606  0.00  0.00    +0.000 A 
ENDBRANCH  42  44
ENDBRANCH  33  41
ENDBRANCH  30  33
ENDBRANCH  29  30
ENDBRANCH  27  29
ENDBRANCH  18  27
BRANCH  17  50
ATOM     50  O   UNL     1      -9.673 -10.455  -2.399  0.00  0.00    +0.000 OA
BRANCH  50  52
ATOM     51  O   UNL     1     -10.268 -11.943  -0.837  0.00  0.00    +0.000 OA
ATOM     52  C   UNL     1     -10.399 -10.822  -1.319  0.00  0.00    +0.000 C 
ATOM     53  C   UNL     1     -11.420  -9.854  -0.799  0.00  0.00    +0.000 C 
ENDBRANCH  50  52
ENDBRANCH  17  50
BRANCH   7  54
ATOM     54  O   UNL     1      -5.496  -8.084  -3.958  0.00  0.00    +0.000 OA
BRANCH  54  56
ATOM     55  O   UNL     1      -4.630  -6.791  -5.228  0.00  0.00    +0.000 OA
ATOM     56  C   UNL     1      -4.391  -7.284  -4.131  0.00  0.00    +0.000 C 
BRANCH  56  57
ATOM     57  C   UNL     1      -2.841  -7.334  -3.009  0.00  0.00    +0.000 A 
ATOM     58  C   UNL     1      -2.551  -8.364  -2.014  0.00  0.00    +0.000 A 
ATOM     59  C   UNL     1      -1.701  -6.475  -3.064  0.00  0.00    +0.000 A 
ATOM     60  C   UNL     1      -1.370  -8.504  -1.243  0.00  0.00    +0.000 A 
ATOM     61  C   UNL     1      -0.508  -6.598  -2.298  0.00  0.00    +0.000 A 
ATOM     62  C   UNL     1      -0.338  -7.614  -1.388  0.00  0.00    +0.000 A 
ENDBRANCH  56  57
ENDBRANCH  54  56
ENDBRANCH   7  54
BRANCH   4  63
ATOM     63  O   UNL     1      -2.973  -9.736  -5.070  0.00  0.00    +0.000 OA
BRANCH  63  65
ATOM     64  O   UNL     1      -1.259  -8.533  -5.852  0.00  0.00    +0.000 OA
ATOM     65  C   UNL     1      -1.649  -9.542  -5.268  0.00  0.00    +0.000 C 
ATOM     66  C   UNL     1      -0.683 -10.615  -4.880  0.00  0.00    +0.000 C 
ENDBRANCH  63  65
ENDBRANCH   4  63
TORSDOF 17
ENDMDL
