MODEL 1
REMARK VINA RESULT:      -7.0      0.000      0.000
REMARK  Name = 
REMARK  5 active torsions:
REMARK  status: ('A' for Active; 'I' for Inactive)
REMARK    1  A    between atoms: O_1  and  C_16
REMARK    2  A    between atoms: O_3  and  C_25
REMARK    3  A    between atoms: C_11  and  C_22
REMARK    4  A    between atoms: C_16  and  C_28
REMARK    5  A    between atoms: C_29  and  C_31
REMARK                            x       y       z     vdW  Elec       q    Type
REMARK                         _______ _______ _______ _____ _____    ______ ____
ROOT
ATOM      1  O   UNL     1       0.556  -3.725   1.399  0.00  0.00    +0.000 OA
ATOM      2  N   UNL     1      -7.536  -7.863  -1.350  0.00  0.00    +0.000 NA
ATOM      3  C   UNL     1      -4.373  -6.965   0.653  0.00  0.00    +0.000 C 
ATOM      4  C   UNL     1      -2.844  -7.119   0.435  0.00  0.00    +0.000 C 
ATOM      5  C   UNL     1      -3.262  -5.128   1.717  0.00  0.00    +0.000 C 
ATOM      6  C   UNL     1      -2.267  -5.721   0.711  0.00  0.00    +0.000 C 
ATOM      7  C   UNL     1      -5.215  -7.420  -0.554  0.00  0.00    +0.000 C 
ATOM      8  C   UNL     1      -4.594  -5.496   1.070  0.00  0.00    +0.000 C 
ATOM      9  C   UNL     1      -2.957  -3.642   2.047  0.00  0.00    +0.000 C 
ATOM     10  C   UNL     1      -4.780  -8.841  -0.973  0.00  0.00    +0.000 C 
ATOM     11  C   UNL     1      -2.484  -7.634  -0.954  0.00  0.00    +0.000 C 
ATOM     12  C   UNL     1      -1.519  -3.619   2.648  0.00  0.00    +0.000 C 
ATOM     13  C   UNL     1      -3.275  -8.881  -1.342  0.00  0.00    +0.000 C 
ATOM     14  C   UNL     1      -5.705  -9.406  -2.090  0.00  0.00    +0.000 C 
ATOM     15  C   UNL     1      -0.838  -5.675   1.232  0.00  0.00    +0.000 C 
ATOM     16  C   UNL     1      -6.714  -7.381  -0.227  0.00  0.00    +0.000 C 
ATOM     17  C   UNL     1      -7.218  -9.282  -1.671  0.00  0.00    +0.000 C 
ATOM     18  C   UNL     1      -3.938  -3.125   3.131  0.00  0.00    +0.000 C 
ATOM     19  C   UNL     1      -0.510  -4.262   1.693  0.00  0.00    +0.000 C 
ATOM     20  C   UNL     1      -3.071  -2.737   0.796  0.00  0.00    +0.000 C 
ATOM     21  C   UNL     1      -1.107  -2.228   3.129  0.00  0.00    +0.000 C 
ATOM     22  C   UNL     1      -3.544  -1.756   3.693  0.00  0.00    +0.000 C 
ATOM     23  C   UNL     1      -2.094  -1.707   4.175  0.00  0.00    +0.000 C 
ATOM     24  C   UNL     1      -8.154  -9.803  -2.791  0.00  0.00    +0.000 C 
ATOM     25  C   UNL     1      -8.959  -7.691  -0.994  0.00  0.00    +0.000 C 
ATOM     26  C   UNL     1      -5.334 -10.859  -2.422  0.00  0.00    +0.000 C 
ATOM     27  C   UNL     1      -9.910  -8.118  -2.116  0.00  0.00    +0.000 C 
ATOM     28  C   UNL     1      -9.630  -9.573  -2.489  0.00  0.00    +0.000 C 
ATOM     29  C   UNL     1      -9.818  -7.186  -3.328  0.00  0.00    +0.000 C 
ENDROOT
BRANCH  14  30
ATOM     30  O   UNL     1      -5.496  -8.626  -3.279  0.00  0.00    +0.000 OA
ATOM     31  H   UNL     1      -6.171  -8.943  -3.913  0.00  0.00    +0.000 HD
ENDBRANCH  14  30
BRANCH  23  32
ATOM     32  O   UNL     1      -1.778  -0.361   4.510  0.00  0.00    +0.000 OA
ATOM     33  H   UNL     1      -1.127  -0.380   5.233  0.00  0.00    +0.000 HD
ENDBRANCH  23  32
TORSDOF 2
ENDMDL
MODEL 2
REMARK VINA RESULT:      -7.0      1.860      3.159
REMARK  Name = 
REMARK  5 active torsions:
REMARK  status: ('A' for Active; 'I' for Inactive)
REMARK    1  A    between atoms: O_1  and  C_16
REMARK    2  A    between atoms: O_3  and  C_25
REMARK    3  A    between atoms: C_11  and  C_22
REMARK    4  A    between atoms: C_16  and  C_28
REMARK    5  A    between atoms: C_29  and  C_31
REMARK                            x       y       z     vdW  Elec       q    Type
REMARK                         _______ _______ _______ _____ _____    ______ ____
ROOT
ATOM      1  O   UNL     1       1.959  -0.771   2.233  0.00  0.00    +0.000 OA
ATOM      2  N   UNL     1      -4.768  -7.000  -0.237  0.00  0.00    +0.000 NA
ATOM      3  C   UNL     1      -1.709  -5.384   1.454  0.00  0.00    +0.000 C 
ATOM      4  C   UNL     1      -0.295  -4.940   0.994  0.00  0.00    +0.000 C 
ATOM      5  C   UNL     1      -1.047  -3.480   2.750  0.00  0.00    +0.000 C 
ATOM      6  C   UNL     1      -0.153  -3.497   1.504  0.00  0.00    +0.000 C 
ATOM      7  C   UNL     1      -2.598  -5.898   0.305  0.00  0.00    +0.000 C 
ATOM      8  C   UNL     1      -2.296  -4.185   2.229  0.00  0.00    +0.000 C 
ATOM      9  C   UNL     1      -1.172  -2.064   3.371  0.00  0.00    +0.000 C 
ATOM     10  C   UNL     1      -1.830  -6.975  -0.491  0.00  0.00    +0.000 C 
ATOM     11  C   UNL     1      -0.094  -5.048  -0.514  0.00  0.00    +0.000 C 
ATOM     12  C   UNL     1       0.276  -1.630   3.752  0.00  0.00    +0.000 C 
ATOM     13  C   UNL     1      -0.506  -6.411  -1.066  0.00  0.00    +0.000 C 
ATOM     14  C   UNL     1      -2.740  -7.635  -1.567  0.00  0.00    +0.000 C 
ATOM     15  C   UNL     1       1.263  -3.032   1.814  0.00  0.00    +0.000 C 
ATOM     16  C   UNL     1      -3.924  -6.454   0.840  0.00  0.00    +0.000 C 
ATOM     17  C   UNL     1      -4.087  -8.135  -0.922  0.00  0.00    +0.000 C 
ATOM     18  C   UNL     1      -2.012  -2.124   4.672  0.00  0.00    +0.000 C 
ATOM     19  C   UNL     1       1.210  -1.696   2.541  0.00  0.00    +0.000 C 
ATOM     20  C   UNL     1      -1.833  -1.060   2.394  0.00  0.00    +0.000 C 
ATOM     21  C   UNL     1       0.313  -0.287   4.481  0.00  0.00    +0.000 C 
ATOM     22  C   UNL     1      -1.968  -0.822   5.477  0.00  0.00    +0.000 C 
ATOM     23  C   UNL     1      -0.543  -0.340   5.748  0.00  0.00    +0.000 C 
ATOM     24  C   UNL     1      -5.022  -8.758  -1.989  0.00  0.00    +0.000 C 
ATOM     25  C   UNL     1      -6.061  -7.412   0.346  0.00  0.00    +0.000 C 
ATOM     26  C   UNL     1      -2.003  -8.780  -2.277  0.00  0.00    +0.000 C 
ATOM     27  C   UNL     1      -7.040  -7.954  -0.700  0.00  0.00    +0.000 C 
ATOM     28  C   UNL     1      -6.395  -9.126  -1.436  0.00  0.00    +0.000 C 
ATOM     29  C   UNL     1      -7.512  -6.859  -1.661  0.00  0.00    +0.000 C 
ENDROOT
BRANCH  14  30
ATOM     30  O   UNL     1      -3.051  -6.642  -2.558  0.00  0.00    +0.000 OA
ATOM     31  H   UNL     1      -3.300  -5.844  -2.049  0.00  0.00    +0.000 HD
ENDBRANCH  14  30
BRANCH  23  32
ATOM     32  O   UNL     1      -0.611   0.953   6.340  0.00  0.00    +0.000 OA
ATOM     33  H   UNL     1       0.039   0.983   7.063  0.00  0.00    +0.000 HD
ENDBRANCH  23  32
TORSDOF 2
ENDMDL
MODEL 3
REMARK VINA RESULT:      -6.8     16.839     18.442
REMARK  Name = 
REMARK  5 active torsions:
REMARK  status: ('A' for Active; 'I' for Inactive)
REMARK    1  A    between atoms: O_1  and  C_16
REMARK    2  A    between atoms: O_3  and  C_25
REMARK    3  A    between atoms: C_11  and  C_22
REMARK    4  A    between atoms: C_16  and  C_28
REMARK    5  A    between atoms: C_29  and  C_31
REMARK                            x       y       z     vdW  Elec       q    Type
REMARK                         _______ _______ _______ _____ _____    ______ ____
ROOT
ATOM      1  O   UNL     1       6.102  -9.853  16.609  0.00  0.00    +0.000 OA
ATOM      2  N   UNL     1       2.522 -17.788  12.817  0.00  0.00    +0.000 NA
ATOM      3  C   UNL     1       2.817 -14.329  14.484  0.00  0.00    +0.000 C 
ATOM      4  C   UNL     1       3.300 -13.802  15.861  0.00  0.00    +0.000 C 
ATOM      5  C   UNL     1       3.771 -12.153  14.176  0.00  0.00    +0.000 C 
ATOM      6  C   UNL     1       4.287 -12.673  15.523  0.00  0.00    +0.000 C 
ATOM      7  C   UNL     1       3.016 -15.846  14.301  0.00  0.00    +0.000 C 
ATOM      8  C   UNL     1       3.528 -13.460  13.426  0.00  0.00    +0.000 C 
ATOM      9  C   UNL     1       4.705 -11.079  13.557  0.00  0.00    +0.000 C 
ATOM     10  C   UNL     1       2.403 -16.589  15.509  0.00  0.00    +0.000 C 
ATOM     11  C   UNL     1       3.928 -14.884  16.732  0.00  0.00    +0.000 C 
ATOM     12  C   UNL     1       4.764  -9.912  14.589  0.00  0.00    +0.000 C 
ATOM     13  C   UNL     1       3.056 -16.133  16.839  0.00  0.00    +0.000 C 
ATOM     14  C   UNL     1       2.441 -18.131  15.298  0.00  0.00    +0.000 C 
ATOM     15  C   UNL     1       4.410 -11.559  16.552  0.00  0.00    +0.000 C 
ATOM     16  C   UNL     1       2.390 -16.331  12.987  0.00  0.00    +0.000 C 
ATOM     17  C   UNL     1       1.813 -18.515  13.907  0.00  0.00    +0.000 C 
ATOM     18  C   UNL     1       4.090 -10.529  12.245  0.00  0.00    +0.000 C 
ATOM     19  C   UNL     1       5.216 -10.410  15.963  0.00  0.00    +0.000 C 
ATOM     20  C   UNL     1       6.114 -11.645  13.251  0.00  0.00    +0.000 C 
ATOM     21  C   UNL     1       5.566  -8.716  14.075  0.00  0.00    +0.000 C 
ATOM     22  C   UNL     1       4.819  -9.293  11.711  0.00  0.00    +0.000 C 
ATOM     23  C   UNL     1       4.976  -8.196  12.764  0.00  0.00    +0.000 C 
ATOM     24  C   UNL     1       1.881 -20.045  13.665  0.00  0.00    +0.000 C 
ATOM     25  C   UNL     1       1.995 -18.152  11.486  0.00  0.00    +0.000 C 
ATOM     26  C   UNL     1       1.731 -18.856  16.452  0.00  0.00    +0.000 C 
ATOM     27  C   UNL     1       2.127 -19.648  11.182  0.00  0.00    +0.000 C 
ATOM     28  C   UNL     1       1.415 -20.449  12.271  0.00  0.00    +0.000 C 
ATOM     29  C   UNL     1       3.590 -20.070  11.021  0.00  0.00    +0.000 C 
ENDROOT
BRANCH  14  30
ATOM     30  O   UNL     1       3.817 -18.548  15.308  0.00  0.00    +0.000 OA
ATOM     31  H   UNL     1       4.206 -18.122  16.098  0.00  0.00    +0.000 HD
ENDBRANCH  14  30
BRANCH  23  32
ATOM     32  O   UNL     1       5.811  -7.176  12.228  0.00  0.00    +0.000 OA
ATOM     33  H   UNL     1       5.592  -6.344  12.682  0.00  0.00    +0.000 HD
ENDBRANCH  23  32
TORSDOF 2
ENDMDL
MODEL 4
REMARK VINA RESULT:      -6.5      6.630     11.393
REMARK  Name = 
REMARK  5 active torsions:
REMARK  status: ('A' for Active; 'I' for Inactive)
REMARK    1  A    between atoms: O_1  and  C_16
REMARK    2  A    between atoms: O_3  and  C_25
REMARK    3  A    between atoms: C_11  and  C_22
REMARK    4  A    between atoms: C_16  and  C_28
REMARK    5  A    between atoms: C_29  and  C_31
REMARK                            x       y       z     vdW  Elec       q    Type
REMARK                         _______ _______ _______ _____ _____    ______ ____
ROOT
ATOM      1  O   UNL     1       0.270   6.051  10.205  0.00  0.00    +0.000 OA
ATOM      2  N   UNL     1      -1.612  -1.154   4.314  0.00  0.00    +0.000 NA
ATOM      3  C   UNL     1      -0.487   0.869   7.392  0.00  0.00    +0.000 C 
ATOM      4  C   UNL     1       0.669   1.857   7.705  0.00  0.00    +0.000 C 
ATOM      5  C   UNL     1      -1.266   2.471   8.994  0.00  0.00    +0.000 C 
ATOM      6  C   UNL     1      -0.021   3.078   8.335  0.00  0.00    +0.000 C 
ATOM      7  C   UNL     1      -0.526   0.415   5.920  0.00  0.00    +0.000 C 
ATOM      8  C   UNL     1      -1.777   1.560   7.882  0.00  0.00    +0.000 C 
ATOM      9  C   UNL     1      -2.208   3.551   9.590  0.00  0.00    +0.000 C 
ATOM     10  C   UNL     1       0.870  -0.101   5.508  0.00  0.00    +0.000 C 
ATOM     11  C   UNL     1       1.495   2.223   6.477  0.00  0.00    +0.000 C 
ATOM     12  C   UNL     1      -1.366   4.320  10.653  0.00  0.00    +0.000 C 
ATOM     13  C   UNL     1       1.949   0.997   5.687  0.00  0.00    +0.000 C 
ATOM     14  C   UNL     1       0.844  -0.714   4.078  0.00  0.00    +0.000 C 
ATOM     15  C   UNL     1       0.810   3.882   9.324  0.00  0.00    +0.000 C 
ATOM     16  C   UNL     1      -1.594  -0.666   5.704  0.00  0.00    +0.000 C 
ATOM     17  C   UNL     1      -0.309  -1.779   3.954  0.00  0.00    +0.000 C 
ATOM     18  C   UNL     1      -3.399   2.878  10.317  0.00  0.00    +0.000 C 
ATOM     19  C   UNL     1      -0.083   4.885  10.040  0.00  0.00    +0.000 C 
ATOM     20  C   UNL     1      -2.760   4.503   8.499  0.00  0.00    +0.000 C 
ATOM     21  C   UNL     1      -2.190   5.357  11.415  0.00  0.00    +0.000 C 
ATOM     22  C   UNL     1      -4.232   3.861  11.144  0.00  0.00    +0.000 C 
ATOM     23  C   UNL     1      -3.383   4.694  12.105  0.00  0.00    +0.000 C 
ATOM     24  C   UNL     1      -0.374  -2.370   2.522  0.00  0.00    +0.000 C 
ATOM     25  C   UNL     1      -2.732  -2.105   4.169  0.00  0.00    +0.000 C 
ATOM     26  C   UNL     1       2.208  -1.323   3.721  0.00  0.00    +0.000 C 
ATOM     27  C   UNL     1      -2.876  -2.643   2.742  0.00  0.00    +0.000 C 
ATOM     28  C   UNL     1      -1.565  -3.299   2.315  0.00  0.00    +0.000 C 
ATOM     29  C   UNL     1      -3.317  -1.551   1.763  0.00  0.00    +0.000 C 
ENDROOT
BRANCH  14  30
ATOM     30  O   UNL     1       0.587   0.347   3.143  0.00  0.00    +0.000 OA
ATOM     31  H   UNL     1      -0.170   0.035   2.607  0.00  0.00    +0.000 HD
ENDBRANCH  14  30
BRANCH  23  32
ATOM     32  O   UNL     1      -4.215   5.688  12.692  0.00  0.00    +0.000 OA
ATOM     33  H   UNL     1      -3.684   6.171  13.349  0.00  0.00    +0.000 HD
ENDBRANCH  23  32
TORSDOF 2
ENDMDL
MODEL 5
REMARK VINA RESULT:      -6.4     20.979     23.391
REMARK  Name = 
REMARK  5 active torsions:
REMARK  status: ('A' for Active; 'I' for Inactive)
REMARK    1  A    between atoms: O_1  and  C_16
REMARK    2  A    between atoms: O_3  and  C_25
REMARK    3  A    between atoms: C_11  and  C_22
REMARK    4  A    between atoms: C_16  and  C_28
REMARK    5  A    between atoms: C_29  and  C_31
REMARK                            x       y       z     vdW  Elec       q    Type
REMARK                         _______ _______ _______ _____ _____    ______ ____
ROOT
ATOM      1  O   UNL     1     -25.952  -4.767  17.679  0.00  0.00    +0.000 OA
ATOM      2  N   UNL     1     -21.714  -4.743   9.182  0.00  0.00    +0.000 NA
ATOM      3  C   UNL     1     -24.346  -4.373  11.968  0.00  0.00    +0.000 C 
ATOM      4  C   UNL     1     -25.134  -5.348  12.883  0.00  0.00    +0.000 C 
ATOM      5  C   UNL     1     -24.739  -3.296  14.072  0.00  0.00    +0.000 C 
ATOM      6  C   UNL     1     -24.932  -4.799  14.305  0.00  0.00    +0.000 C 
ATOM      7  C   UNL     1     -23.311  -5.074  11.069  0.00  0.00    +0.000 C 
ATOM      8  C   UNL     1     -23.755  -3.299  12.906  0.00  0.00    +0.000 C 
ATOM      9  C   UNL     1     -24.377  -2.535  15.376  0.00  0.00    +0.000 C 
ATOM     10  C   UNL     1     -23.995  -6.232  10.310  0.00  0.00    +0.000 C 
ATOM     11  C   UNL     1     -24.681  -6.798  12.748  0.00  0.00    +0.000 C 
ATOM     12  C   UNL     1     -25.563  -2.772  16.358  0.00  0.00    +0.000 C 
ATOM     13  C   UNL     1     -24.614  -7.259  11.294  0.00  0.00    +0.000 C 
ATOM     14  C   UNL     1     -23.029  -6.874   9.273  0.00  0.00    +0.000 C 
ATOM     15  C   UNL     1     -26.050  -5.082  15.298  0.00  0.00    +0.000 C 
ATOM     16  C   UNL     1     -22.669  -4.083  10.089  0.00  0.00    +0.000 C 
ATOM     17  C   UNL     1     -22.398  -5.769   8.346  0.00  0.00    +0.000 C 
ATOM     18  C   UNL     1     -24.281  -1.014  15.096  0.00  0.00    +0.000 C 
ATOM     19  C   UNL     1     -25.822  -4.266  16.564  0.00  0.00    +0.000 C 
ATOM     20  C   UNL     1     -23.032  -3.020  15.973  0.00  0.00    +0.000 C 
ATOM     21  C   UNL     1     -25.408  -1.992  17.664  0.00  0.00    +0.000 C 
ATOM     22  C   UNL     1     -24.179  -0.173  16.373  0.00  0.00    +0.000 C 
ATOM     23  C   UNL     1     -25.282  -0.494  17.383  0.00  0.00    +0.000 C 
ATOM     24  C   UNL     1     -21.401  -6.389   7.334  0.00  0.00    +0.000 C 
ATOM     25  C   UNL     1     -21.067  -3.707   8.352  0.00  0.00    +0.000 C 
ATOM     26  C   UNL     1     -23.752  -7.950   8.448  0.00  0.00    +0.000 C 
ATOM     27  C   UNL     1     -20.014  -4.279   7.399  0.00  0.00    +0.000 C 
ATOM     28  C   UNL     1     -20.659  -5.342   6.512  0.00  0.00    +0.000 C 
ATOM     29  C   UNL     1     -18.797  -4.822   8.154  0.00  0.00    +0.000 C 
ENDROOT
BRANCH  14  30
ATOM     30  O   UNL     1     -21.969  -7.524   9.994  0.00  0.00    +0.000 OA
ATOM     31  H   UNL     1     -22.402  -8.256  10.478  0.00  0.00    +0.000 HD
ENDBRANCH  14  30
BRANCH  23  32
ATOM     32  O   UNL     1     -24.999   0.203  18.591  0.00  0.00    +0.000 OA
ATOM     33  H   UNL     1     -25.781   0.130  19.166  0.00  0.00    +0.000 HD
ENDBRANCH  23  32
TORSDOF 2
ENDMDL
MODEL 6
REMARK VINA RESULT:      -6.2      3.519      9.020
REMARK  Name = 
REMARK  5 active torsions:
REMARK  status: ('A' for Active; 'I' for Inactive)
REMARK    1  A    between atoms: O_1  and  C_16
REMARK    2  A    between atoms: O_3  and  C_25
REMARK    3  A    between atoms: C_11  and  C_22
REMARK    4  A    between atoms: C_16  and  C_28
REMARK    5  A    between atoms: C_29  and  C_31
REMARK                            x       y       z     vdW  Elec       q    Type
REMARK                         _______ _______ _______ _____ _____    ______ ____
ROOT
ATOM      1  O   UNL     1      -3.536  -8.474  -3.753  0.00  0.00    +0.000 OA
ATOM      2  N   UNL     1      -0.680  -2.205   2.781  0.00  0.00    +0.000 NA
ATOM      3  C   UNL     1      -1.898  -5.444   1.093  0.00  0.00    +0.000 C 
ATOM      4  C   UNL     1      -3.211  -5.910   0.410  0.00  0.00    +0.000 C 
ATOM      5  C   UNL     1      -1.344  -6.999  -0.645  0.00  0.00    +0.000 C 
ATOM      6  C   UNL     1      -2.763  -6.497  -0.939  0.00  0.00    +0.000 C 
ATOM      7  C   UNL     1      -1.918  -3.964   1.521  0.00  0.00    +0.000 C 
ATOM      8  C   UNL     1      -0.761  -5.811   0.116  0.00  0.00    +0.000 C 
ATOM      9  C   UNL     1      -0.623  -7.520  -1.917  0.00  0.00    +0.000 C 
ATOM     10  C   UNL     1      -3.190  -3.692   2.353  0.00  0.00    +0.000 C 
ATOM     11  C   UNL     1      -4.234  -4.791   0.247  0.00  0.00    +0.000 C 
ATOM     12  C   UNL     1      -1.497  -8.691  -2.459  0.00  0.00    +0.000 C 
ATOM     13  C   UNL     1      -4.471  -4.020   1.544  0.00  0.00    +0.000 C 
ATOM     14  C   UNL     1      -3.181  -2.250   2.939  0.00  0.00    +0.000 C 
ATOM     15  C   UNL     1      -3.644  -7.594  -1.520  0.00  0.00    +0.000 C 
ATOM     16  C   UNL     1      -0.657  -3.602   2.316  0.00  0.00    +0.000 C 
ATOM     17  C   UNL     1      -1.831  -1.970   3.698  0.00  0.00    +0.000 C 
ATOM     18  C   UNL     1       0.768  -8.092  -1.544  0.00  0.00    +0.000 C 
ATOM     19  C   UNL     1      -2.938  -8.238  -2.705  0.00  0.00    +0.000 C 
ATOM     20  C   UNL     1      -0.438  -6.403  -2.975  0.00  0.00    +0.000 C 
ATOM     21  C   UNL     1      -0.861  -9.388  -3.662  0.00  0.00    +0.000 C 
ATOM     22  C   UNL     1       1.433  -8.853  -2.695  0.00  0.00    +0.000 C 
ATOM     23  C   UNL     1       0.525  -9.924  -3.300  0.00  0.00    +0.000 C 
ATOM     24  C   UNL     1      -1.790  -0.523   4.252  0.00  0.00    +0.000 C 
ATOM     25  C   UNL     1       0.609  -1.911   3.439  0.00  0.00    +0.000 C 
ATOM     26  C   UNL     1      -4.394  -2.027   3.854  0.00  0.00    +0.000 C 
ATOM     27  C   UNL     1       0.714  -0.461   3.923  0.00  0.00    +0.000 C 
ATOM     28  C   UNL     1      -0.444  -0.160   4.872  0.00  0.00    +0.000 C 
ATOM     29  C   UNL     1       0.772   0.527   2.754  0.00  0.00    +0.000 C 
ENDROOT
BRANCH  14  30
ATOM     30  O   UNL     1      -3.290  -1.324   1.845  0.00  0.00    +0.000 OA
ATOM     31  H   UNL     1      -4.185  -1.468   1.478  0.00  0.00    +0.000 HD
ENDBRANCH  14  30
BRANCH  23  32
ATOM     32  O   UNL     1       1.160 -10.447  -4.462  0.00  0.00    +0.000 OA
ATOM     33  H   UNL     1       0.871 -11.370  -4.569  0.00  0.00    +0.000 HD
ENDBRANCH  23  32
TORSDOF 2
ENDMDL
MODEL 7
REMARK VINA RESULT:      -6.1     21.269     23.987
REMARK  Name = 
REMARK  5 active torsions:
REMARK  status: ('A' for Active; 'I' for Inactive)
REMARK    1  A    between atoms: O_1  and  C_16
REMARK    2  A    between atoms: O_3  and  C_25
REMARK    3  A    between atoms: C_11  and  C_22
REMARK    4  A    between atoms: C_16  and  C_28
REMARK    5  A    between atoms: C_29  and  C_31
REMARK                            x       y       z     vdW  Elec       q    Type
REMARK                         _______ _______ _______ _____ _____    ______ ____
ROOT
ATOM      1  O   UNL     1     -26.730  -9.226  16.847  0.00  0.00    +0.000 OA
ATOM      2  N   UNL     1     -22.093  -5.483   9.456  0.00  0.00    +0.000 NA
ATOM      3  C   UNL     1     -24.901  -6.543  11.867  0.00  0.00    +0.000 C 
ATOM      4  C   UNL     1     -25.554  -7.889  12.283  0.00  0.00    +0.000 C 
ATOM      5  C   UNL     1     -25.596  -6.379  14.155  0.00  0.00    +0.000 C 
ATOM      6  C   UNL     1     -25.532  -7.875  13.821  0.00  0.00    +0.000 C 
ATOM      7  C   UNL     1     -23.709  -6.709  10.906  0.00  0.00    +0.000 C 
ATOM      8  C   UNL     1     -24.564  -5.814  13.185  0.00  0.00    +0.000 C 
ATOM      9  C   UNL     1     -25.448  -6.104  15.675  0.00  0.00    +0.000 C 
ATOM     10  C   UNL     1     -24.134  -7.596   9.715  0.00  0.00    +0.000 C 
ATOM     11  C   UNL     1     -24.843  -9.106  11.702  0.00  0.00    +0.000 C 
ATOM     12  C   UNL     1     -26.627  -6.853  16.367  0.00  0.00    +0.000 C 
ATOM     13  C   UNL     1     -24.614  -8.989  10.196  0.00  0.00    +0.000 C 
ATOM     14  C   UNL     1     -23.012  -7.667   8.638  0.00  0.00    +0.000 C 
ATOM     15  C   UNL     1     -26.636  -8.660  14.514  0.00  0.00    +0.000 C 
ATOM     16  C   UNL     1     -23.200  -5.346  10.418  0.00  0.00    +0.000 C 
ATOM     17  C   UNL     1     -22.536  -6.220   8.239  0.00  0.00    +0.000 C 
ATOM     18  C   UNL     1     -25.609  -4.589  15.961  0.00  0.00    +0.000 C 
ATOM     19  C   UNL     1     -26.628  -8.339  16.003  0.00  0.00    +0.000 C 
ATOM     20  C   UNL     1     -24.075  -6.573  16.216  0.00  0.00    +0.000 C 
ATOM     21  C   UNL     1     -26.686  -6.591  17.871  0.00  0.00    +0.000 C 
ATOM     22  C   UNL     1     -25.729  -4.268  17.453  0.00  0.00    +0.000 C 
ATOM     23  C   UNL     1     -26.812  -5.092  18.151  0.00  0.00    +0.000 C 
ATOM     24  C   UNL     1     -21.390  -6.275   7.197  0.00  0.00    +0.000 C 
ATOM     25  C   UNL     1     -21.595  -4.133   9.123  0.00  0.00    +0.000 C 
ATOM     26  C   UNL     1     -23.485  -8.459   7.410  0.00  0.00    +0.000 C 
ATOM     27  C   UNL     1     -20.404  -4.158   8.159  0.00  0.00    +0.000 C 
ATOM     28  C   UNL     1     -20.800  -4.904   6.887  0.00  0.00    +0.000 C 
ATOM     29  C   UNL     1     -19.155  -4.757   8.812  0.00  0.00    +0.000 C 
ENDROOT
BRANCH  14  30
ATOM     30  O   UNL     1     -21.895  -8.374   9.204  0.00  0.00    +0.000 OA
ATOM     31  H   UNL     1     -21.928  -8.176  10.161  0.00  0.00    +0.000 HD
ENDBRANCH  14  30
BRANCH  23  32
ATOM     32  O   UNL     1     -26.726  -4.853  19.551  0.00  0.00    +0.000 OA
ATOM     33  H   UNL     1     -26.699  -5.716  19.999  0.00  0.00    +0.000 HD
ENDBRANCH  23  32
TORSDOF 2
ENDMDL
MODEL 8
REMARK VINA RESULT:      -6.1     18.559     20.599
REMARK  Name = 
REMARK  5 active torsions:
REMARK  status: ('A' for Active; 'I' for Inactive)
REMARK    1  A    between atoms: O_1  and  C_16
REMARK    2  A    between atoms: O_3  and  C_25
REMARK    3  A    between atoms: C_11  and  C_22
REMARK    4  A    between atoms: C_16  and  C_28
REMARK    5  A    between atoms: C_29  and  C_31
REMARK                            x       y       z     vdW  Elec       q    Type
REMARK                         _______ _______ _______ _____ _____    ______ ____
ROOT
ATOM      1  O   UNL     1     -10.934 -21.291   9.414  0.00  0.00    +0.000 OA
ATOM      2  N   UNL     1     -16.798 -16.090  14.772  0.00  0.00    +0.000 NA
ATOM      3  C   UNL     1     -13.705 -18.020  13.532  0.00  0.00    +0.000 C 
ATOM      4  C   UNL     1     -13.359 -19.511  13.281  0.00  0.00    +0.000 C 
ATOM      5  C   UNL     1     -12.158 -18.147  11.707  0.00  0.00    +0.000 C 
ATOM      6  C   UNL     1     -12.774 -19.543  11.860  0.00  0.00    +0.000 C 
ATOM      7  C   UNL     1     -15.171 -17.790  13.948  0.00  0.00    +0.000 C 
ATOM      8  C   UNL     1     -13.277 -17.267  12.255  0.00  0.00    +0.000 C 
ATOM      9  C   UNL     1     -11.616 -17.891  10.276  0.00  0.00    +0.000 C 
ATOM     10  C   UNL     1     -15.519 -18.723  15.128  0.00  0.00    +0.000 C 
ATOM     11  C   UNL     1     -14.557 -20.442  13.440  0.00  0.00    +0.000 C 
ATOM     12  C   UNL     1     -10.530 -18.980  10.024  0.00  0.00    +0.000 C 
ATOM     13  C   UNL     1     -15.311 -20.211  14.748  0.00  0.00    +0.000 C 
ATOM     14  C   UNL     1     -16.940 -18.420  15.685  0.00  0.00    +0.000 C 
ATOM     15  C   UNL     1     -11.763 -20.644  11.575  0.00  0.00    +0.000 C 
ATOM     16  C   UNL     1     -15.415 -16.322  14.321  0.00  0.00    +0.000 C 
ATOM     17  C   UNL     1     -17.097 -16.884  15.997  0.00  0.00    +0.000 C 
ATOM     18  C   UNL     1     -10.929 -16.503  10.206  0.00  0.00    +0.000 C 
ATOM     19  C   UNL     1     -11.098 -20.386  10.230  0.00  0.00    +0.000 C 
ATOM     20  C   UNL     1     -12.741 -17.947   9.213  0.00  0.00    +0.000 C 
ATOM     21  C   UNL     1      -9.816 -18.798   8.684  0.00  0.00    +0.000 C 
ATOM     22  C   UNL     1     -10.149 -16.283   8.906  0.00  0.00    +0.000 C 
ATOM     23  C   UNL     1      -9.166 -17.415   8.606  0.00  0.00    +0.000 C 
ATOM     24  C   UNL     1     -18.522 -16.560  16.513  0.00  0.00    +0.000 C 
ATOM     25  C   UNL     1     -16.976 -14.642  15.006  0.00  0.00    +0.000 C 
ATOM     26  C   UNL     1     -17.233 -19.275  16.927  0.00  0.00    +0.000 C 
ATOM     27  C   UNL     1     -18.401 -14.279  15.436  0.00  0.00    +0.000 C 
ATOM     28  C   UNL     1     -18.765 -15.066  16.693  0.00  0.00    +0.000 C 
ATOM     29  C   UNL     1     -19.411 -14.499  14.307  0.00  0.00    +0.000 C 
ENDROOT
BRANCH  14  30
ATOM     30  O   UNL     1     -17.900 -18.780  14.677  0.00  0.00    +0.000 OA
ATOM     31  H   UNL     1     -17.886 -18.040  14.037  0.00  0.00    +0.000 HD
ENDBRANCH  14  30
BRANCH  23  32
ATOM     32  O   UNL     1      -8.627 -17.208   7.305  0.00  0.00    +0.000 OA
ATOM     33  H   UNL     1      -8.315 -18.067   6.972  0.00  0.00    +0.000 HD
ENDBRANCH  23  32
TORSDOF 2
ENDMDL
MODEL 9
REMARK VINA RESULT:      -6.0     17.977     19.911
REMARK  Name = 
REMARK  5 active torsions:
REMARK  status: ('A' for Active; 'I' for Inactive)
REMARK    1  A    between atoms: O_1  and  C_16
REMARK    2  A    between atoms: O_3  and  C_25
REMARK    3  A    between atoms: C_11  and  C_22
REMARK    4  A    between atoms: C_16  and  C_28
REMARK    5  A    between atoms: C_29  and  C_31
REMARK                            x       y       z     vdW  Elec       q    Type
REMARK                         _______ _______ _______ _____ _____    ______ ____
ROOT
ATOM      1  O   UNL     1     -16.533 -14.165  14.457  0.00  0.00    +0.000 OA
ATOM      2  N   UNL     1     -11.366 -20.483   9.606  0.00  0.00    +0.000 NA
ATOM      3  C   UNL     1     -12.521 -17.984  12.299  0.00  0.00    +0.000 C 
ATOM      4  C   UNL     1     -12.738 -16.449  12.364  0.00  0.00    +0.000 C 
ATOM      5  C   UNL     1     -14.320 -17.531  13.815  0.00  0.00    +0.000 C 
ATOM      6  C   UNL     1     -14.150 -16.278  12.948  0.00  0.00    +0.000 C 
ATOM      7  C   UNL     1     -12.133 -18.492  10.897  0.00  0.00    +0.000 C 
ATOM      8  C   UNL     1     -13.807 -18.616  12.874  0.00  0.00    +0.000 C 
ATOM      9  C   UNL     1     -15.748 -17.650  14.412  0.00  0.00    +0.000 C 
ATOM     10  C   UNL     1     -10.939 -17.666  10.368  0.00  0.00    +0.000 C 
ATOM     11  C   UNL     1     -12.579 -15.762  11.012  0.00  0.00    +0.000 C 
ATOM     12  C   UNL     1     -15.962 -16.373  15.279  0.00  0.00    +0.000 C 
ATOM     13  C   UNL     1     -11.288 -16.157  10.300  0.00  0.00    +0.000 C 
ATOM     14  C   UNL     1     -10.410 -18.241   9.022  0.00  0.00    +0.000 C 
ATOM     15  C   UNL     1     -14.398 -15.002  13.739  0.00  0.00    +0.000 C 
ATOM     16  C   UNL     1     -11.792 -19.988  10.926  0.00  0.00    +0.000 C 
ATOM     17  C   UNL     1     -10.131 -19.785   9.151  0.00  0.00    +0.000 C 
ATOM     18  C   UNL     1     -15.835 -18.884  15.346  0.00  0.00    +0.000 C 
ATOM     19  C   UNL     1     -15.737 -15.102  14.456  0.00  0.00    +0.000 C 
ATOM     20  C   UNL     1     -16.827 -17.781  13.308  0.00  0.00    +0.000 C 
ATOM     21  C   UNL     1     -17.294 -16.389  16.029  0.00  0.00    +0.000 C 
ATOM     22  C   UNL     1     -17.126 -18.926  16.167  0.00  0.00    +0.000 C 
ATOM     23  C   UNL     1     -17.390 -17.625  16.926  0.00  0.00    +0.000 C 
ATOM     24  C   UNL     1      -9.642 -20.380   7.806  0.00  0.00    +0.000 C 
ATOM     25  C   UNL     1     -11.164 -21.943   9.698  0.00  0.00    +0.000 C 
ATOM     26  C   UNL     1      -9.157 -17.482   8.561  0.00  0.00    +0.000 C 
ATOM     27  C   UNL     1     -10.762 -22.574   8.362  0.00  0.00    +0.000 C 
ATOM     28  C   UNL     1      -9.495 -21.897   7.844  0.00  0.00    +0.000 C 
ATOM     29  C   UNL     1     -11.902 -22.521   7.341  0.00  0.00    +0.000 C 
ENDROOT
BRANCH  14  30
ATOM     30  O   UNL     1     -11.425 -18.043   8.023  0.00  0.00    +0.000 OA
ATOM     31  H   UNL     1     -12.253 -17.903   8.527  0.00  0.00    +0.000 HD
ENDBRANCH  14  30
BRANCH  23  32
ATOM     32  O   UNL     1     -18.686 -17.699  17.509  0.00  0.00    +0.000 OA
ATOM     33  H   UNL     1     -18.607 -18.188  18.346  0.00  0.00    +0.000 HD
ENDBRANCH  23  32
TORSDOF 2
ENDMDL
