MODEL 1
REMARK VINA RESULT:      -5.6      0.000      0.000
REMARK  Name = PhIP.pdbqt.pdb
REMARK  2 active torsions:
REMARK  status: ('A' for Active; 'I' for Inactive)
REMARK    1  A    between atoms: N_4  and  C_9
REMARK    2  A    between atoms: C_7  and  C_10
REMARK                            x       y       z     vdW  Elec       q    Type
REMARK                         _______ _______ _______ _____ _____    ______ ____
ROOT
ATOM      1  N   UNL     1     -24.387  -7.614  13.088  0.00  0.00    +0.000 N 
ATOM      2  N   UNL     1     -22.680  -7.108  14.670  0.00  0.00    +0.000 NA
ATOM      3  N   UNL     1     -21.177  -5.987  13.130  0.00  0.00    +0.000 NA
ATOM      4  C   UNL     1     -23.427  -6.917  12.420  0.00  0.00    +0.000 C 
ATOM      5  C   UNL     1     -22.366  -6.633  13.493  0.00  0.00    +0.000 C 
ATOM      6  C   UNL     1     -21.849  -6.118  10.746  0.00  0.00    +0.000 C 
ATOM      7  C   UNL     1     -23.077  -6.703  11.187  0.00  0.00    +0.000 C 
ATOM      8  C   UNL     1     -23.890  -7.722  14.389  0.00  0.00    +0.000 C 
ATOM      9  C   UNL     1     -25.167  -8.668  12.461  0.00  0.00    +0.000 C 
ATOM     10  C   UNL     1     -21.118  -5.871  11.957  0.00  0.00    +0.000 C 
ENDROOT
BRANCH   6  11
ATOM     11  C   UNL     1     -21.462  -5.778   9.390  0.00  0.00    +0.000 A 
ATOM     12  C   UNL     1     -20.630  -4.684   9.142  0.00  0.00    +0.000 A 
ATOM     13  C   UNL     1     -21.912  -6.538   8.309  0.00  0.00    +0.000 A 
ATOM     14  C   UNL     1     -20.256  -4.354   7.840  0.00  0.00    +0.000 A 
ATOM     15  C   UNL     1     -21.541  -6.213   7.005  0.00  0.00    +0.000 A 
ATOM     16  C   UNL     1     -20.712  -5.120   6.772  0.00  0.00    +0.000 A 
ENDBRANCH   6  11
BRANCH   8  17
ATOM     17  N   UNL     1     -24.470  -8.484  15.417  0.00  0.00    +0.000 NA
ATOM     18  H   UNL     1     -24.903  -7.923  16.142  0.00  0.00    +0.000 HD
ATOM     19  H   UNL     1     -25.056  -9.232  15.069  0.00  0.00    +0.000 HD
ENDBRANCH   8  17
TORSDOF 2
ENDMDL
MODEL 2
REMARK VINA RESULT:      -5.3     25.744     26.867
REMARK  Name = PhIP.pdbqt.pdb
REMARK  2 active torsions:
REMARK  status: ('A' for Active; 'I' for Inactive)
REMARK    1  A    between atoms: N_4  and  C_9
REMARK    2  A    between atoms: C_7  and  C_10
REMARK                            x       y       z     vdW  Elec       q    Type
REMARK                         _______ _______ _______ _____ _____    ______ ____
ROOT
ATOM      1  N   UNL     1       3.507 -14.861  15.665  0.00  0.00    +0.000 N 
ATOM      2  N   UNL     1       3.468 -16.368  13.820  0.00  0.00    +0.000 NA
ATOM      3  N   UNL     1       3.679 -14.696  12.073  0.00  0.00    +0.000 NA
ATOM      4  C   UNL     1       3.664 -14.109  14.540  0.00  0.00    +0.000 C 
ATOM      5  C   UNL     1       3.623 -15.138  13.401  0.00  0.00    +0.000 C 
ATOM      6  C   UNL     1       3.536 -12.349  12.862  0.00  0.00    +0.000 C 
ATOM      7  C   UNL     1       3.562 -12.860  14.197  0.00  0.00    +0.000 C 
ATOM      8  C   UNL     1       3.370 -16.166  15.187  0.00  0.00    +0.000 C 
ATOM      9  C   UNL     1       2.792 -14.378  16.834  0.00  0.00    +0.000 C 
ATOM     10  C   UNL     1       3.614 -13.519  12.032  0.00  0.00    +0.000 C 
ENDROOT
BRANCH   6  11
ATOM     11  C   UNL     1       3.517 -10.961  12.439  0.00  0.00    +0.000 A 
ATOM     12  C   UNL     1       4.407 -10.038  12.992  0.00  0.00    +0.000 A 
ATOM     13  C   UNL     1       2.611 -10.525  11.471  0.00  0.00    +0.000 A 
ATOM     14  C   UNL     1       4.391  -8.704  12.588  0.00  0.00    +0.000 A 
ATOM     15  C   UNL     1       2.591  -9.192  11.064  0.00  0.00    +0.000 A 
ATOM     16  C   UNL     1       3.482  -8.281  11.623  0.00  0.00    +0.000 A 
ENDBRANCH   6  11
BRANCH   8  17
ATOM     17  N   UNL     1       3.044 -17.285  15.972  0.00  0.00    +0.000 NA
ATOM     18  H   UNL     1       3.802 -17.954  16.058  0.00  0.00    +0.000 HD
ATOM     19  H   UNL     1       2.612 -17.036  16.853  0.00  0.00    +0.000 HD
ENDBRANCH   8  17
TORSDOF 2
ENDMDL
MODEL 3
REMARK VINA RESULT:      -5.2     15.796     17.274
REMARK  Name = PhIP.pdbqt.pdb
REMARK  2 active torsions:
REMARK  status: ('A' for Active; 'I' for Inactive)
REMARK    1  A    between atoms: N_4  and  C_9
REMARK    2  A    between atoms: C_7  and  C_10
REMARK                            x       y       z     vdW  Elec       q    Type
REMARK                         _______ _______ _______ _____ _____    ______ ____
ROOT
ATOM      1  N   UNL     1     -10.438  -4.111  21.002  0.00  0.00    +0.000 N 
ATOM      2  N   UNL     1     -11.916  -3.676  22.819  0.00  0.00    +0.000 NA
ATOM      3  N   UNL     1     -11.532  -1.283  22.942  0.00  0.00    +0.000 NA
ATOM      4  C   UNL     1     -10.411  -2.766  21.217  0.00  0.00    +0.000 C 
ATOM      5  C   UNL     1     -11.374  -2.563  22.395  0.00  0.00    +0.000 C 
ATOM      6  C   UNL     1      -9.709  -0.449  21.481  0.00  0.00    +0.000 C 
ATOM      7  C   UNL     1      -9.651  -1.759  20.909  0.00  0.00    +0.000 C 
ATOM      8  C   UNL     1     -11.309  -4.597  21.980  0.00  0.00    +0.000 C 
ATOM      9  C   UNL     1      -9.272  -4.854  20.556  0.00  0.00    +0.000 C 
ATOM     10  C   UNL     1     -10.754  -0.537  22.463  0.00  0.00    +0.000 C 
ENDROOT
BRANCH   6  11
ATOM     11  C   UNL     1      -8.945   0.723  21.101  0.00  0.00    +0.000 A 
ATOM     12  C   UNL     1      -9.385   1.556  20.069  0.00  0.00    +0.000 A 
ATOM     13  C   UNL     1      -7.756   1.042  21.760  0.00  0.00    +0.000 A 
ATOM     14  C   UNL     1      -8.652   2.684  19.702  0.00  0.00    +0.000 A 
ATOM     15  C   UNL     1      -7.019   2.168  21.397  0.00  0.00    +0.000 A 
ATOM     16  C   UNL     1      -7.469   2.989  20.366  0.00  0.00    +0.000 A 
ENDBRANCH   6  11
BRANCH   8  17
ATOM     17  N   UNL     1     -11.549  -5.955  22.248  0.00  0.00    +0.000 NA
ATOM     18  H   UNL     1     -11.639  -6.163  23.236  0.00  0.00    +0.000 HD
ATOM     19  H   UNL     1     -12.287  -6.344  21.675  0.00  0.00    +0.000 HD
ENDBRANCH   8  17
TORSDOF 2
ENDMDL
MODEL 4
REMARK VINA RESULT:      -5.2     14.432     15.690
REMARK  Name = PhIP.pdbqt.pdb
REMARK  2 active torsions:
REMARK  status: ('A' for Active; 'I' for Inactive)
REMARK    1  A    between atoms: N_4  and  C_9
REMARK    2  A    between atoms: C_7  and  C_10
REMARK                            x       y       z     vdW  Elec       q    Type
REMARK                         _______ _______ _______ _____ _____    ______ ____
ROOT
ATOM      1  N   UNL     1     -11.789 -16.755   7.120  0.00  0.00    +0.000 N 
ATOM      2  N   UNL     1      -9.510 -16.145   7.453  0.00  0.00    +0.000 NA
ATOM      3  N   UNL     1      -9.578 -16.073   9.878  0.00  0.00    +0.000 NA
ATOM      4  C   UNL     1     -11.589 -16.701   8.467  0.00  0.00    +0.000 C 
ATOM      5  C   UNL     1     -10.114 -16.300   8.604  0.00  0.00    +0.000 C 
ATOM      6  C   UNL     1     -11.843 -16.327  10.859  0.00  0.00    +0.000 C 
ATOM      7  C   UNL     1     -12.313 -16.628   9.543  0.00  0.00    +0.000 C 
ATOM      8  C   UNL     1     -10.553 -16.395   6.577  0.00  0.00    +0.000 C 
ATOM      9  C   UNL     1     -13.050 -16.386   6.502  0.00  0.00    +0.000 C 
ATOM     10  C   UNL     1     -10.434 -16.102  10.690  0.00  0.00    +0.000 C 
ENDROOT
BRANCH   6  11
ATOM     11  C   UNL     1     -12.599 -16.327  12.097  0.00  0.00    +0.000 A 
ATOM     12  C   UNL     1     -12.416 -17.338  13.042  0.00  0.00    +0.000 A 
ATOM     13  C   UNL     1     -13.523 -15.315  12.366  0.00  0.00    +0.000 A 
ATOM     14  C   UNL     1     -13.141 -17.340  14.233  0.00  0.00    +0.000 A 
ATOM     15  C   UNL     1     -14.251 -15.312  13.555  0.00  0.00    +0.000 A 
ATOM     16  C   UNL     1     -14.059 -16.327  14.488  0.00  0.00    +0.000 A 
ENDBRANCH   6  11
BRANCH   8  17
ATOM     17  N   UNL     1     -10.303 -16.172   5.212  0.00  0.00    +0.000 NA
ATOM     18  H   UNL     1     -11.093 -15.774   4.715  0.00  0.00    +0.000 HD
ATOM     19  H   UNL     1      -9.427 -15.694   5.046  0.00  0.00    +0.000 HD
ENDBRANCH   8  17
TORSDOF 2
ENDMDL
MODEL 5
REMARK VINA RESULT:      -5.1     26.699     27.916
REMARK  Name = PhIP.pdbqt.pdb
REMARK  2 active torsions:
REMARK  status: ('A' for Active; 'I' for Inactive)
REMARK    1  A    between atoms: N_4  and  C_9
REMARK    2  A    between atoms: C_7  and  C_10
REMARK                            x       y       z     vdW  Elec       q    Type
REMARK                         _______ _______ _______ _____ _____    ______ ____
ROOT
ATOM      1  N   UNL     1       6.342 -15.191  13.713  0.00  0.00    +0.000 N 
ATOM      2  N   UNL     1       4.371 -16.161  14.634  0.00  0.00    +0.000 NA
ATOM      3  N   UNL     1       2.849 -14.375  14.014  0.00  0.00    +0.000 NA
ATOM      4  C   UNL     1       5.316 -14.342  13.427  0.00  0.00    +0.000 C 
ATOM      5  C   UNL     1       4.090 -15.024  14.051  0.00  0.00    +0.000 C 
ATOM      6  C   UNL     1       3.945 -12.363  13.064  0.00  0.00    +0.000 C 
ATOM      7  C   UNL     1       5.167 -13.106  13.057  0.00  0.00    +0.000 C 
ATOM      8  C   UNL     1       5.741 -16.221  14.441  0.00  0.00    +0.000 C 
ATOM      9  C   UNL     1       7.689 -14.723  13.988  0.00  0.00    +0.000 C 
ATOM     10  C   UNL     1       2.975 -13.280  13.595  0.00  0.00    +0.000 C 
ENDROOT
BRANCH   6  11
ATOM     11  C   UNL     1       3.718 -11.017  12.573  0.00  0.00    +0.000 A 
ATOM     12  C   UNL     1       4.459  -9.944  13.073  0.00  0.00    +0.000 A 
ATOM     13  C   UNL     1       2.757 -10.770  11.591  0.00  0.00    +0.000 A 
ATOM     14  C   UNL     1       4.244  -8.649  12.602  0.00  0.00    +0.000 A 
ATOM     15  C   UNL     1       2.537  -9.478  11.118  0.00  0.00    +0.000 A 
ATOM     16  C   UNL     1       3.282  -8.417  11.625  0.00  0.00    +0.000 A 
ENDBRANCH   6  11
BRANCH   8  17
ATOM     17  N   UNL     1       6.427 -17.268  15.079  0.00  0.00    +0.000 NA
ATOM     18  H   UNL     1       7.117 -16.950  15.752  0.00  0.00    +0.000 HD
ATOM     19  H   UNL     1       5.808 -17.987  15.432  0.00  0.00    +0.000 HD
ENDBRANCH   8  17
TORSDOF 2
ENDMDL
MODEL 6
REMARK VINA RESULT:      -5.1     16.414     17.901
REMARK  Name = PhIP.pdbqt.pdb
REMARK  2 active torsions:
REMARK  status: ('A' for Active; 'I' for Inactive)
REMARK    1  A    between atoms: N_4  and  C_9
REMARK    2  A    between atoms: C_7  and  C_10
REMARK                            x       y       z     vdW  Elec       q    Type
REMARK                         _______ _______ _______ _____ _____    ______ ____
ROOT
ATOM      1  N   UNL     1     -11.425  -5.658  24.652  0.00  0.00    +0.000 N 
ATOM      2  N   UNL     1      -9.345  -6.698  25.169  0.00  0.00    +0.000 NA
ATOM      3  N   UNL     1      -7.916  -4.969  24.241  0.00  0.00    +0.000 NA
ATOM      4  C   UNL     1     -10.447  -4.804  24.242  0.00  0.00    +0.000 C 
ATOM      5  C   UNL     1      -9.146  -5.537  24.600  0.00  0.00    +0.000 C 
ATOM      6  C   UNL     1      -9.115  -3.193  22.993  0.00  0.00    +0.000 C 
ATOM      7  C   UNL     1     -10.336  -3.775  23.457  0.00  0.00    +0.000 C 
ATOM      8  C   UNL     1     -10.729  -6.758  25.159  0.00  0.00    +0.000 C 
ATOM      9  C   UNL     1     -12.690  -5.791  23.950  0.00  0.00    +0.000 C 
ATOM     10  C   UNL     1      -8.088  -4.019  23.564  0.00  0.00    +0.000 C 
ENDROOT
BRANCH   6  11
ATOM     11  C   UNL     1      -8.948  -1.994  22.195  0.00  0.00    +0.000 A 
ATOM     12  C   UNL     1      -9.670  -1.820  21.012  0.00  0.00    +0.000 A 
ATOM     13  C   UNL     1      -8.062  -0.990  22.595  0.00  0.00    +0.000 A 
ATOM     14  C   UNL     1      -9.511  -0.668  20.243  0.00  0.00    +0.000 A 
ATOM     15  C   UNL     1      -7.899   0.163  21.829  0.00  0.00    +0.000 A 
ATOM     16  C   UNL     1      -8.625   0.323  20.652  0.00  0.00    +0.000 A 
ENDBRANCH   6  11
BRANCH   8  17
ATOM     17  N   UNL     1     -11.315  -7.966  25.574  0.00  0.00    +0.000 NA
ATOM     18  H   UNL     1     -11.375  -8.661  24.838  0.00  0.00    +0.000 HD
ATOM     19  H   UNL     1     -10.925  -8.315  26.441  0.00  0.00    +0.000 HD
ENDBRANCH   8  17
TORSDOF 2
ENDMDL
MODEL 7
REMARK VINA RESULT:      -5.1      2.316      2.721
REMARK  Name = PhIP.pdbqt.pdb
REMARK  2 active torsions:
REMARK  status: ('A' for Active; 'I' for Inactive)
REMARK    1  A    between atoms: N_4  and  C_9
REMARK    2  A    between atoms: C_7  and  C_10
REMARK                            x       y       z     vdW  Elec       q    Type
REMARK                         _______ _______ _______ _____ _____    ______ ____
ROOT
ATOM      1  N   UNL     1     -23.286  -5.154  13.954  0.00  0.00    +0.000 N 
ATOM      2  N   UNL     1     -21.497  -6.708  13.703  0.00  0.00    +0.000 NA
ATOM      3  N   UNL     1     -20.689  -5.881  11.569  0.00  0.00    +0.000 NA
ATOM      4  C   UNL     1     -22.643  -4.830  12.797  0.00  0.00    +0.000 C 
ATOM      5  C   UNL     1     -21.516  -5.869  12.700  0.00  0.00    +0.000 C 
ATOM      6  C   UNL     1     -22.123  -4.153  10.517  0.00  0.00    +0.000 C 
ATOM      7  C   UNL     1     -22.882  -4.132  11.728  0.00  0.00    +0.000 C 
ATOM      8  C   UNL     1     -22.595  -6.272  14.428  0.00  0.00    +0.000 C 
ATOM      9  C   UNL     1     -24.720  -4.993  14.122  0.00  0.00    +0.000 C 
ATOM     10  C   UNL     1     -21.095  -5.126  10.759  0.00  0.00    +0.000 C 
ENDROOT
BRANCH   6  11
ATOM     11  C   UNL     1     -22.300  -3.324   9.340  0.00  0.00    +0.000 A 
ATOM     12  C   UNL     1     -22.638  -1.974   9.465  0.00  0.00    +0.000 A 
ATOM     13  C   UNL     1     -22.134  -3.859   8.061  0.00  0.00    +0.000 A 
ATOM     14  C   UNL     1     -22.809  -1.175   8.336  0.00  0.00    +0.000 A 
ATOM     15  C   UNL     1     -22.304  -3.064   6.928  0.00  0.00    +0.000 A 
ATOM     16  C   UNL     1     -22.642  -1.721   7.067  0.00  0.00    +0.000 A 
ENDBRANCH   6  11
BRANCH   8  17
ATOM     17  N   UNL     1     -22.978  -7.052  15.531  0.00  0.00    +0.000 NA
ATOM     18  H   UNL     1     -23.701  -7.731  15.316  0.00  0.00    +0.000 HD
ATOM     19  H   UNL     1     -22.188  -7.436  16.035  0.00  0.00    +0.000 HD
ENDBRANCH   8  17
TORSDOF 2
ENDMDL
MODEL 8
REMARK VINA RESULT:      -5.0      1.343      1.651
REMARK  Name = PhIP.pdbqt.pdb
REMARK  2 active torsions:
REMARK  status: ('A' for Active; 'I' for Inactive)
REMARK    1  A    between atoms: N_4  and  C_9
REMARK    2  A    between atoms: C_7  and  C_10
REMARK                            x       y       z     vdW  Elec       q    Type
REMARK                         _______ _______ _______ _____ _____    ______ ____
ROOT
ATOM      1  N   UNL     1     -24.763  -8.991  11.301  0.00  0.00    +0.000 N 
ATOM      2  N   UNL     1     -24.340  -7.907  13.380  0.00  0.00    +0.000 NA
ATOM      3  N   UNL     1     -22.850  -6.195  12.520  0.00  0.00    +0.000 NA
ATOM      4  C   UNL     1     -23.952  -7.929  11.033  0.00  0.00    +0.000 C 
ATOM      5  C   UNL     1     -23.719  -7.288  12.409  0.00  0.00    +0.000 C 
ATOM      6  C   UNL     1     -22.217  -6.474  10.138  0.00  0.00    +0.000 C 
ATOM      7  C   UNL     1     -23.178  -7.531  10.069  0.00  0.00    +0.000 C 
ATOM      8  C   UNL     1     -24.936  -8.948  12.687  0.00  0.00    +0.000 C 
ATOM      9  C   UNL     1     -24.686 -10.239  10.563  0.00  0.00    +0.000 C 
ATOM     10  C   UNL     1     -22.298  -6.008  11.494  0.00  0.00    +0.000 C 
ENDROOT
BRANCH   6  11
ATOM     11  C   UNL     1     -21.403  -5.939   9.063  0.00  0.00    +0.000 A 
ATOM     12  C   UNL     1     -20.422  -4.980   9.323  0.00  0.00    +0.000 A 
ATOM     13  C   UNL     1     -21.584  -6.376   7.749  0.00  0.00    +0.000 A 
ATOM     14  C   UNL     1     -19.639  -4.464   8.292  0.00  0.00    +0.000 A 
ATOM     15  C   UNL     1     -20.804  -5.863   6.714  0.00  0.00    +0.000 A 
ATOM     16  C   UNL     1     -19.830  -4.906   6.987  0.00  0.00    +0.000 A 
ENDBRANCH   6  11
BRANCH   8  17
ATOM     17  N   UNL     1     -25.588  -9.929  13.452  0.00  0.00    +0.000 NA
ATOM     18  H   UNL     1     -25.028 -10.282  14.221  0.00  0.00    +0.000 HD
ATOM     19  H   UNL     1     -26.529  -9.663  13.715  0.00  0.00    +0.000 HD
ENDBRANCH   8  17
TORSDOF 2
ENDMDL
MODEL 9
REMARK VINA RESULT:      -4.9     21.333     23.043
REMARK  Name = PhIP.pdbqt.pdb
REMARK  2 active torsions:
REMARK  status: ('A' for Active; 'I' for Inactive)
REMARK    1  A    between atoms: N_4  and  C_9
REMARK    2  A    between atoms: C_7  and  C_10
REMARK                            x       y       z     vdW  Elec       q    Type
REMARK                         _______ _______ _______ _____ _____    ______ ____
ROOT
ATOM      1  N   UNL     1      -1.258  -6.323   0.527  0.00  0.00    +0.000 N 
ATOM      2  N   UNL     1      -3.632  -6.324   0.334  0.00  0.00    +0.000 NA
ATOM      3  N   UNL     1      -4.034  -4.329   1.656  0.00  0.00    +0.000 NA
ATOM      4  C   UNL     1      -1.706  -5.217   1.184  0.00  0.00    +0.000 C 
ATOM      5  C   UNL     1      -3.231  -5.287   1.024  0.00  0.00    +0.000 C 
ATOM      6  C   UNL     1      -2.027  -3.418   2.794  0.00  0.00    +0.000 C 
ATOM      7  C   UNL     1      -1.253  -4.370   2.058  0.00  0.00    +0.000 C 
ATOM      8  C   UNL     1      -2.423  -6.947   0.073  0.00  0.00    +0.000 C 
ATOM      9  C   UNL     1      -0.090  -7.069   0.960  0.00  0.00    +0.000 C 
ATOM     10  C   UNL     1      -3.377  -3.651   2.364  0.00  0.00    +0.000 C 
ENDROOT
BRANCH   6  11
ATOM     11  C   UNL     1      -1.549  -2.396   3.705  0.00  0.00    +0.000 A 
ATOM     12  C   UNL     1      -2.372  -1.910   4.723  0.00  0.00    +0.000 A 
ATOM     13  C   UNL     1      -0.257  -1.880   3.582  0.00  0.00    +0.000 A 
ATOM     14  C   UNL     1      -1.916  -0.928   5.601  0.00  0.00    +0.000 A 
ATOM     15  C   UNL     1       0.204  -0.897   4.456  0.00  0.00    +0.000 A 
ATOM     16  C   UNL     1      -0.627  -0.422   5.467  0.00  0.00    +0.000 A 
ENDBRANCH   6  11
BRANCH   8  17
ATOM     17  N   UNL     1      -2.477  -8.208  -0.544  0.00  0.00    +0.000 NA
ATOM     18  H   UNL     1      -3.414  -8.483  -0.820  0.00  0.00    +0.000 HD
ATOM     19  H   UNL     1      -1.783  -8.319  -1.272  0.00  0.00    +0.000 HD
ENDBRANCH   8  17
TORSDOF 2
ENDMDL
