MODEL 1
REMARK VINA RESULT:      -6.4      0.000      0.000
REMARK  Name = Piroxicam.pdbqt.pdb
REMARK  3 active torsions:
REMARK  status: ('A' for Active; 'I' for Inactive)
REMARK    1  A    between atoms: C_7  and  C_14
REMARK    2  A    between atoms: C_8  and  O_24
REMARK    3  A    between atoms: N_16  and  C_18
REMARK                            x       y       z     vdW  Elec       q    Type
REMARK                         _______ _______ _______ _____ _____    ______ ____
ROOT
ATOM      1  S   UNL     1     -23.079  -7.386   8.951  0.00  0.00    +0.000 S 
ATOM      2  O   UNL     1     -22.481  -8.564   9.552  0.00  0.00    +0.000 OA
ATOM      3  O   UNL     1     -23.981  -7.508   7.822  0.00  0.00    +0.000 OA
ATOM      4  N   UNL     1     -23.800  -6.441  10.197  0.00  0.00    +0.000 N 
ATOM      5  C   UNL     1     -21.752  -6.349   8.473  0.00  0.00    +0.000 A 
ATOM      6  C   UNL     1     -21.162  -5.563   9.461  0.00  0.00    +0.000 A 
ATOM      7  C   UNL     1     -22.871  -6.023  11.209  0.00  0.00    +0.000 C 
ATOM      8  C   UNL     1     -21.629  -5.615  10.860  0.00  0.00    +0.000 C 
ATOM      9  C   UNL     1     -21.349  -6.312   7.143  0.00  0.00    +0.000 A 
ATOM     10  C   UNL     1     -24.730  -5.364   9.817  0.00  0.00    +0.000 C 
ATOM     11  C   UNL     1     -20.097  -4.743   9.083  0.00  0.00    +0.000 A 
ATOM     12  C   UNL     1     -20.295  -5.478   6.788  0.00  0.00    +0.000 A 
ATOM     13  C   UNL     1     -19.666  -4.699   7.756  0.00  0.00    +0.000 A 
ENDROOT
BRANCH   7  14
ATOM     14  C   UNL     1     -23.305  -6.067  12.644  0.00  0.00    +0.000 C 
ATOM     15  O   UNL     1     -23.247  -5.042  13.322  0.00  0.00    +0.000 OA
ATOM     16  N   UNL     1     -23.735  -7.292  13.083  0.00  0.00    +0.000 N 
ATOM     17  H   UNL     1     -23.813  -8.071  12.439  0.00  0.00    +0.000 HD
BRANCH  16  18
ATOM     18  C   UNL     1     -24.163  -7.608  14.373  0.00  0.00    +0.000 A 
ATOM     19  N   UNL     1     -23.191  -7.560  15.307  0.00  0.00    +0.000 NA
ATOM     20  C   UNL     1     -23.552  -7.854  16.578  0.00  0.00    +0.000 A 
ATOM     21  C   UNL     1     -24.836  -8.191  16.966  0.00  0.00    +0.000 A 
ATOM     22  C   UNL     1     -25.813  -8.229  15.981  0.00  0.00    +0.000 A 
ATOM     23  C   UNL     1     -25.480  -7.934  14.664  0.00  0.00    +0.000 A 
ENDBRANCH  16  18
ENDBRANCH   7  14
BRANCH   8  24
ATOM     24  O   UNL     1     -20.675  -5.193  11.771  0.00  0.00    +0.000 OA
ATOM     25  H   UNL     1     -19.987  -5.889  11.876  0.00  0.00    +0.000 HD
ENDBRANCH   8  24
TORSDOF 3
ENDMDL
MODEL 2
REMARK VINA RESULT:      -6.3     17.007     18.304
REMARK  Name = Piroxicam.pdbqt.pdb
REMARK  3 active torsions:
REMARK  status: ('A' for Active; 'I' for Inactive)
REMARK    1  A    between atoms: C_7  and  C_14
REMARK    2  A    between atoms: C_8  and  O_24
REMARK    3  A    between atoms: N_16  and  C_18
REMARK                            x       y       z     vdW  Elec       q    Type
REMARK                         _______ _______ _______ _____ _____    ______ ____
ROOT
ATOM      1  S   UNL     1     -11.337  -4.257  22.535  0.00  0.00    +0.000 S 
ATOM      2  O   UNL     1     -11.244  -5.536  21.856  0.00  0.00    +0.000 OA
ATOM      3  O   UNL     1     -12.404  -3.328  22.219  0.00  0.00    +0.000 OA
ATOM      4  N   UNL     1     -11.264  -4.533  24.233  0.00  0.00    +0.000 N 
ATOM      5  C   UNL     1      -9.811  -3.443  22.264  0.00  0.00    +0.000 A 
ATOM      6  C   UNL     1      -8.735  -3.809  23.070  0.00  0.00    +0.000 A 
ATOM      7  C   UNL     1     -10.061  -5.193  24.655  0.00  0.00    +0.000 C 
ATOM      8  C   UNL     1      -8.873  -4.854  24.103  0.00  0.00    +0.000 C 
ATOM      9  C   UNL     1      -9.721  -2.452  21.294  0.00  0.00    +0.000 A 
ATOM     10  C   UNL     1     -11.645  -3.438  25.142  0.00  0.00    +0.000 C 
ATOM     11  C   UNL     1      -7.515  -3.166  22.848  0.00  0.00    +0.000 A 
ATOM     12  C   UNL     1      -8.500  -1.817  21.100  0.00  0.00    +0.000 A 
ATOM     13  C   UNL     1      -7.397  -2.177  21.871  0.00  0.00    +0.000 A 
ENDROOT
BRANCH   7  14
ATOM     14  C   UNL     1     -10.159  -6.266  25.698  0.00  0.00    +0.000 C 
ATOM     15  O   UNL     1      -9.557  -6.129  26.762  0.00  0.00    +0.000 OA
ATOM     16  N   UNL     1     -10.934  -7.343  25.353  0.00  0.00    +0.000 N 
ATOM     17  H   UNL     1     -11.451  -7.346  24.480  0.00  0.00    +0.000 HD
BRANCH  16  18
ATOM     18  C   UNL     1     -11.166  -8.481  26.126  0.00  0.00    +0.000 A 
ATOM     19  N   UNL     1     -10.184  -9.403  26.063  0.00  0.00    +0.000 NA
ATOM     20  C   UNL     1     -10.355 -10.527  26.798  0.00  0.00    +0.000 A 
ATOM     21  C   UNL     1     -11.458 -10.777  27.595  0.00  0.00    +0.000 A 
ATOM     22  C   UNL     1     -12.448  -9.807  27.639  0.00  0.00    +0.000 A 
ATOM     23  C   UNL     1     -12.308  -8.640  26.898  0.00  0.00    +0.000 A 
ENDBRANCH  16  18
ENDBRANCH   7  14
BRANCH   8  24
ATOM     24  O   UNL     1      -7.668  -5.438  24.454  0.00  0.00    +0.000 OA
ATOM     25  H   UNL     1      -7.740  -6.417  24.379  0.00  0.00    +0.000 HD
ENDBRANCH   8  24
TORSDOF 3
ENDMDL
MODEL 3
REMARK VINA RESULT:      -6.2     16.148     18.995
REMARK  Name = Piroxicam.pdbqt.pdb
REMARK  3 active torsions:
REMARK  status: ('A' for Active; 'I' for Inactive)
REMARK    1  A    between atoms: C_7  and  C_14
REMARK    2  A    between atoms: C_8  and  O_24
REMARK    3  A    between atoms: N_16  and  C_18
REMARK                            x       y       z     vdW  Elec       q    Type
REMARK                         _______ _______ _______ _____ _____    ______ ____
ROOT
ATOM      1  S   UNL     1      -9.035  -3.656  25.973  0.00  0.00    +0.000 S 
ATOM      2  O   UNL     1      -7.959  -4.628  26.034  0.00  0.00    +0.000 OA
ATOM      3  O   UNL     1      -9.021  -2.482  26.824  0.00  0.00    +0.000 OA
ATOM      4  N   UNL     1      -9.271  -3.203  24.328  0.00  0.00    +0.000 N 
ATOM      5  C   UNL     1     -10.515  -4.537  26.291  0.00  0.00    +0.000 A 
ATOM      6  C   UNL     1     -11.079  -5.249  25.234  0.00  0.00    +0.000 A 
ATOM      7  C   UNL     1      -9.597  -4.307  23.471  0.00  0.00    +0.000 C 
ATOM      8  C   UNL     1     -10.444  -5.272  23.902  0.00  0.00    +0.000 C 
ATOM      9  C   UNL     1     -11.094  -4.480  27.553  0.00  0.00    +0.000 A 
ATOM     10  C   UNL     1     -10.086  -2.012  24.035  0.00  0.00    +0.000 C 
ATOM     11  C   UNL     1     -12.253  -5.959  25.489  0.00  0.00    +0.000 A 
ATOM     12  C   UNL     1     -12.270  -5.185  27.780  0.00  0.00    +0.000 A 
ATOM     13  C   UNL     1     -12.847  -5.928  26.752  0.00  0.00    +0.000 A 
ENDROOT
BRANCH   7  14
ATOM     14  C   UNL     1      -8.969  -4.371  22.111  0.00  0.00    +0.000 C 
ATOM     15  O   UNL     1      -7.775  -4.106  21.987  0.00  0.00    +0.000 OA
ATOM     16  N   UNL     1      -9.818  -4.728  21.095  0.00  0.00    +0.000 N 
ATOM     17  H   UNL     1     -10.775  -4.995  21.295  0.00  0.00    +0.000 HD
BRANCH  16  18
ATOM     18  C   UNL     1      -9.495  -4.834  19.742  0.00  0.00    +0.000 A 
ATOM     19  N   UNL     1      -8.610  -5.810  19.458  0.00  0.00    +0.000 NA
ATOM     20  C   UNL     1      -8.264  -5.960  18.158  0.00  0.00    +0.000 A 
ATOM     21  C   UNL     1      -8.759  -5.185  17.125  0.00  0.00    +0.000 A 
ATOM     22  C   UNL     1      -9.670  -4.191  17.451  0.00  0.00    +0.000 A 
ATOM     23  C   UNL     1     -10.049  -4.006  18.775  0.00  0.00    +0.000 A 
ENDBRANCH  16  18
ENDBRANCH   7  14
BRANCH   8  24
ATOM     24  O   UNL     1     -10.814  -6.366  23.139  0.00  0.00    +0.000 OA
ATOM     25  H   UNL     1     -11.108  -7.097  23.729  0.00  0.00    +0.000 HD
ENDBRANCH   8  24
TORSDOF 3
ENDMDL
MODEL 4
REMARK VINA RESULT:      -6.0     15.864     17.760
REMARK  Name = Piroxicam.pdbqt.pdb
REMARK  3 active torsions:
REMARK  status: ('A' for Active; 'I' for Inactive)
REMARK    1  A    between atoms: C_7  and  C_14
REMARK    2  A    between atoms: C_8  and  O_24
REMARK    3  A    between atoms: N_16  and  C_18
REMARK                            x       y       z     vdW  Elec       q    Type
REMARK                         _______ _______ _______ _____ _____    ______ ____
ROOT
ATOM      1  S   UNL     1      -9.700  -1.882  22.737  0.00  0.00    +0.000 S 
ATOM      2  O   UNL     1     -10.930  -1.390  23.331  0.00  0.00    +0.000 OA
ATOM      3  O   UNL     1      -8.556  -1.007  22.573  0.00  0.00    +0.000 OA
ATOM      4  N   UNL     1      -9.239  -3.327  23.552  0.00  0.00    +0.000 N 
ATOM      5  C   UNL     1     -10.132  -2.512  21.162  0.00  0.00    +0.000 A 
ATOM      6  C   UNL     1     -10.685  -3.789  21.109  0.00  0.00    +0.000 A 
ATOM      7  C   UNL     1     -10.230  -4.363  23.486  0.00  0.00    +0.000 C 
ATOM      8  C   UNL     1     -10.913  -4.575  22.337  0.00  0.00    +0.000 C 
ATOM      9  C   UNL     1      -9.888  -1.750  20.024  0.00  0.00    +0.000 A 
ATOM     10  C   UNL     1      -7.876  -3.848  23.346  0.00  0.00    +0.000 C 
ATOM     11  C   UNL     1     -11.038  -4.288  19.854  0.00  0.00    +0.000 A 
ATOM     12  C   UNL     1     -10.236  -2.273  18.785  0.00  0.00    +0.000 A 
ATOM     13  C   UNL     1     -10.815  -3.537  18.698  0.00  0.00    +0.000 A 
ENDROOT
BRANCH   7  14
ATOM     14  C   UNL     1     -10.497  -5.181  24.714  0.00  0.00    +0.000 C 
ATOM     15  O   UNL     1     -10.924  -4.628  25.726  0.00  0.00    +0.000 OA
ATOM     16  N   UNL     1     -10.223  -6.519  24.592  0.00  0.00    +0.000 N 
ATOM     17  H   UNL     1      -9.935  -6.906  23.700  0.00  0.00    +0.000 HD
BRANCH  16  18
ATOM     18  C   UNL     1     -10.356  -7.489  25.587  0.00  0.00    +0.000 A 
ATOM     19  N   UNL     1     -11.630  -7.844  25.848  0.00  0.00    +0.000 NA
ATOM     20  C   UNL     1     -11.817  -8.784  26.803  0.00  0.00    +0.000 A 
ATOM     21  C   UNL     1     -10.795  -9.392  27.510  0.00  0.00    +0.000 A 
ATOM     22  C   UNL     1      -9.496  -9.006  27.215  0.00  0.00    +0.000 A 
ATOM     23  C   UNL     1      -9.264  -8.042  26.241  0.00  0.00    +0.000 A 
ENDBRANCH  16  18
ENDBRANCH   7  14
BRANCH   8  24
ATOM     24  O   UNL     1     -11.881  -5.554  22.188  0.00  0.00    +0.000 OA
ATOM     25  H   UNL     1     -11.577  -6.388  22.613  0.00  0.00    +0.000 HD
ENDBRANCH   8  24
TORSDOF 3
ENDMDL
MODEL 5
REMARK VINA RESULT:      -5.9     17.413     19.143
REMARK  Name = Piroxicam.pdbqt.pdb
REMARK  3 active torsions:
REMARK  status: ('A' for Active; 'I' for Inactive)
REMARK    1  A    between atoms: C_7  and  C_14
REMARK    2  A    between atoms: C_8  and  O_24
REMARK    3  A    between atoms: N_16  and  C_18
REMARK                            x       y       z     vdW  Elec       q    Type
REMARK                         _______ _______ _______ _____ _____    ______ ____
ROOT
ATOM      1  S   UNL     1     -10.366  -4.178  21.361  0.00  0.00    +0.000 S 
ATOM      2  O   UNL     1      -9.459  -5.174  20.822  0.00  0.00    +0.000 OA
ATOM      3  O   UNL     1     -11.655  -3.938  20.740  0.00  0.00    +0.000 OA
ATOM      4  N   UNL     1     -10.557  -4.466  23.048  0.00  0.00    +0.000 N 
ATOM      5  C   UNL     1      -9.484  -2.666  21.379  0.00  0.00    +0.000 A 
ATOM      6  C   UNL     1      -8.600  -2.450  22.434  0.00  0.00    +0.000 A 
ATOM      7  C   UNL     1      -9.324  -4.412  23.781  0.00  0.00    +0.000 C 
ATOM      8  C   UNL     1      -8.402  -3.465  23.487  0.00  0.00    +0.000 C 
ATOM      9  C   UNL     1      -9.707  -1.725  20.380  0.00  0.00    +0.000 A 
ATOM     10  C   UNL     1     -11.657  -3.791  23.759  0.00  0.00    +0.000 C 
ATOM     11  C   UNL     1      -7.889  -1.248  22.444  0.00  0.00    +0.000 A 
ATOM     12  C   UNL     1      -8.998  -0.531  20.419  0.00  0.00    +0.000 A 
ATOM     13  C   UNL     1      -8.085  -0.294  21.445  0.00  0.00    +0.000 A 
ENDROOT
BRANCH   7  14
ATOM     14  C   UNL     1      -9.082  -5.429  24.856  0.00  0.00    +0.000 C 
ATOM     15  O   UNL     1      -9.391  -6.603  24.654  0.00  0.00    +0.000 OA
ATOM     16  N   UNL     1      -8.523  -4.937  26.007  0.00  0.00    +0.000 N 
ATOM     17  H   UNL     1      -8.238  -3.966  26.066  0.00  0.00    +0.000 HD
BRANCH  16  18
ATOM     18  C   UNL     1      -8.224  -5.662  27.161  0.00  0.00    +0.000 A 
ATOM     19  N   UNL     1      -7.039  -6.304  27.121  0.00  0.00    +0.000 NA
ATOM     20  C   UNL     1      -6.696  -7.020  28.216  0.00  0.00    +0.000 A 
ATOM     21  C   UNL     1      -7.476  -7.127  29.354  0.00  0.00    +0.000 A 
ATOM     22  C   UNL     1      -8.688  -6.452  29.364  0.00  0.00    +0.000 A 
ATOM     23  C   UNL     1      -9.075  -5.706  28.256  0.00  0.00    +0.000 A 
ENDBRANCH  16  18
ENDBRANCH   7  14
BRANCH   8  24
ATOM     24  O   UNL     1      -7.191  -3.341  24.147  0.00  0.00    +0.000 OA
ATOM     25  H   UNL     1      -7.062  -4.108  24.750  0.00  0.00    +0.000 HD
ENDBRANCH   8  24
TORSDOF 3
ENDMDL
MODEL 6
REMARK VINA RESULT:      -5.6      2.218      7.098
REMARK  Name = Piroxicam.pdbqt.pdb
REMARK  3 active torsions:
REMARK  status: ('A' for Active; 'I' for Inactive)
REMARK    1  A    between atoms: C_7  and  C_14
REMARK    2  A    between atoms: C_8  and  O_24
REMARK    3  A    between atoms: N_16  and  C_18
REMARK                            x       y       z     vdW  Elec       q    Type
REMARK                         _______ _______ _______ _____ _____    ______ ____
ROOT
ATOM      1  S   UNL     1     -25.255  -4.570  13.060  0.00  0.00    +0.000 S 
ATOM      2  O   UNL     1     -24.312  -3.467  13.085  0.00  0.00    +0.000 OA
ATOM      3  O   UNL     1     -26.682  -4.323  12.995  0.00  0.00    +0.000 OA
ATOM      4  N   UNL     1     -24.778  -5.670  11.824  0.00  0.00    +0.000 N 
ATOM      5  C   UNL     1     -24.936  -5.523  14.494  0.00  0.00    +0.000 A 
ATOM      6  C   UNL     1     -23.867  -6.417  14.448  0.00  0.00    +0.000 A 
ATOM      7  C   UNL     1     -23.455  -6.197  12.005  0.00  0.00    +0.000 C 
ATOM      8  C   UNL     1     -23.027  -6.543  13.242  0.00  0.00    +0.000 C 
ATOM      9  C   UNL     1     -25.758  -5.391  15.607  0.00  0.00    +0.000 A 
ATOM     10  C   UNL     1     -25.734  -6.705  11.394  0.00  0.00    +0.000 C 
ATOM     11  C   UNL     1     -23.607  -7.170  15.595  0.00  0.00    +0.000 A 
ATOM     12  C   UNL     1     -25.487  -6.160  16.732  0.00  0.00    +0.000 A 
ATOM     13  C   UNL     1     -24.410  -7.045  16.729  0.00  0.00    +0.000 A 
ENDROOT
BRANCH   7  14
ATOM     14  C   UNL     1     -22.567  -6.336  10.805  0.00  0.00    +0.000 C 
ATOM     15  O   UNL     1     -22.297  -7.458  10.382  0.00  0.00    +0.000 OA
ATOM     16  N   UNL     1     -22.117  -5.153  10.276  0.00  0.00    +0.000 N 
ATOM     17  H   UNL     1     -22.442  -4.267  10.646  0.00  0.00    +0.000 HD
BRANCH  16  18
ATOM     18  C   UNL     1     -21.262  -5.005   9.184  0.00  0.00    +0.000 A 
ATOM     19  N   UNL     1     -19.951  -5.040   9.497  0.00  0.00    +0.000 NA
ATOM     20  C   UNL     1     -19.075  -4.905   8.474  0.00  0.00    +0.000 A 
ATOM     21  C   UNL     1     -19.442  -4.738   7.151  0.00  0.00    +0.000 A 
ATOM     22  C   UNL     1     -20.799  -4.709   6.862  0.00  0.00    +0.000 A 
ATOM     23  C   UNL     1     -21.728  -4.844   7.887  0.00  0.00    +0.000 A 
ENDBRANCH  16  18
ENDBRANCH   7  14
BRANCH   8  24
ATOM     24  O   UNL     1     -21.770  -7.061  13.503  0.00  0.00    +0.000 OA
ATOM     25  H   UNL     1     -21.195  -6.358  13.884  0.00  0.00    +0.000 HD
ENDBRANCH   8  24
TORSDOF 3
ENDMDL
MODEL 7
REMARK VINA RESULT:      -5.5      5.915      8.539
REMARK  Name = Piroxicam.pdbqt.pdb
REMARK  3 active torsions:
REMARK  status: ('A' for Active; 'I' for Inactive)
REMARK    1  A    between atoms: C_7  and  C_14
REMARK    2  A    between atoms: C_8  and  O_24
REMARK    3  A    between atoms: N_16  and  C_18
REMARK                            x       y       z     vdW  Elec       q    Type
REMARK                         _______ _______ _______ _____ _____    ______ ____
ROOT
ATOM      1  S   UNL     1     -21.518   1.641   9.756  0.00  0.00    +0.000 S 
ATOM      2  O   UNL     1     -20.142   1.191   9.843  0.00  0.00    +0.000 OA
ATOM      3  O   UNL     1     -21.862   2.830   9.000  0.00  0.00    +0.000 OA
ATOM      4  N   UNL     1     -22.499   0.313   9.265  0.00  0.00    +0.000 N 
ATOM      5  C   UNL     1     -22.067   1.870  11.402  0.00  0.00    +0.000 A 
ATOM      6  C   UNL     1     -22.467   0.738  12.110  0.00  0.00    +0.000 A 
ATOM      7  C   UNL     1     -22.435  -0.807  10.161  0.00  0.00    +0.000 C 
ATOM      8  C   UNL     1     -22.416  -0.604  11.499  0.00  0.00    +0.000 C 
ATOM      9  C   UNL     1     -22.119   3.150  11.941  0.00  0.00    +0.000 A 
ATOM     10  C   UNL     1     -23.874   0.582   8.809  0.00  0.00    +0.000 C 
ATOM     11  C   UNL     1     -22.896   0.919  13.426  0.00  0.00    +0.000 A 
ATOM     12  C   UNL     1     -22.561   3.307  13.249  0.00  0.00    +0.000 A 
ATOM     13  C   UNL     1     -22.944   2.193  13.993  0.00  0.00    +0.000 A 
ENDROOT
BRANCH   7  14
ATOM     14  C   UNL     1     -22.375  -2.188   9.580  0.00  0.00    +0.000 C 
ATOM     15  O   UNL     1     -23.003  -3.097  10.120  0.00  0.00    +0.000 OA
ATOM     16  N   UNL     1     -21.590  -2.314   8.462  0.00  0.00    +0.000 N 
ATOM     17  H   UNL     1     -21.158  -1.499   8.042  0.00  0.00    +0.000 HD
BRANCH  16  18
ATOM     18  C   UNL     1     -21.343  -3.488   7.750  0.00  0.00    +0.000 A 
ATOM     19  N   UNL     1     -22.306  -3.811   6.862  0.00  0.00    +0.000 NA
ATOM     20  C   UNL     1     -22.116  -4.939   6.140  0.00  0.00    +0.000 A 
ATOM     21  C   UNL     1     -21.010  -5.763   6.256  0.00  0.00    +0.000 A 
ATOM     22  C   UNL     1     -20.037  -5.400   7.176  0.00  0.00    +0.000 A 
ATOM     23  C   UNL     1     -20.198  -4.249   7.937  0.00  0.00    +0.000 A 
ENDBRANCH  16  18
ENDBRANCH   7  14
BRANCH   8  24
ATOM     24  O   UNL     1     -22.359  -1.627  12.430  0.00  0.00    +0.000 OA
ATOM     25  H   UNL     1     -21.707  -1.400  13.133  0.00  0.00    +0.000 HD
ENDBRANCH   8  24
TORSDOF 3
ENDMDL
MODEL 8
REMARK VINA RESULT:      -5.5     26.225     27.856
REMARK  Name = Piroxicam.pdbqt.pdb
REMARK  3 active torsions:
REMARK  status: ('A' for Active; 'I' for Inactive)
REMARK    1  A    between atoms: C_7  and  C_14
REMARK    2  A    between atoms: C_8  and  O_24
REMARK    3  A    between atoms: N_16  and  C_18
REMARK                            x       y       z     vdW  Elec       q    Type
REMARK                         _______ _______ _______ _____ _____    ______ ____
ROOT
ATOM      1  S   UNL     1       2.575 -17.032  13.361  0.00  0.00    +0.000 S 
ATOM      2  O   UNL     1       1.460 -16.415  12.668  0.00  0.00    +0.000 OA
ATOM      3  O   UNL     1       3.044 -18.351  12.985  0.00  0.00    +0.000 OA
ATOM      4  N   UNL     1       3.886 -15.915  13.391  0.00  0.00    +0.000 N 
ATOM      5  C   UNL     1       2.138 -17.076  15.056  0.00  0.00    +0.000 A 
ATOM      6  C   UNL     1       2.307 -15.906  15.795  0.00  0.00    +0.000 A 
ATOM      7  C   UNL     1       3.568 -14.675  14.040  0.00  0.00    +0.000 C 
ATOM      8  C   UNL     1       2.820 -14.673  15.168  0.00  0.00    +0.000 C 
ATOM      9  C   UNL     1       1.674 -18.259  15.618  0.00  0.00    +0.000 A 
ATOM     10  C   UNL     1       5.224 -16.408  13.761  0.00  0.00    +0.000 C 
ATOM     11  C   UNL     1       1.949 -15.938  17.144  0.00  0.00    +0.000 A 
ATOM     12  C   UNL     1       1.337 -18.271  16.966  0.00  0.00    +0.000 A 
ATOM     13  C   UNL     1       1.468 -17.111  17.728  0.00  0.00    +0.000 A 
ENDROOT
BRANCH   7  14
ATOM     14  C   UNL     1       4.065 -13.397  13.431  0.00  0.00    +0.000 C 
ATOM     15  O   UNL     1       5.275 -13.219  13.310  0.00  0.00    +0.000 OA
ATOM     16  N   UNL     1       3.086 -12.512  13.058  0.00  0.00    +0.000 N 
ATOM     17  H   UNL     1       2.107 -12.766  13.133  0.00  0.00    +0.000 HD
BRANCH  16  18
ATOM     18  C   UNL     1       3.279 -11.249  12.498  0.00  0.00    +0.000 A 
ATOM     19  N   UNL     1       4.259 -10.528  13.078  0.00  0.00    +0.000 NA
ATOM     20  C   UNL     1       4.492  -9.296  12.571  0.00  0.00    +0.000 A 
ATOM     21  C   UNL     1       3.796  -8.745  11.510  0.00  0.00    +0.000 A 
ATOM     22  C   UNL     1       2.796  -9.514  10.933  0.00  0.00    +0.000 A 
ATOM     23  C   UNL     1       2.527 -10.785  11.427  0.00  0.00    +0.000 A 
ENDBRANCH  16  18
ENDBRANCH   7  14
BRANCH   8  24
ATOM     24  O   UNL     1       2.471 -13.523  15.856  0.00  0.00    +0.000 OA
ATOM     25  H   UNL     1       1.520 -13.565  16.109  0.00  0.00    +0.000 HD
ENDBRANCH   8  24
TORSDOF 3
ENDMDL
MODEL 9
REMARK VINA RESULT:      -5.3     17.086     18.259
REMARK  Name = Piroxicam.pdbqt.pdb
REMARK  3 active torsions:
REMARK  status: ('A' for Active; 'I' for Inactive)
REMARK    1  A    between atoms: C_7  and  C_14
REMARK    2  A    between atoms: C_8  and  O_24
REMARK    3  A    between atoms: N_16  and  C_18
REMARK                            x       y       z     vdW  Elec       q    Type
REMARK                         _______ _______ _______ _____ _____    ______ ____
ROOT
ATOM      1  S   UNL     1     -13.767   8.921   4.008  0.00  0.00    +0.000 S 
ATOM      2  O   UNL     1     -15.129   8.604   3.618  0.00  0.00    +0.000 OA
ATOM      3  O   UNL     1     -12.919   9.723   3.149  0.00  0.00    +0.000 OA
ATOM      4  N   UNL     1     -13.793   9.571   5.603  0.00  0.00    +0.000 N 
ATOM      5  C   UNL     1     -12.965   7.390   4.285  0.00  0.00    +0.000 A 
ATOM      6  C   UNL     1     -13.184   6.761   5.509  0.00  0.00    +0.000 A 
ATOM      7  C   UNL     1     -14.356   8.678   6.576  0.00  0.00    +0.000 C 
ATOM      8  C   UNL     1     -14.072   7.356   6.527  0.00  0.00    +0.000 C 
ATOM      9  C   UNL     1     -12.122   6.867   3.311  0.00  0.00    +0.000 A 
ATOM     10  C   UNL     1     -12.587  10.252   6.106  0.00  0.00    +0.000 C 
ATOM     11  C   UNL     1     -12.552   5.536   5.727  0.00  0.00    +0.000 A 
ATOM     12  C   UNL     1     -11.493   5.652   3.556  0.00  0.00    +0.000 A 
ATOM     13  C   UNL     1     -11.712   4.983   4.759  0.00  0.00    +0.000 A 
ENDROOT
BRANCH   7  14
ATOM     14  C   UNL     1     -15.269   9.242   7.624  0.00  0.00    +0.000 C 
ATOM     15  O   UNL     1     -16.420   9.548   7.318  0.00  0.00    +0.000 OA
ATOM     16  N   UNL     1     -14.712   9.374   8.870  0.00  0.00    +0.000 N 
ATOM     17  H   UNL     1     -13.774   9.035   9.052  0.00  0.00    +0.000 HD
BRANCH  16  18
ATOM     18  C   UNL     1     -15.332   9.894  10.006  0.00  0.00    +0.000 A 
ATOM     19  N   UNL     1     -15.292  11.239  10.094  0.00  0.00    +0.000 NA
ATOM     20  C   UNL     1     -15.883  11.797  11.175  0.00  0.00    +0.000 A 
ATOM     21  C   UNL     1     -16.517  11.081  12.175  0.00  0.00    +0.000 A 
ATOM     22  C   UNL     1     -16.543   9.699  12.052  0.00  0.00    +0.000 A 
ATOM     23  C   UNL     1     -15.946   9.089  10.956  0.00  0.00    +0.000 A 
ENDBRANCH  16  18
ENDBRANCH   7  14
BRANCH   8  24
ATOM     24  O   UNL     1     -14.570   6.429   7.427  0.00  0.00    +0.000 OA
ATOM     25  H   UNL     1     -13.853   6.142   8.038  0.00  0.00    +0.000 HD
ENDBRANCH   8  24
TORSDOF 3
ENDMDL
