MODEL 1
REMARK VINA RESULT:      -6.5      0.000      0.000
REMARK  Name = PKR_Inhibitor.pdbqt.pdb
REMARK  0 active torsions:
REMARK  status: ('A' for Active; 'I' for Inactive)
REMARK                            x       y       z     vdW  Elec       q    Type
REMARK                         _______ _______ _______ _____ _____    ______ ____
ROOT
ATOM      1  S   UNL     1       6.834  -9.206  12.729  0.00  0.00    +0.000 S 
ATOM      2  O   UNL     1       3.889 -14.094  11.801  0.00  0.00    +0.000 OA
ATOM      3  N   UNL     1       2.904 -11.966  11.706  0.00  0.00    +0.000 N 
ATOM      4  N   UNL     1       5.318  -7.101  12.516  0.00  0.00    +0.000 NA
ATOM      5  C   UNL     1       4.691 -10.627  12.176  0.00  0.00    +0.000 A 
ATOM      6  C   UNL     1       3.307 -10.650  11.870  0.00  0.00    +0.000 A 
ATOM      7  C   UNL     1       5.147 -12.045  12.195  0.00  0.00    +0.000 C 
ATOM      8  C   UNL     1       5.218  -9.393  12.363  0.00  0.00    +0.000 A 
ATOM      9  C   UNL     1       3.942 -12.882  11.882  0.00  0.00    +0.000 C 
ATOM     10  C   UNL     1       4.521  -8.208  12.277  0.00  0.00    +0.000 A 
ATOM     11  C   UNL     1       2.497  -9.523  11.756  0.00  0.00    +0.000 A 
ATOM     12  C   UNL     1       6.320 -12.543  12.425  0.00  0.00    +0.000 C 
ATOM     13  C   UNL     1       3.142  -8.283  11.969  0.00  0.00    +0.000 A 
ATOM     14  C   UNL     1       6.544  -7.516  12.762  0.00  0.00    +0.000 A 
ATOM     15  H   UNL     1       1.963 -12.259  11.482  0.00  0.00    +0.000 HD
ATOM     16  C   UNL     1       7.569 -13.164  12.665  0.00  0.00    +0.000 C 
ATOM     17  N   UNL     1       7.793 -14.513  12.635  0.00  0.00    +0.000 N 
ATOM     18  C   UNL     1       9.115 -14.719  12.915  0.00  0.00    +0.000 C 
ATOM     19  H   UNL     1       7.109 -15.232  12.442  0.00  0.00    +0.000 HD
ATOM     20  N   UNL     1       9.744 -13.583  13.120  0.00  0.00    +0.000 NA
ATOM     21  C   UNL     1       8.789 -12.606  12.967  0.00  0.00    +0.000 C 
ENDROOT
TORSDOF 0
ENDMDL
MODEL 2
REMARK VINA RESULT:      -5.7      1.907      5.362
REMARK  Name = PKR_Inhibitor.pdbqt.pdb
REMARK  0 active torsions:
REMARK  status: ('A' for Active; 'I' for Inactive)
REMARK                            x       y       z     vdW  Elec       q    Type
REMARK                         _______ _______ _______ _____ _____    ______ ____
ROOT
ATOM      1  S   UNL     1       7.108 -10.995  13.659  0.00  0.00    +0.000 S 
ATOM      2  O   UNL     1       2.390  -8.839  11.105  0.00  0.00    +0.000 OA
ATOM      3  N   UNL     1       2.702 -11.131  11.496  0.00  0.00    +0.000 N 
ATOM      4  N   UNL     1       7.000 -13.586  13.874  0.00  0.00    +0.000 NA
ATOM      5  C   UNL     1       4.747 -11.137  12.508  0.00  0.00    +0.000 A 
ATOM      6  C   UNL     1       3.672 -11.945  12.060  0.00  0.00    +0.000 A 
ATOM      7  C   UNL     1       4.386  -9.728  12.183  0.00  0.00    +0.000 C 
ATOM      8  C   UNL     1       5.772 -11.810  13.083  0.00  0.00    +0.000 A 
ATOM      9  C   UNL     1       3.040  -9.778  11.523  0.00  0.00    +0.000 C 
ATOM     10  C   UNL     1       5.831 -13.176  13.255  0.00  0.00    +0.000 A 
ATOM     11  C   UNL     1       3.615 -13.331  12.176  0.00  0.00    +0.000 A 
ATOM     12  C   UNL     1       5.038  -8.629  12.391  0.00  0.00    +0.000 C 
ATOM     13  C   UNL     1       4.733 -13.940  12.792  0.00  0.00    +0.000 A 
ATOM     14  C   UNL     1       7.734 -12.521  14.126  0.00  0.00    +0.000 A 
ATOM     15  H   UNL     1       1.831 -11.459  11.101  0.00  0.00    +0.000 HD
ATOM     16  C   UNL     1       5.686  -7.385  12.581  0.00  0.00    +0.000 C 
ATOM     17  N   UNL     1       5.180  -6.172  12.207  0.00  0.00    +0.000 N 
ATOM     18  C   UNL     1       6.093  -5.217  12.558  0.00  0.00    +0.000 C 
ATOM     19  H   UNL     1       4.293  -6.003  11.752  0.00  0.00    +0.000 HD
ATOM     20  N   UNL     1       7.148  -5.751  13.133  0.00  0.00    +0.000 NA
ATOM     21  C   UNL     1       6.905  -7.103  13.152  0.00  0.00    +0.000 C 
ENDROOT
TORSDOF 0
ENDMDL
MODEL 3
REMARK VINA RESULT:      -5.7     20.092     22.711
REMARK  Name = PKR_Inhibitor.pdbqt.pdb
REMARK  0 active torsions:
REMARK  status: ('A' for Active; 'I' for Inactive)
REMARK                            x       y       z     vdW  Elec       q    Type
REMARK                         _______ _______ _______ _____ _____    ______ ____
ROOT
ATOM      1  S   UNL     1     -10.300  -0.773  22.228  0.00  0.00    +0.000 S 
ATOM      2  O   UNL     1     -14.034  -4.996  23.513  0.00  0.00    +0.000 OA
ATOM      3  N   UNL     1     -12.039  -5.364  22.336  0.00  0.00    +0.000 N 
ATOM      4  N   UNL     1      -8.238  -1.664  20.916  0.00  0.00    +0.000 NA
ATOM      5  C   UNL     1     -11.175  -3.253  22.251  0.00  0.00    +0.000 A 
ATOM      6  C   UNL     1     -10.969  -4.606  21.883  0.00  0.00    +0.000 A 
ATOM      7  C   UNL     1     -12.473  -3.202  22.981  0.00  0.00    +0.000 C 
ATOM      8  C   UNL     1     -10.198  -2.398  21.868  0.00  0.00    +0.000 A 
ATOM      9  C   UNL     1     -12.998  -4.607  23.010  0.00  0.00    +0.000 C 
ATOM     10  C   UNL     1      -9.061  -2.748  21.171  0.00  0.00    +0.000 A 
ATOM     11  C   UNL     1      -9.865  -5.082  21.181  0.00  0.00    +0.000 A 
ATOM     12  C   UNL     1     -13.094  -2.199  23.514  0.00  0.00    +0.000 C 
ATOM     13  C   UNL     1      -8.900  -4.111  20.828  0.00  0.00    +0.000 A 
ATOM     14  C   UNL     1      -8.796  -0.586  21.428  0.00  0.00    +0.000 A 
ATOM     15  H   UNL     1     -12.137  -6.361  22.205  0.00  0.00    +0.000 HD
ATOM     16  C   UNL     1     -13.835  -1.156  24.119  0.00  0.00    +0.000 C 
ATOM     17  N   UNL     1     -15.033  -1.313  24.758  0.00  0.00    +0.000 N 
ATOM     18  C   UNL     1     -15.428  -0.083  25.206  0.00  0.00    +0.000 C 
ATOM     19  H   UNL     1     -15.542  -2.178  24.880  0.00  0.00    +0.000 HD
ATOM     20  N   UNL     1     -14.551   0.845  24.891  0.00  0.00    +0.000 NA
ATOM     21  C   UNL     1     -13.554   0.188  24.213  0.00  0.00    +0.000 C 
ENDROOT
TORSDOF 0
ENDMDL
MODEL 4
REMARK VINA RESULT:      -5.5     27.473     29.214
REMARK  Name = PKR_Inhibitor.pdbqt.pdb
REMARK  0 active torsions:
REMARK  status: ('A' for Active; 'I' for Inactive)
REMARK                            x       y       z     vdW  Elec       q    Type
REMARK                         _______ _______ _______ _____ _____    ______ ____
ROOT
ATOM      1  S   UNL     1     -24.353  -7.935   9.882  0.00  0.00    +0.000 S 
ATOM      2  O   UNL     1     -19.892  -4.425   8.783  0.00  0.00    +0.000 OA
ATOM      3  N   UNL     1     -20.593  -4.964  10.956  0.00  0.00    +0.000 N 
ATOM      4  N   UNL     1     -24.750  -8.232  12.436  0.00  0.00    +0.000 NA
ATOM      5  C   UNL     1     -22.351  -6.354  10.525  0.00  0.00    +0.000 A 
ATOM      6  C   UNL     1     -21.581  -5.739  11.544  0.00  0.00    +0.000 A 
ATOM      7  C   UNL     1     -21.775  -5.906   9.226  0.00  0.00    +0.000 C 
ATOM      8  C   UNL     1     -23.359  -7.145  10.963  0.00  0.00    +0.000 A 
ATOM      9  C   UNL     1     -20.627  -5.000   9.562  0.00  0.00    +0.000 C 
ATOM     10  C   UNL     1     -23.669  -7.381  12.286  0.00  0.00    +0.000 A 
ATOM     11  C   UNL     1     -21.795  -5.900  12.910  0.00  0.00    +0.000 A 
ATOM     12  C   UNL     1     -22.126  -6.191   8.012  0.00  0.00    +0.000 C 
ATOM     13  C   UNL     1     -22.870  -6.746  13.266  0.00  0.00    +0.000 A 
ATOM     14  C   UNL     1     -25.179  -8.578  11.240  0.00  0.00    +0.000 A 
ATOM     15  H   UNL     1     -19.907  -4.421  11.462  0.00  0.00    +0.000 HD
ATOM     16  C   UNL     1     -22.447  -6.452   6.659  0.00  0.00    +0.000 C 
ATOM     17  N   UNL     1     -21.783  -5.937   5.582  0.00  0.00    +0.000 N 
ATOM     18  C   UNL     1     -22.386  -6.419   4.454  0.00  0.00    +0.000 C 
ATOM     19  H   UNL     1     -20.988  -5.312   5.607  0.00  0.00    +0.000 HD
ATOM     20  N   UNL     1     -23.394  -7.209   4.750  0.00  0.00    +0.000 NA
ATOM     21  C   UNL     1     -23.442  -7.237   6.123  0.00  0.00    +0.000 C 
ENDROOT
TORSDOF 0
ENDMDL
MODEL 5
REMARK VINA RESULT:      -5.4      3.037      3.782
REMARK  Name = PKR_Inhibitor.pdbqt.pdb
REMARK  0 active torsions:
REMARK  status: ('A' for Active; 'I' for Inactive)
REMARK                            x       y       z     vdW  Elec       q    Type
REMARK                         _______ _______ _______ _____ _____    ______ ____
ROOT
ATOM      1  S   UNL     1       6.129 -10.652  15.065  0.00  0.00    +0.000 S 
ATOM      2  O   UNL     1       2.175 -10.666  10.848  0.00  0.00    +0.000 OA
ATOM      3  N   UNL     1       3.420  -8.765  11.430  0.00  0.00    +0.000 N 
ATOM      4  N   UNL     1       7.248  -8.319  15.342  0.00  0.00    +0.000 NA
ATOM      5  C   UNL     1       4.710  -9.580  13.127  0.00  0.00    +0.000 A 
ATOM      6  C   UNL     1       4.404  -8.435  12.350  0.00  0.00    +0.000 A 
ATOM      7  C   UNL     1       3.837 -10.680  12.629  0.00  0.00    +0.000 C 
ATOM      8  C   UNL     1       5.662  -9.396  14.073  0.00  0.00    +0.000 A 
ATOM      9  C   UNL     1       3.013 -10.096  11.519  0.00  0.00    +0.000 C 
ATOM     10  C   UNL     1       6.326  -8.212  14.315  0.00  0.00    +0.000 A 
ATOM     11  C   UNL     1       5.003  -7.187  12.499  0.00  0.00    +0.000 A 
ATOM     12  C   UNL     1       3.743 -11.913  13.014  0.00  0.00    +0.000 C 
ATOM     13  C   UNL     1       5.985  -7.098  13.512  0.00  0.00    +0.000 A 
ATOM     14  C   UNL     1       7.222  -9.554  15.800  0.00  0.00    +0.000 A 
ATOM     15  H   UNL     1       3.024  -8.126  10.755  0.00  0.00    +0.000 HD
ATOM     16  C   UNL     1       3.580 -13.271  13.375  0.00  0.00    +0.000 C 
ATOM     17  N   UNL     1       2.708 -14.141  12.783  0.00  0.00    +0.000 N 
ATOM     18  C   UNL     1       2.844 -15.351  13.406  0.00  0.00    +0.000 C 
ATOM     19  H   UNL     1       2.074 -13.935  12.024  0.00  0.00    +0.000 HD
ATOM     20  N   UNL     1       3.750 -15.301  14.357  0.00  0.00    +0.000 NA
ATOM     21  C   UNL     1       4.216 -14.009  14.347  0.00  0.00    +0.000 C 
ENDROOT
TORSDOF 0
ENDMDL
MODEL 6
REMARK VINA RESULT:      -5.3     19.490     20.840
REMARK  Name = PKR_Inhibitor.pdbqt.pdb
REMARK  0 active torsions:
REMARK  status: ('A' for Active; 'I' for Inactive)
REMARK                            x       y       z     vdW  Elec       q    Type
REMARK                         _______ _______ _______ _____ _____    ______ ____
ROOT
ATOM      1  S   UNL     1      -9.400  -1.184  23.402  0.00  0.00    +0.000 S 
ATOM      2  O   UNL     1     -10.366  -2.261  17.804  0.00  0.00    +0.000 OA
ATOM      3  N   UNL     1     -10.391  -3.930  19.453  0.00  0.00    +0.000 N 
ATOM      4  N   UNL     1      -9.532  -3.346  24.845  0.00  0.00    +0.000 NA
ATOM      5  C   UNL     1      -9.934  -2.711  21.328  0.00  0.00    +0.000 A 
ATOM      6  C   UNL     1     -10.207  -4.008  20.825  0.00  0.00    +0.000 A 
ATOM      7  C   UNL     1      -9.956  -1.787  20.159  0.00  0.00    +0.000 C 
ATOM      8  C   UNL     1      -9.732  -2.643  22.665  0.00  0.00    +0.000 A 
ATOM      9  C   UNL     1     -10.259  -2.632  18.957  0.00  0.00    +0.000 C 
ATOM     10  C   UNL     1      -9.776  -3.713  23.533  0.00  0.00    +0.000 A 
ATOM     11  C   UNL     1     -10.278  -5.163  21.599  0.00  0.00    +0.000 A 
ATOM     12  C   UNL     1      -9.765  -0.507  20.100  0.00  0.00    +0.000 C 
ATOM     13  C   UNL     1     -10.053  -4.987  22.983  0.00  0.00    +0.000 A 
ATOM     14  C   UNL     1      -9.324  -2.045  24.883  0.00  0.00    +0.000 A 
ATOM     15  H   UNL     1     -10.599  -4.715  18.853  0.00  0.00    +0.000 HD
ATOM     16  C   UNL     1      -9.568   0.886  19.952  0.00  0.00    +0.000 C 
ATOM     17  N   UNL     1      -9.633   1.566  18.768  0.00  0.00    +0.000 N 
ATOM     18  C   UNL     1      -9.388   2.884  19.034  0.00  0.00    +0.000 C 
ATOM     19  H   UNL     1      -9.825   1.172  17.857  0.00  0.00    +0.000 HD
ATOM     20  N   UNL     1      -9.173   3.082  20.316  0.00  0.00    +0.000 NA
ATOM     21  C   UNL     1      -9.283   1.843  20.899  0.00  0.00    +0.000 C 
ENDROOT
TORSDOF 0
ENDMDL
MODEL 7
REMARK VINA RESULT:      -5.3     18.955     20.544
REMARK  Name = PKR_Inhibitor.pdbqt.pdb
REMARK  0 active torsions:
REMARK  status: ('A' for Active; 'I' for Inactive)
REMARK                            x       y       z     vdW  Elec       q    Type
REMARK                         _______ _______ _______ _____ _____    ______ ____
ROOT
ATOM      1  S   UNL     1      -7.941  -3.500  23.596  0.00  0.00    +0.000 S 
ATOM      2  O   UNL     1     -12.636  -6.806  24.273  0.00  0.00    +0.000 OA
ATOM      3  N   UNL     1     -12.164  -5.640  22.292  0.00  0.00    +0.000 N 
ATOM      4  N   UNL     1      -7.850  -2.412  21.234  0.00  0.00    +0.000 NA
ATOM      5  C   UNL     1     -10.198  -4.616  22.835  0.00  0.00    +0.000 A 
ATOM      6  C   UNL     1     -11.171  -4.796  21.820  0.00  0.00    +0.000 A 
ATOM      7  C   UNL     1     -10.651  -5.418  24.007  0.00  0.00    +0.000 C 
ATOM      8  C   UNL     1      -9.164  -3.808  22.504  0.00  0.00    +0.000 A 
ATOM      9  C   UNL     1     -11.941  -6.068  23.602  0.00  0.00    +0.000 C 
ATOM     10  C   UNL     1      -9.004  -3.176  21.290  0.00  0.00    +0.000 A 
ATOM     11  C   UNL     1     -11.121  -4.213  20.556  0.00  0.00    +0.000 A 
ATOM     12  C   UNL     1     -10.108  -5.577  25.171  0.00  0.00    +0.000 C 
ATOM     13  C   UNL     1     -10.001  -3.387  20.308  0.00  0.00    +0.000 A 
ATOM     14  C   UNL     1      -7.225  -2.515  22.389  0.00  0.00    +0.000 A 
ATOM     15  H   UNL     1     -12.976  -5.930  21.764  0.00  0.00    +0.000 HD
ATOM     16  C   UNL     1      -9.580  -5.802  26.465  0.00  0.00    +0.000 C 
ATOM     17  N   UNL     1     -10.155  -6.591  27.421  0.00  0.00    +0.000 N 
ATOM     18  C   UNL     1      -9.351  -6.556  28.526  0.00  0.00    +0.000 C 
ATOM     19  H   UNL     1     -11.020  -7.108  27.335  0.00  0.00    +0.000 HD
ATOM     20  N   UNL     1      -8.299  -5.793  28.328  0.00  0.00    +0.000 NA
ATOM     21  C   UNL     1      -8.431  -5.317  27.046  0.00  0.00    +0.000 C 
ENDROOT
TORSDOF 0
ENDMDL
MODEL 8
REMARK VINA RESULT:      -5.0     14.968     17.364
REMARK  Name = PKR_Inhibitor.pdbqt.pdb
REMARK  0 active torsions:
REMARK  status: ('A' for Active; 'I' for Inactive)
REMARK                            x       y       z     vdW  Elec       q    Type
REMARK                         _______ _______ _______ _____ _____    ______ ____
ROOT
ATOM      1  S   UNL     1      -3.157  -9.226  -2.635  0.00  0.00    +0.000 S 
ATOM      2  O   UNL     1      -4.528  -6.224   2.112  0.00  0.00    +0.000 OA
ATOM      3  N   UNL     1      -2.328  -6.446   1.327  0.00  0.00    +0.000 N 
ATOM      4  N   UNL     1      -0.598  -9.186  -3.106  0.00  0.00    +0.000 NA
ATOM      5  C   UNL     1      -2.645  -7.737  -0.528  0.00  0.00    +0.000 A 
ATOM      6  C   UNL     1      -1.683  -7.068   0.269  0.00  0.00    +0.000 A 
ATOM      7  C   UNL     1      -3.970  -7.494   0.109  0.00  0.00    +0.000 C 
ATOM      8  C   UNL     1      -2.147  -8.392  -1.604  0.00  0.00    +0.000 A 
ATOM      9  C   UNL     1      -3.709  -6.645   1.318  0.00  0.00    +0.000 C 
ATOM     10  C   UNL     1      -0.816  -8.444  -1.958  0.00  0.00    +0.000 A 
ATOM     11  C   UNL     1      -0.314  -7.048   0.015  0.00  0.00    +0.000 A 
ATOM     12  C   UNL     1      -5.152  -7.893  -0.240  0.00  0.00    +0.000 C 
ATOM     13  C   UNL     1       0.107  -7.760  -1.131  0.00  0.00    +0.000 A 
ATOM     14  C   UNL     1      -1.758  -9.638  -3.537  0.00  0.00    +0.000 A 
ATOM     15  H   UNL     1      -1.869  -5.900   2.043  0.00  0.00    +0.000 HD
ATOM     16  C   UNL     1      -6.474  -8.289  -0.553  0.00  0.00    +0.000 C 
ATOM     17  N   UNL     1      -7.585  -7.955   0.170  0.00  0.00    +0.000 N 
ATOM     18  C   UNL     1      -8.665  -8.521  -0.446  0.00  0.00    +0.000 C 
ATOM     19  H   UNL     1      -7.610  -7.393   1.010  0.00  0.00    +0.000 HD
ATOM     20  N   UNL     1      -8.308  -9.194  -1.518  0.00  0.00    +0.000 NA
ATOM     21  C   UNL     1      -6.943  -9.056  -1.594  0.00  0.00    +0.000 C 
ENDROOT
TORSDOF 0
ENDMDL
MODEL 9
REMARK VINA RESULT:      -4.8     19.672     22.523
REMARK  Name = PKR_Inhibitor.pdbqt.pdb
REMARK  0 active torsions:
REMARK  status: ('A' for Active; 'I' for Inactive)
REMARK                            x       y       z     vdW  Elec       q    Type
REMARK                         _______ _______ _______ _____ _____    ______ ____
ROOT
ATOM      1  S   UNL     1     -12.836  -2.587  23.673  0.00  0.00    +0.000 S 
ATOM      2  O   UNL     1      -8.373  -0.298  20.798  0.00  0.00    +0.000 OA
ATOM      3  N   UNL     1      -8.896  -2.584  20.743  0.00  0.00    +0.000 N 
ATOM      4  N   UNL     1     -13.014  -5.157  23.306  0.00  0.00    +0.000 NA
ATOM      5  C   UNL     1     -10.733  -2.654  22.095  0.00  0.00    +0.000 A 
ATOM      6  C   UNL     1      -9.853  -3.423  21.292  0.00  0.00    +0.000 A 
ATOM      7  C   UNL     1     -10.258  -1.243  22.017  0.00  0.00    +0.000 C 
ATOM      8  C   UNL     1     -11.723  -3.354  22.696  0.00  0.00    +0.000 A 
ATOM      9  C   UNL     1      -9.055  -1.250  21.120  0.00  0.00    +0.000 C 
ATOM     10  C   UNL     1     -11.922  -4.713  22.579  0.00  0.00    +0.000 A 
ATOM     11  C   UNL     1      -9.950  -4.798  21.096  0.00  0.00    +0.000 A 
ATOM     12  C   UNL     1     -10.726  -0.171  22.573  0.00  0.00    +0.000 C 
ATOM     13  C   UNL     1     -11.018  -5.437  21.766  0.00  0.00    +0.000 A 
ATOM     14  C   UNL     1     -13.560  -4.122  23.912  0.00  0.00    +0.000 A 
ATOM     15  H   UNL     1      -8.150  -2.882  20.129  0.00  0.00    +0.000 HD
ATOM     16  C   UNL     1     -11.175   1.043  23.143  0.00  0.00    +0.000 C 
ATOM     17  N   UNL     1     -10.593   2.264  22.946  0.00  0.00    +0.000 N 
ATOM     18  C   UNL     1     -11.311   3.184  23.659  0.00  0.00    +0.000 C 
ATOM     19  H   UNL     1      -9.780   2.460  22.378  0.00  0.00    +0.000 HD
ATOM     20  N   UNL     1     -12.313   2.621  24.297  0.00  0.00    +0.000 NA
ATOM     21  C   UNL     1     -12.238   1.285  23.983  0.00  0.00    +0.000 C 
ENDROOT
TORSDOF 0
ENDMDL
