MODEL 1
REMARK VINA RESULT:      -6.9      0.000      0.000
REMARK  Name = 
REMARK  14 active torsions:
REMARK  status: ('A' for Active; 'I' for Inactive)
REMARK    1  A    between atoms: O_1  and  C_14
REMARK    2  A    between atoms: O_1  and  C_15
REMARK    3  A    between atoms: O_4  and  C_16
REMARK    4  A    between atoms: O_5  and  C_18
REMARK    5  A    between atoms: O_6  and  C_26
REMARK    6  A    between atoms: O_7  and  C_29
REMARK    7  A    between atoms: O_8  and  C_35
REMARK    8  A    between atoms: O_9  and  C_36
REMARK    9  A    between atoms: O_10  and  C_39
REMARK   10  A    between atoms: O_11  and  C_40
REMARK   11  A    between atoms: O_12  and  C_41
REMARK   12  A    between atoms: O_13  and  C_43
REMARK   13  A    between atoms: C_14  and  C_20
REMARK   14  A    between atoms: C_17  and  C_24
REMARK                            x       y       z     vdW  Elec       q    Type
REMARK                         _______ _______ _______ _____ _____    ______ ____
ROOT
ATOM      1  O   UNL     1      -9.549  -2.052  21.514  0.00  0.00    +0.000 OA
ATOM      2  C   UNL     1      -9.388  -3.157  22.415  0.00  0.00    +0.000 C 
ATOM      3  C   UNL     1      -8.687  -4.358  21.711  0.00  0.00    +0.000 C 
ATOM      4  C   UNL     1      -9.453  -4.762  20.455  0.00  0.00    +0.000 C 
ATOM      5  C   UNL     1      -9.786  -3.568  19.612  0.00  0.00    +0.000 A 
ATOM      6  C   UNL     1      -9.822  -2.300  20.198  0.00  0.00    +0.000 A 
ATOM      7  C   UNL     1     -10.106  -3.679  18.250  0.00  0.00    +0.000 A 
ATOM      8  C   UNL     1     -10.152  -1.175  19.437  0.00  0.00    +0.000 A 
ATOM      9  C   UNL     1     -10.456  -2.567  17.489  0.00  0.00    +0.000 A 
ATOM     10  C   UNL     1     -10.471  -1.318  18.092  0.00  0.00    +0.000 A 
ENDROOT
BRANCH   2  11
ATOM     11  C   UNL     1     -10.712  -3.596  23.070  0.00  0.00    +0.000 A 
ATOM     12  C   UNL     1     -11.919  -2.927  22.770  0.00  0.00    +0.000 A 
ATOM     13  C   UNL     1     -10.761  -4.681  23.970  0.00  0.00    +0.000 A 
ATOM     14  C   UNL     1     -13.112  -3.330  23.363  0.00  0.00    +0.000 A 
ATOM     15  C   UNL     1     -11.961  -5.070  24.572  0.00  0.00    +0.000 A 
ATOM     16  C   UNL     1     -13.124  -4.386  24.267  0.00  0.00    +0.000 A 
BRANCH  14  17
ATOM     17  O   UNL     1     -14.307  -2.728  23.089  0.00  0.00    +0.000 OA
ATOM     18  H   UNL     1     -14.545  -2.886  22.153  0.00  0.00    +0.000 HD
ENDBRANCH  14  17
BRANCH  16  19
ATOM     19  O   UNL     1     -14.298  -4.768  24.851  0.00  0.00    +0.000 OA
ATOM     20  H   UNL     1     -14.796  -5.206  24.131  0.00  0.00    +0.000 HD
ENDBRANCH  16  19
ENDBRANCH   2  11
BRANCH   3  21
ATOM     21  O   UNL     1      -7.317  -4.045  21.331  0.00  0.00    +0.000 OA
ATOM     22  H   UNL     1      -7.256  -4.292  20.386  0.00  0.00    +0.000 HD
ENDBRANCH   3  21
BRANCH   4  23
ATOM     23  O   UNL     1      -8.661  -5.684  19.686  0.00  0.00    +0.000 OA
ATOM     24  H   UNL     1      -7.942  -5.953  20.301  0.00  0.00    +0.000 HD
ENDBRANCH   4  23
BRANCH   7  25
ATOM     25  O   UNL     1     -10.072  -4.884  17.601  0.00  0.00    +0.000 OA
ATOM     26  H   UNL     1     -10.000  -5.581  18.289  0.00  0.00    +0.000 HD
ENDBRANCH   7  25
BRANCH  10  27
ATOM     27  O   UNL     1     -10.798  -0.194  17.391  0.00  0.00    +0.000 OA
ATOM     28  H   UNL     1     -11.574  -0.391  16.840  0.00  0.00    +0.000 HD
ENDBRANCH  10  27
BRANCH   2  29
ATOM     29  O   UNL     1      -8.428  -2.771  23.439  0.00  0.00    +0.000 OA
BRANCH  29  31
ATOM     30  O   UNL     1      -7.570   0.652  24.570  0.00  0.00    +0.000 OA
ATOM     31  C   UNL     1      -7.828  -1.466  23.318  0.00  0.00    +0.000 C 
ATOM     32  C   UNL     1      -8.071  -0.690  24.637  0.00  0.00    +0.000 C 
ATOM     33  C   UNL     1      -6.313  -1.555  23.109  0.00  0.00    +0.000 C 
ATOM     34  C   UNL     1      -5.609  -0.274  23.461  0.00  0.00    +0.000 A 
ATOM     35  C   UNL     1      -6.268   0.742  24.159  0.00  0.00    +0.000 A 
ATOM     36  C   UNL     1      -4.270  -0.076  23.102  0.00  0.00    +0.000 A 
ATOM     37  C   UNL     1      -5.622   1.946  24.450  0.00  0.00    +0.000 A 
ATOM     38  C   UNL     1      -3.609   1.113  23.401  0.00  0.00    +0.000 A 
ATOM     39  C   UNL     1      -4.296   2.118  24.070  0.00  0.00    +0.000 A 
BRANCH  32  40
ATOM     40  C   UNL     1      -9.557  -0.608  24.960  0.00  0.00    +0.000 A 
ATOM     41  C   UNL     1     -10.423   0.179  24.184  0.00  0.00    +0.000 A 
ATOM     42  C   UNL     1     -10.094  -1.392  25.998  0.00  0.00    +0.000 A 
ATOM     43  C   UNL     1     -11.796   0.138  24.417  0.00  0.00    +0.000 A 
ATOM     44  C   UNL     1     -11.470  -1.413  26.238  0.00  0.00    +0.000 A 
ATOM     45  C   UNL     1     -12.318  -0.658  25.434  0.00  0.00    +0.000 A 
BRANCH  43  46
ATOM     46  O   UNL     1     -12.651   0.827  23.605  0.00  0.00    +0.000 OA
ATOM     47  H   UNL     1     -13.156   0.195  23.066  0.00  0.00    +0.000 HD
ENDBRANCH  43  46
BRANCH  45  48
ATOM     48  O   UNL     1     -13.671  -0.713  25.611  0.00  0.00    +0.000 OA
ATOM     49  H   UNL     1     -13.916  -1.604  25.907  0.00  0.00    +0.000 HD
ENDBRANCH  45  48
ENDBRANCH  32  40
BRANCH  36  50
ATOM     50  O   UNL     1      -3.615  -1.078  22.442  0.00  0.00    +0.000 OA
ATOM     51  H   UNL     1      -3.048  -0.686  21.757  0.00  0.00    +0.000 HD
ENDBRANCH  36  50
BRANCH  39  52
ATOM     52  O   UNL     1      -3.624   3.274  24.341  0.00  0.00    +0.000 OA
ATOM     53  H   UNL     1      -4.180   3.832  24.911  0.00  0.00    +0.000 HD
ENDBRANCH  39  52
ENDBRANCH  29  31
ENDBRANCH   2  29
TORSDOF 14
ENDMDL
MODEL 2
REMARK VINA RESULT:      -6.6     20.431     22.362
REMARK  Name = 
REMARK  14 active torsions:
REMARK  status: ('A' for Active; 'I' for Inactive)
REMARK    1  A    between atoms: O_1  and  C_14
REMARK    2  A    between atoms: O_1  and  C_15
REMARK    3  A    between atoms: O_4  and  C_16
REMARK    4  A    between atoms: O_5  and  C_18
REMARK    5  A    between atoms: O_6  and  C_26
REMARK    6  A    between atoms: O_7  and  C_29
REMARK    7  A    between atoms: O_8  and  C_35
REMARK    8  A    between atoms: O_9  and  C_36
REMARK    9  A    between atoms: O_10  and  C_39
REMARK   10  A    between atoms: O_11  and  C_40
REMARK   11  A    between atoms: O_12  and  C_41
REMARK   12  A    between atoms: O_13  and  C_43
REMARK   13  A    between atoms: C_14  and  C_20
REMARK   14  A    between atoms: C_17  and  C_24
REMARK                            x       y       z     vdW  Elec       q    Type
REMARK                         _______ _______ _______ _____ _____    ______ ____
ROOT
ATOM      1  O   UNL     1     -12.245 -14.990   5.717  0.00  0.00    +0.000 OA
ATOM      2  C   UNL     1     -13.405 -15.429   4.997  0.00  0.00    +0.000 C 
ATOM      3  C   UNL     1     -13.019 -15.959   3.582  0.00  0.00    +0.000 C 
ATOM      4  C   UNL     1     -12.243 -14.898   2.808  0.00  0.00    +0.000 C 
ATOM      5  C   UNL     1     -11.148 -14.306   3.643  0.00  0.00    +0.000 A 
ATOM      6  C   UNL     1     -11.228 -14.381   5.037  0.00  0.00    +0.000 A 
ATOM      7  C   UNL     1     -10.054 -13.634   3.078  0.00  0.00    +0.000 A 
ATOM      8  C   UNL     1     -10.232 -13.816   5.837  0.00  0.00    +0.000 A 
ATOM      9  C   UNL     1      -9.067 -13.051   3.867  0.00  0.00    +0.000 A 
ATOM     10  C   UNL     1      -9.163 -13.152   5.247  0.00  0.00    +0.000 A 
ENDROOT
BRANCH   2  11
ATOM     11  C   UNL     1     -14.499 -14.349   4.902  0.00  0.00    +0.000 A 
ATOM     12  C   UNL     1     -14.627 -13.364   5.908  0.00  0.00    +0.000 A 
ATOM     13  C   UNL     1     -15.391 -14.299   3.810  0.00  0.00    +0.000 A 
ATOM     14  C   UNL     1     -15.616 -12.390   5.816  0.00  0.00    +0.000 A 
ATOM     15  C   UNL     1     -16.390 -13.325   3.733  0.00  0.00    +0.000 A 
ATOM     16  C   UNL     1     -16.497 -12.384   4.740  0.00  0.00    +0.000 A 
BRANCH  14  17
ATOM     17  O   UNL     1     -15.766 -11.406   6.752  0.00  0.00    +0.000 OA
ATOM     18  H   UNL     1     -16.670 -11.037   6.696  0.00  0.00    +0.000 HD
ENDBRANCH  14  17
BRANCH  16  19
ATOM     19  O   UNL     1     -17.470 -11.429   4.664  0.00  0.00    +0.000 OA
ATOM     20  H   UNL     1     -17.870 -11.417   5.557  0.00  0.00    +0.000 HD
ENDBRANCH  16  19
ENDBRANCH   2  11
BRANCH   3  21
ATOM     21  O   UNL     1     -12.204 -17.163   3.652  0.00  0.00    +0.000 OA
ATOM     22  H   UNL     1     -11.303 -16.870   3.410  0.00  0.00    +0.000 HD
ENDBRANCH   3  21
BRANCH   4  23
ATOM     23  O   UNL     1     -11.675 -15.487   1.625  0.00  0.00    +0.000 OA
ATOM     24  H   UNL     1     -11.514 -16.424   1.878  0.00  0.00    +0.000 HD
ENDBRANCH   4  23
BRANCH   7  25
ATOM     25  O   UNL     1      -9.895 -13.537   1.721  0.00  0.00    +0.000 OA
ATOM     26  H   UNL     1      -8.992 -13.862   1.512  0.00  0.00    +0.000 HD
ENDBRANCH   7  25
BRANCH  10  27
ATOM     27  O   UNL     1      -8.219 -12.606   6.067  0.00  0.00    +0.000 OA
ATOM     28  H   UNL     1      -8.673 -12.158   6.801  0.00  0.00    +0.000 HD
ENDBRANCH  10  27
BRANCH   2  29
ATOM     29  O   UNL     1     -13.929 -16.614   5.660  0.00  0.00    +0.000 OA
BRANCH  29  31
ATOM     30  O   UNL     1     -14.905 -17.370   9.153  0.00  0.00    +0.000 OA
ATOM     31  C   UNL     1     -13.721 -16.717   7.082  0.00  0.00    +0.000 C 
ATOM     32  C   UNL     1     -15.002 -17.306   7.723  0.00  0.00    +0.000 C 
ATOM     33  C   UNL     1     -12.562 -17.660   7.419  0.00  0.00    +0.000 C 
ATOM     34  C   UNL     1     -12.625 -18.165   8.834  0.00  0.00    +0.000 A 
ATOM     35  C   UNL     1     -13.775 -17.991   9.610  0.00  0.00    +0.000 A 
ATOM     36  C   UNL     1     -11.531 -18.828   9.403  0.00  0.00    +0.000 A 
ATOM     37  C   UNL     1     -13.816 -18.427  10.936  0.00  0.00    +0.000 A 
ATOM     38  C   UNL     1     -11.565 -19.283  10.719  0.00  0.00    +0.000 A 
ATOM     39  C   UNL     1     -12.710 -19.071  11.477  0.00  0.00    +0.000 A 
BRANCH  32  40
ATOM     40  C   UNL     1     -16.224 -16.463   7.385  0.00  0.00    +0.000 A 
ATOM     41  C   UNL     1     -16.517 -15.294   8.104  0.00  0.00    +0.000 A 
ATOM     42  C   UNL     1     -17.031 -16.807   6.285  0.00  0.00    +0.000 A 
ATOM     43  C   UNL     1     -17.564 -14.470   7.695  0.00  0.00    +0.000 A 
ATOM     44  C   UNL     1     -18.091 -15.987   5.892  0.00  0.00    +0.000 A 
ATOM     45  C   UNL     1     -18.343 -14.811   6.592  0.00  0.00    +0.000 A 
BRANCH  43  46
ATOM     46  O   UNL     1     -17.793 -13.284   8.332  0.00  0.00    +0.000 OA
ATOM     47  H   UNL     1     -18.563 -13.381   8.917  0.00  0.00    +0.000 HD
ENDBRANCH  43  46
BRANCH  45  48
ATOM     48  O   UNL     1     -19.333 -13.963   6.187  0.00  0.00    +0.000 OA
ATOM     49  H   UNL     1     -18.967 -13.068   6.095  0.00  0.00    +0.000 HD
ENDBRANCH  45  48
ENDBRANCH  32  40
BRANCH  36  50
ATOM     50  O   UNL     1     -10.414 -19.022   8.638  0.00  0.00    +0.000 OA
ATOM     51  H   UNL     1      -9.809 -18.273   8.770  0.00  0.00    +0.000 HD
ENDBRANCH  36  50
BRANCH  39  52
ATOM     52  O   UNL     1     -12.709 -19.521  12.766  0.00  0.00    +0.000 OA
ATOM     53  H   UNL     1     -12.947 -18.784  13.353  0.00  0.00    +0.000 HD
ENDBRANCH  39  52
ENDBRANCH  29  31
ENDBRANCH   2  29
TORSDOF 14
ENDMDL
MODEL 3
REMARK VINA RESULT:      -6.5      3.193      6.633
REMARK  Name = 
REMARK  14 active torsions:
REMARK  status: ('A' for Active; 'I' for Inactive)
REMARK    1  A    between atoms: O_1  and  C_14
REMARK    2  A    between atoms: O_1  and  C_15
REMARK    3  A    between atoms: O_4  and  C_16
REMARK    4  A    between atoms: O_5  and  C_18
REMARK    5  A    between atoms: O_6  and  C_26
REMARK    6  A    between atoms: O_7  and  C_29
REMARK    7  A    between atoms: O_8  and  C_35
REMARK    8  A    between atoms: O_9  and  C_36
REMARK    9  A    between atoms: O_10  and  C_39
REMARK   10  A    between atoms: O_11  and  C_40
REMARK   11  A    between atoms: O_12  and  C_41
REMARK   12  A    between atoms: O_13  and  C_43
REMARK   13  A    between atoms: C_14  and  C_20
REMARK   14  A    between atoms: C_17  and  C_24
REMARK                            x       y       z     vdW  Elec       q    Type
REMARK                         _______ _______ _______ _____ _____    ______ ____
ROOT
ATOM      1  O   UNL     1     -10.588  -4.813  24.308  0.00  0.00    +0.000 OA
ATOM      2  C   UNL     1      -9.589  -3.846  24.659  0.00  0.00    +0.000 C 
ATOM      3  C   UNL     1      -8.353  -4.530  25.318  0.00  0.00    +0.000 C 
ATOM      4  C   UNL     1      -8.781  -5.361  26.524  0.00  0.00    +0.000 C 
ATOM      5  C   UNL     1      -9.957  -6.232  26.195  0.00  0.00    +0.000 A 
ATOM      6  C   UNL     1     -10.784  -5.895  25.120  0.00  0.00    +0.000 A 
ATOM      7  C   UNL     1     -10.287  -7.362  26.957  0.00  0.00    +0.000 A 
ATOM      8  C   UNL     1     -11.899  -6.678  24.809  0.00  0.00    +0.000 A 
ATOM      9  C   UNL     1     -11.407  -8.137  26.668  0.00  0.00    +0.000 A 
ATOM     10  C   UNL     1     -12.204  -7.788  25.587  0.00  0.00    +0.000 A 
ENDROOT
BRANCH   2  11
ATOM     11  C   UNL     1     -10.135  -2.715  25.551  0.00  0.00    +0.000 A 
ATOM     12  C   UNL     1     -11.403  -2.829  26.162  0.00  0.00    +0.000 A 
ATOM     13  C   UNL     1      -9.384  -1.545  25.795  0.00  0.00    +0.000 A 
ATOM     14  C   UNL     1     -11.889  -1.805  26.968  0.00  0.00    +0.000 A 
ATOM     15  C   UNL     1      -9.887  -0.515  26.595  0.00  0.00    +0.000 A 
ATOM     16  C   UNL     1     -11.138  -0.652  27.169  0.00  0.00    +0.000 A 
BRANCH  14  17
ATOM     17  O   UNL     1     -13.100  -1.878  27.597  0.00  0.00    +0.000 OA
ATOM     18  H   UNL     1     -13.261  -1.051  28.094  0.00  0.00    +0.000 HD
ENDBRANCH  14  17
BRANCH  16  19
ATOM     19  O   UNL     1     -11.628   0.352  27.954  0.00  0.00    +0.000 OA
ATOM     20  H   UNL     1     -11.257   0.170  28.841  0.00  0.00    +0.000 HD
ENDBRANCH  16  19
ENDBRANCH   2  11
BRANCH   3  21
ATOM     21  O   UNL     1      -7.649  -5.402  24.388  0.00  0.00    +0.000 OA
ATOM     22  H   UNL     1      -7.944  -5.112  23.501  0.00  0.00    +0.000 HD
ENDBRANCH   3  21
BRANCH   4  23
ATOM     23  O   UNL     1      -7.683  -6.184  26.954  0.00  0.00    +0.000 OA
ATOM     24  H   UNL     1      -7.049  -6.148  26.203  0.00  0.00    +0.000 HD
ENDBRANCH   4  23
BRANCH   7  25
ATOM     25  O   UNL     1      -9.514  -7.768  28.012  0.00  0.00    +0.000 OA
ATOM     26  H   UNL     1      -9.657  -8.734  28.120  0.00  0.00    +0.000 HD
ENDBRANCH   7  25
BRANCH  10  27
ATOM     27  O   UNL     1     -13.308  -8.517  25.253  0.00  0.00    +0.000 OA
ATOM     28  H   UNL     1     -13.159  -9.440  25.521  0.00  0.00    +0.000 HD
ENDBRANCH  10  27
BRANCH   2  29
ATOM     29  O   UNL     1      -9.041  -3.292  23.429  0.00  0.00    +0.000 OA
BRANCH  29  31
ATOM     30  O   UNL     1     -10.724  -2.865  20.156  0.00  0.00    +0.000 OA
ATOM     31  C   UNL     1      -9.624  -3.743  22.190  0.00  0.00    +0.000 C 
ATOM     32  C   UNL     1     -10.062  -2.500  21.375  0.00  0.00    +0.000 C 
ATOM     33  C   UNL     1      -8.615  -4.520  21.338  0.00  0.00    +0.000 C 
ATOM     34  C   UNL     1      -9.010  -4.575  19.888  0.00  0.00    +0.000 A 
ATOM     35  C   UNL     1     -10.029  -3.758  19.388  0.00  0.00    +0.000 A 
ATOM     36  C   UNL     1      -8.358  -5.444  19.005  0.00  0.00    +0.000 A 
ATOM     37  C   UNL     1     -10.419  -3.840  18.049  0.00  0.00    +0.000 A 
ATOM     38  C   UNL     1      -8.726  -5.523  17.664  0.00  0.00    +0.000 A 
ATOM     39  C   UNL     1      -9.761  -4.722  17.199  0.00  0.00    +0.000 A 
BRANCH  32  40
ATOM     40  C   UNL     1     -11.021  -1.629  22.174  0.00  0.00    +0.000 A 
ATOM     41  C   UNL     1     -12.249  -2.136  22.629  0.00  0.00    +0.000 A 
ATOM     42  C   UNL     1     -10.646  -0.323  22.537  0.00  0.00    +0.000 A 
ATOM     43  C   UNL     1     -13.052  -1.364  23.466  0.00  0.00    +0.000 A 
ATOM     44  C   UNL     1     -11.465   0.453  23.362  0.00  0.00    +0.000 A 
ATOM     45  C   UNL     1     -12.660  -0.080  23.836  0.00  0.00    +0.000 A 
BRANCH  43  46
ATOM     46  O   UNL     1     -14.201  -1.887  23.989  0.00  0.00    +0.000 OA
ATOM     47  H   UNL     1     -14.696  -1.181  24.436  0.00  0.00    +0.000 HD
ENDBRANCH  43  46
BRANCH  45  48
ATOM     48  O   UNL     1     -13.445   0.637  24.694  0.00  0.00    +0.000 OA
ATOM     49  H   UNL     1     -12.888   1.260  25.189  0.00  0.00    +0.000 HD
ENDBRANCH  45  48
ENDBRANCH  32  40
BRANCH  36  50
ATOM     50  O   UNL     1      -7.345  -6.225  19.486  0.00  0.00    +0.000 OA
ATOM     51  H   UNL     1      -7.716  -6.879  20.102  0.00  0.00    +0.000 HD
ENDBRANCH  36  50
BRANCH  39  52
ATOM     52  O   UNL     1     -10.104  -4.828  15.883  0.00  0.00    +0.000 OA
ATOM     53  H   UNL     1     -10.583  -5.664  15.752  0.00  0.00    +0.000 HD
ENDBRANCH  39  52
ENDBRANCH  29  31
ENDBRANCH   2  29
TORSDOF 14
ENDMDL
MODEL 4
REMARK VINA RESULT:      -6.5      2.702      6.518
REMARK  Name = 
REMARK  14 active torsions:
REMARK  status: ('A' for Active; 'I' for Inactive)
REMARK    1  A    between atoms: O_1  and  C_14
REMARK    2  A    between atoms: O_1  and  C_15
REMARK    3  A    between atoms: O_4  and  C_16
REMARK    4  A    between atoms: O_5  and  C_18
REMARK    5  A    between atoms: O_6  and  C_26
REMARK    6  A    between atoms: O_7  and  C_29
REMARK    7  A    between atoms: O_8  and  C_35
REMARK    8  A    between atoms: O_9  and  C_36
REMARK    9  A    between atoms: O_10  and  C_39
REMARK   10  A    between atoms: O_11  and  C_40
REMARK   11  A    between atoms: O_12  and  C_41
REMARK   12  A    between atoms: O_13  and  C_43
REMARK   13  A    between atoms: C_14  and  C_20
REMARK   14  A    between atoms: C_17  and  C_24
REMARK                            x       y       z     vdW  Elec       q    Type
REMARK                         _______ _______ _______ _____ _____    ______ ____
ROOT
ATOM      1  O   UNL     1     -11.106  -0.339  24.681  0.00  0.00    +0.000 OA
ATOM      2  C   UNL     1     -11.716  -1.117  23.641  0.00  0.00    +0.000 C 
ATOM      3  C   UNL     1     -13.271  -1.017  23.705  0.00  0.00    +0.000 C 
ATOM      4  C   UNL     1     -13.776  -1.426  25.085  0.00  0.00    +0.000 C 
ATOM      5  C   UNL     1     -12.998  -0.748  26.173  0.00  0.00    +0.000 A 
ATOM      6  C   UNL     1     -11.716  -0.263  25.902  0.00  0.00    +0.000 A 
ATOM      7  C   UNL     1     -13.494  -0.617  27.478  0.00  0.00    +0.000 A 
ATOM      8  C   UNL     1     -10.962   0.351  26.905  0.00  0.00    +0.000 A 
ATOM      9  C   UNL     1     -12.743  -0.025  28.490  0.00  0.00    +0.000 A 
ATOM     10  C   UNL     1     -11.478   0.460  28.191  0.00  0.00    +0.000 A 
ENDROOT
BRANCH   2  11
ATOM     11  C   UNL     1     -11.257  -2.587  23.643  0.00  0.00    +0.000 A 
ATOM     12  C   UNL     1     -11.853  -3.529  22.774  0.00  0.00    +0.000 A 
ATOM     13  C   UNL     1     -10.224  -3.033  24.495  0.00  0.00    +0.000 A 
ATOM     14  C   UNL     1     -11.431  -4.855  22.779  0.00  0.00    +0.000 A 
ATOM     15  C   UNL     1      -9.817  -4.371  24.503  0.00  0.00    +0.000 A 
ATOM     16  C   UNL     1     -10.430  -5.270  23.649  0.00  0.00    +0.000 A 
BRANCH  14  17
ATOM     17  O   UNL     1     -11.962  -5.796  21.943  0.00  0.00    +0.000 OA
ATOM     18  H   UNL     1     -12.926  -5.865  22.099  0.00  0.00    +0.000 HD
ENDBRANCH  14  17
BRANCH  16  19
ATOM     19  O   UNL     1     -10.030  -6.576  23.653  0.00  0.00    +0.000 OA
ATOM     20  H   UNL     1      -9.219  -6.580  24.201  0.00  0.00    +0.000 HD
ENDBRANCH  16  19
ENDBRANCH   2  11
BRANCH   3  21
ATOM     21  O   UNL     1     -13.744   0.331  23.423  0.00  0.00    +0.000 OA
ATOM     22  H   UNL     1     -14.446   0.494  24.086  0.00  0.00    +0.000 HD
ENDBRANCH   3  21
BRANCH   4  23
ATOM     23  O   UNL     1     -15.167  -1.080  25.207  0.00  0.00    +0.000 OA
ATOM     24  H   UNL     1     -15.169  -0.097  25.218  0.00  0.00    +0.000 HD
ENDBRANCH   4  23
BRANCH   7  25
ATOM     25  O   UNL     1     -14.749  -1.049  27.816  0.00  0.00    +0.000 OA
ATOM     26  H   UNL     1     -15.090  -0.436  28.504  0.00  0.00    +0.000 HD
ENDBRANCH   7  25
BRANCH  10  27
ATOM     27  O   UNL     1     -10.703   1.057  29.141  0.00  0.00    +0.000 OA
ATOM     28  H   UNL     1     -11.047   0.811  30.017  0.00  0.00    +0.000 HD
ENDBRANCH  10  27
BRANCH   2  29
ATOM     29  O   UNL     1     -11.399  -0.496  22.364  0.00  0.00    +0.000 OA
BRANCH  29  31
ATOM     30  O   UNL     1      -8.313   0.834  20.802  0.00  0.00    +0.000 OA
ATOM     31  C   UNL     1     -10.207   0.313  22.305  0.00  0.00    +0.000 C 
ATOM     32  C   UNL     1      -9.552   0.119  20.915  0.00  0.00    +0.000 C 
ATOM     33  C   UNL     1     -10.525   1.803  22.461  0.00  0.00    +0.000 C 
ATOM     34  C   UNL     1      -9.426   2.683  21.931  0.00  0.00    +0.000 A 
ATOM     35  C   UNL     1      -8.397   2.155  21.146  0.00  0.00    +0.000 A 
ATOM     36  C   UNL     1      -9.417   4.055  22.209  0.00  0.00    +0.000 A 
ATOM     37  C   UNL     1      -7.357   2.969  20.688  0.00  0.00    +0.000 A 
ATOM     38  C   UNL     1      -8.394   4.880  21.744  0.00  0.00    +0.000 A 
ATOM     39  C   UNL     1      -7.368   4.325  20.991  0.00  0.00    +0.000 A 
BRANCH  32  40
ATOM     40  C   UNL     1      -9.258  -1.350  20.646  0.00  0.00    +0.000 A 
ATOM     41  C   UNL     1      -8.319  -2.053  21.418  0.00  0.00    +0.000 A 
ATOM     42  C   UNL     1      -9.992  -2.044  19.667  0.00  0.00    +0.000 A 
ATOM     43  C   UNL     1      -8.160  -3.426  21.240  0.00  0.00    +0.000 A 
ATOM     44  C   UNL     1      -9.814  -3.418  19.480  0.00  0.00    +0.000 A 
ATOM     45  C   UNL     1      -8.908  -4.106  20.281  0.00  0.00    +0.000 A 
BRANCH  43  46
ATOM     46  O   UNL     1      -7.319  -4.131  22.052  0.00  0.00    +0.000 OA
ATOM     47  H   UNL     1      -7.835  -4.782  22.556  0.00  0.00    +0.000 HD
ENDBRANCH  43  46
BRANCH  45  48
ATOM     48  O   UNL     1      -8.765  -5.458  20.159  0.00  0.00    +0.000 OA
ATOM     49  H   UNL     1      -8.757  -5.693  19.217  0.00  0.00    +0.000 HD
ENDBRANCH  45  48
ENDBRANCH  32  40
BRANCH  36  50
ATOM     50  O   UNL     1     -10.435   4.579  22.955  0.00  0.00    +0.000 OA
ATOM     51  H   UNL     1     -10.065   4.967  23.765  0.00  0.00    +0.000 HD
ENDBRANCH  36  50
BRANCH  39  52
ATOM     52  O   UNL     1      -6.378   5.158  20.557  0.00  0.00    +0.000 OA
ATOM     53  H   UNL     1      -6.607   6.070  20.803  0.00  0.00    +0.000 HD
ENDBRANCH  39  52
ENDBRANCH  29  31
ENDBRANCH   2  29
TORSDOF 14
ENDMDL
MODEL 5
REMARK VINA RESULT:      -6.4      3.530      6.949
REMARK  Name = 
REMARK  14 active torsions:
REMARK  status: ('A' for Active; 'I' for Inactive)
REMARK    1  A    between atoms: O_1  and  C_14
REMARK    2  A    between atoms: O_1  and  C_15
REMARK    3  A    between atoms: O_4  and  C_16
REMARK    4  A    between atoms: O_5  and  C_18
REMARK    5  A    between atoms: O_6  and  C_26
REMARK    6  A    between atoms: O_7  and  C_29
REMARK    7  A    between atoms: O_8  and  C_35
REMARK    8  A    between atoms: O_9  and  C_36
REMARK    9  A    between atoms: O_10  and  C_39
REMARK   10  A    between atoms: O_11  and  C_40
REMARK   11  A    between atoms: O_12  and  C_41
REMARK   12  A    between atoms: O_13  and  C_43
REMARK   13  A    between atoms: C_14  and  C_20
REMARK   14  A    between atoms: C_17  and  C_24
REMARK                            x       y       z     vdW  Elec       q    Type
REMARK                         _______ _______ _______ _____ _____    ______ ____
ROOT
ATOM      1  O   UNL     1     -11.644  -3.537  23.822  0.00  0.00    +0.000 OA
ATOM      2  C   UNL     1     -11.159  -3.906  25.120  0.00  0.00    +0.000 C 
ATOM      3  C   UNL     1      -9.659  -3.518  25.289  0.00  0.00    +0.000 C 
ATOM      4  C   UNL     1      -8.818  -4.136  24.177  0.00  0.00    +0.000 C 
ATOM      5  C   UNL     1      -9.441  -3.908  22.832  0.00  0.00    +0.000 A 
ATOM      6  C   UNL     1     -10.809  -3.636  22.744  0.00  0.00    +0.000 A 
ATOM      7  C   UNL     1      -8.705  -3.998  21.641  0.00  0.00    +0.000 A 
ATOM      8  C   UNL     1     -11.416  -3.443  21.501  0.00  0.00    +0.000 A 
ATOM      9  C   UNL     1      -9.305  -3.827  20.397  0.00  0.00    +0.000 A 
ATOM     10  C   UNL     1     -10.662  -3.545  20.338  0.00  0.00    +0.000 A 
ENDROOT
BRANCH   2  11
ATOM     11  C   UNL     1     -11.384  -5.395  25.445  0.00  0.00    +0.000 A 
ATOM     12  C   UNL     1     -12.221  -6.191  24.631  0.00  0.00    +0.000 A 
ATOM     13  C   UNL     1     -10.754  -6.010  26.548  0.00  0.00    +0.000 A 
ATOM     14  C   UNL     1     -12.418  -7.536  24.929  0.00  0.00    +0.000 A 
ATOM     15  C   UNL     1     -10.970  -7.358  26.847  0.00  0.00    +0.000 A 
ATOM     16  C   UNL     1     -11.805  -8.106  26.039  0.00  0.00    +0.000 A 
BRANCH  14  17
ATOM     17  O   UNL     1     -13.201  -8.350  24.160  0.00  0.00    +0.000 OA
ATOM     18  H   UNL     1     -14.063  -8.487  24.602  0.00  0.00    +0.000 HD
ENDBRANCH  14  17
BRANCH  16  19
ATOM     19  O   UNL     1     -12.012  -9.425  26.328  0.00  0.00    +0.000 OA
ATOM     20  H   UNL     1     -11.823  -9.890  25.488  0.00  0.00    +0.000 HD
ENDBRANCH  16  19
ENDBRANCH   2  11
BRANCH   3  21
ATOM     21  O   UNL     1      -9.461  -2.075  25.266  0.00  0.00    +0.000 OA
ATOM     22  H   UNL     1      -9.785  -1.764  26.135  0.00  0.00    +0.000 HD
ENDBRANCH   3  21
BRANCH   4  23
ATOM     23  O   UNL     1      -7.500  -3.561  24.196  0.00  0.00    +0.000 OA
ATOM     24  H   UNL     1      -7.583  -2.792  24.804  0.00  0.00    +0.000 HD
ENDBRANCH   4  23
BRANCH   7  25
ATOM     25  O   UNL     1      -7.357  -4.240  21.647  0.00  0.00    +0.000 OA
ATOM     26  H   UNL     1      -7.064  -4.220  22.585  0.00  0.00    +0.000 HD
ENDBRANCH   7  25
BRANCH  10  27
ATOM     27  O   UNL     1     -11.299  -3.360  19.146  0.00  0.00    +0.000 OA
ATOM     28  H   UNL     1     -10.931  -2.566  18.722  0.00  0.00    +0.000 HD
ENDBRANCH  10  27
BRANCH   2  29
ATOM     29  O   UNL     1     -11.828  -3.073  26.108  0.00  0.00    +0.000 OA
BRANCH  29  31
ATOM     30  O   UNL     1     -15.365  -2.295  26.894  0.00  0.00    +0.000 OA
ATOM     31  C   UNL     1     -13.171  -2.646  25.805  0.00  0.00    +0.000 C 
ATOM     32  C   UNL     1     -13.990  -2.636  27.120  0.00  0.00    +0.000 C 
ATOM     33  C   UNL     1     -13.199  -1.224  25.236  0.00  0.00    +0.000 C 
ATOM     34  C   UNL     1     -14.551  -0.579  25.367  0.00  0.00    +0.000 A 
ATOM     35  C   UNL     1     -15.543  -1.145  26.174  0.00  0.00    +0.000 A 
ATOM     36  C   UNL     1     -14.843   0.609  24.686  0.00  0.00    +0.000 A 
ATOM     37  C   UNL     1     -16.811  -0.564  26.263  0.00  0.00    +0.000 A 
ATOM     38  C   UNL     1     -16.098   1.207  24.780  0.00  0.00    +0.000 A 
ATOM     39  C   UNL     1     -17.075   0.609  25.566  0.00  0.00    +0.000 A 
BRANCH  32  40
ATOM     40  C   UNL     1     -13.963  -4.002  27.794  0.00  0.00    +0.000 A 
ATOM     41  C   UNL     1     -14.661  -5.090  27.248  0.00  0.00    +0.000 A 
ATOM     42  C   UNL     1     -13.165  -4.206  28.934  0.00  0.00    +0.000 A 
ATOM     43  C   UNL     1     -14.519  -6.359  27.807  0.00  0.00    +0.000 A 
ATOM     44  C   UNL     1     -13.041  -5.477  29.501  0.00  0.00    +0.000 A 
ATOM     45  C   UNL     1     -13.708  -6.552  28.924  0.00  0.00    +0.000 A 
BRANCH  43  46
ATOM     46  O   UNL     1     -15.119  -7.438  27.224  0.00  0.00    +0.000 OA
ATOM     47  H   UNL     1     -14.785  -7.536  26.317  0.00  0.00    +0.000 HD
ENDBRANCH  43  46
BRANCH  45  48
ATOM     48  O   UNL     1     -13.552  -7.814  29.424  0.00  0.00    +0.000 OA
ATOM     49  H   UNL     1     -12.689  -7.876  29.865  0.00  0.00    +0.000 HD
ENDBRANCH  45  48
ENDBRANCH  32  40
BRANCH  36  50
ATOM     50  O   UNL     1     -13.867   1.178  23.916  0.00  0.00    +0.000 OA
ATOM     51  H   UNL     1     -14.024   0.943  22.986  0.00  0.00    +0.000 HD
ENDBRANCH  36  50
BRANCH  39  52
ATOM     52  O   UNL     1     -18.296   1.215  25.630  0.00  0.00    +0.000 OA
ATOM     53  H   UNL     1     -18.699   1.199  24.745  0.00  0.00    +0.000 HD
ENDBRANCH  39  52
ENDBRANCH  29  31
ENDBRANCH   2  29
TORSDOF 14
ENDMDL
MODEL 6
REMARK VINA RESULT:      -6.2     18.798     22.318
REMARK  Name = 
REMARK  14 active torsions:
REMARK  status: ('A' for Active; 'I' for Inactive)
REMARK    1  A    between atoms: O_1  and  C_14
REMARK    2  A    between atoms: O_1  and  C_15
REMARK    3  A    between atoms: O_4  and  C_16
REMARK    4  A    between atoms: O_5  and  C_18
REMARK    5  A    between atoms: O_6  and  C_26
REMARK    6  A    between atoms: O_7  and  C_29
REMARK    7  A    between atoms: O_8  and  C_35
REMARK    8  A    between atoms: O_9  and  C_36
REMARK    9  A    between atoms: O_10  and  C_39
REMARK   10  A    between atoms: O_11  and  C_40
REMARK   11  A    between atoms: O_12  and  C_41
REMARK   12  A    between atoms: O_13  and  C_43
REMARK   13  A    between atoms: C_14  and  C_20
REMARK   14  A    between atoms: C_17  and  C_24
REMARK                            x       y       z     vdW  Elec       q    Type
REMARK                         _______ _______ _______ _____ _____    ______ ____
ROOT
ATOM      1  O   UNL     1     -12.358 -15.257   5.834  0.00  0.00    +0.000 OA
ATOM      2  C   UNL     1     -13.426 -15.987   5.214  0.00  0.00    +0.000 C 
ATOM      3  C   UNL     1     -12.875 -17.149   4.333  0.00  0.00    +0.000 C 
ATOM      4  C   UNL     1     -11.885 -16.615   3.302  0.00  0.00    +0.000 C 
ATOM      5  C   UNL     1     -10.884 -15.695   3.935  0.00  0.00    +0.000 A 
ATOM      6  C   UNL     1     -11.191 -15.071   5.147  0.00  0.00    +0.000 A 
ATOM      7  C   UNL     1      -9.653 -15.399   3.331  0.00  0.00    +0.000 A 
ATOM      8  C   UNL     1     -10.284 -14.192   5.744  0.00  0.00    +0.000 A 
ATOM      9  C   UNL     1      -8.751 -14.509   3.907  0.00  0.00    +0.000 A 
ATOM     10  C   UNL     1      -9.074 -13.915   5.117  0.00  0.00    +0.000 A 
ENDROOT
BRANCH   2  11
ATOM     11  C   UNL     1     -14.380 -15.085   4.406  0.00  0.00    +0.000 A 
ATOM     12  C   UNL     1     -15.486 -15.638   3.722  0.00  0.00    +0.000 A 
ATOM     13  C   UNL     1     -14.187 -13.689   4.335  0.00  0.00    +0.000 A 
ATOM     14  C   UNL     1     -16.344 -14.818   2.997  0.00  0.00    +0.000 A 
ATOM     15  C   UNL     1     -15.047 -12.876   3.591  0.00  0.00    +0.000 A 
ATOM     16  C   UNL     1     -16.113 -13.449   2.924  0.00  0.00    +0.000 A 
BRANCH  14  17
ATOM     17  O   UNL     1     -17.439 -15.303   2.337  0.00  0.00    +0.000 OA
ATOM     18  H   UNL     1     -17.713 -14.666   1.647  0.00  0.00    +0.000 HD
ENDBRANCH  14  17
BRANCH  16  19
ATOM     19  O   UNL     1     -16.956 -12.654   2.200  0.00  0.00    +0.000 OA
ATOM     20  H   UNL     1     -17.796 -12.671   2.702  0.00  0.00    +0.000 HD
ENDBRANCH  16  19
ENDBRANCH   2  11
BRANCH   3  21
ATOM     21  O   UNL     1     -12.205 -18.167   5.129  0.00  0.00    +0.000 OA
ATOM     22  H   UNL     1     -11.412 -18.410   4.608  0.00  0.00    +0.000 HD
ENDBRANCH   3  21
BRANCH   4  23
ATOM     23  O   UNL     1     -11.197 -17.716   2.683  0.00  0.00    +0.000 OA
ATOM     24  H   UNL     1     -11.416 -18.486   3.254  0.00  0.00    +0.000 HD
ENDBRANCH   4  23
BRANCH   7  25
ATOM     25  O   UNL     1      -9.272 -15.986   2.154  0.00  0.00    +0.000 OA
ATOM     26  H   UNL     1      -8.313 -15.804   2.037  0.00  0.00    +0.000 HD
ENDBRANCH   7  25
BRANCH  10  27
ATOM     27  O   UNL     1      -8.224 -13.042   5.731  0.00  0.00    +0.000 OA
ATOM     28  H   UNL     1      -8.742 -12.286   6.057  0.00  0.00    +0.000 HD
ENDBRANCH  10  27
BRANCH   2  29
ATOM     29  O   UNL     1     -14.164 -16.685   6.256  0.00  0.00    +0.000 OA
BRANCH  29  31
ATOM     30  O   UNL     1     -15.187 -15.738   9.689  0.00  0.00    +0.000 OA
ATOM     31  C   UNL     1     -13.943 -16.258   7.615  0.00  0.00    +0.000 C 
ATOM     32  C   UNL     1     -15.308 -16.229   8.347  0.00  0.00    +0.000 C 
ATOM     33  C   UNL     1     -13.034 -17.229   8.375  0.00  0.00    +0.000 C 
ATOM     34  C   UNL     1     -13.174 -17.098   9.866  0.00  0.00    +0.000 A 
ATOM     35  C   UNL     1     -14.225 -16.369  10.430  0.00  0.00    +0.000 A 
ATOM     36  C   UNL     1     -12.254 -17.714  10.724  0.00  0.00    +0.000 A 
ATOM     37  C   UNL     1     -14.330 -16.218  11.815  0.00  0.00    +0.000 A 
ATOM     38  C   UNL     1     -12.357 -17.584  12.107  0.00  0.00    +0.000 A 
ATOM     39  C   UNL     1     -13.394 -16.830  12.641  0.00  0.00    +0.000 A 
BRANCH  32  40
ATOM     40  C   UNL     1     -16.303 -15.333   7.620  0.00  0.00    +0.000 A 
ATOM     41  C   UNL     1     -16.098 -13.947   7.534  0.00  0.00    +0.000 A 
ATOM     42  C   UNL     1     -17.402 -15.903   6.952  0.00  0.00    +0.000 A 
ATOM     43  C   UNL     1     -16.949 -13.165   6.757  0.00  0.00    +0.000 A 
ATOM     44  C   UNL     1     -18.264 -15.110   6.190  0.00  0.00    +0.000 A 
ATOM     45  C   UNL     1     -18.023 -13.744   6.083  0.00  0.00    +0.000 A 
BRANCH  43  46
ATOM     46  O   UNL     1     -16.700 -11.833   6.592  0.00  0.00    +0.000 OA
ATOM     47  H   UNL     1     -17.369 -11.455   5.998  0.00  0.00    +0.000 HD
ENDBRANCH  43  46
BRANCH  45  48
ATOM     48  O   UNL     1     -18.814 -12.961   5.292  0.00  0.00    +0.000 OA
ATOM     49  H   UNL     1     -18.928 -13.393   4.430  0.00  0.00    +0.000 HD
ENDBRANCH  45  48
ENDBRANCH  32  40
BRANCH  36  50
ATOM     50  O   UNL     1     -11.240 -18.448  10.177  0.00  0.00    +0.000 OA
ATOM     51  H   UNL     1     -10.432 -18.309  10.700  0.00  0.00    +0.000 HD
ENDBRANCH  36  50
BRANCH  39  52
ATOM     52  O   UNL     1     -13.463 -16.716  13.999  0.00  0.00    +0.000 OA
ATOM     53  H   UNL     1     -14.221 -16.151  14.226  0.00  0.00    +0.000 HD
ENDBRANCH  39  52
ENDBRANCH  29  31
ENDBRANCH   2  29
TORSDOF 14
ENDMDL
MODEL 7
REMARK VINA RESULT:      -6.2     19.952     22.970
REMARK  Name = 
REMARK  14 active torsions:
REMARK  status: ('A' for Active; 'I' for Inactive)
REMARK    1  A    between atoms: O_1  and  C_14
REMARK    2  A    between atoms: O_1  and  C_15
REMARK    3  A    between atoms: O_4  and  C_16
REMARK    4  A    between atoms: O_5  and  C_18
REMARK    5  A    between atoms: O_6  and  C_26
REMARK    6  A    between atoms: O_7  and  C_29
REMARK    7  A    between atoms: O_8  and  C_35
REMARK    8  A    between atoms: O_9  and  C_36
REMARK    9  A    between atoms: O_10  and  C_39
REMARK   10  A    between atoms: O_11  and  C_40
REMARK   11  A    between atoms: O_12  and  C_41
REMARK   12  A    between atoms: O_13  and  C_43
REMARK   13  A    between atoms: C_14  and  C_20
REMARK   14  A    between atoms: C_17  and  C_24
REMARK                            x       y       z     vdW  Elec       q    Type
REMARK                         _______ _______ _______ _____ _____    ______ ____
ROOT
ATOM      1  O   UNL     1      -3.564  -3.349   1.531  0.00  0.00    +0.000 OA
ATOM      2  C   UNL     1      -2.365  -2.709   1.074  0.00  0.00    +0.000 C 
ATOM      3  C   UNL     1      -1.599  -3.610   0.058  0.00  0.00    +0.000 C 
ATOM      4  C   UNL     1      -1.311  -4.978   0.668  0.00  0.00    +0.000 C 
ATOM      5  C   UNL     1      -2.535  -5.555   1.314  0.00  0.00    +0.000 A 
ATOM      6  C   UNL     1      -3.570  -4.704   1.711  0.00  0.00    +0.000 A 
ATOM      7  C   UNL     1      -2.667  -6.926   1.578  0.00  0.00    +0.000 A 
ATOM      8  C   UNL     1      -4.710  -5.215   2.336  0.00  0.00    +0.000 A 
ATOM      9  C   UNL     1      -3.789  -7.443   2.218  0.00  0.00    +0.000 A 
ATOM     10  C   UNL     1      -4.808  -6.578   2.589  0.00  0.00    +0.000 A 
ENDROOT
BRANCH   2  11
ATOM     11  C   UNL     1      -1.441  -2.271   2.228  0.00  0.00    +0.000 A 
ATOM     12  C   UNL     1      -1.938  -2.164   3.546  0.00  0.00    +0.000 A 
ATOM     13  C   UNL     1      -0.078  -1.980   2.008  0.00  0.00    +0.000 A 
ATOM     14  C   UNL     1      -1.098  -1.770   4.583  0.00  0.00    +0.000 A 
ATOM     15  C   UNL     1       0.754  -1.571   3.054  0.00  0.00    +0.000 A 
ATOM     16  C   UNL     1       0.234  -1.464   4.330  0.00  0.00    +0.000 A 
BRANCH  14  17
ATOM     17  O   UNL     1      -1.527  -1.673   5.877  0.00  0.00    +0.000 OA
ATOM     18  H   UNL     1      -2.293  -1.065   5.922  0.00  0.00    +0.000 HD
ENDBRANCH  14  17
BRANCH  16  19
ATOM     19  O   UNL     1       1.047  -1.069   5.354  0.00  0.00    +0.000 OA
ATOM     20  H   UNL     1       1.712  -1.783   5.425  0.00  0.00    +0.000 HD
ENDBRANCH  16  19
ENDBRANCH   2  11
BRANCH   3  21
ATOM     21  O   UNL     1      -2.352  -3.806  -1.173  0.00  0.00    +0.000 OA
ATOM     22  H   UNL     1      -1.673  -3.976  -1.857  0.00  0.00    +0.000 HD
ENDBRANCH   3  21
BRANCH   4  23
ATOM     23  O   UNL     1      -0.847  -5.872  -0.358  0.00  0.00    +0.000 OA
ATOM     24  H   UNL     1      -1.213  -6.747  -0.097  0.00  0.00    +0.000 HD
ENDBRANCH   4  23
BRANCH   7  25
ATOM     25  O   UNL     1      -1.705  -7.825   1.200  0.00  0.00    +0.000 OA
ATOM     26  H   UNL     1      -1.276  -8.151   2.022  0.00  0.00    +0.000 HD
ENDBRANCH   7  25
BRANCH  10  27
ATOM     27  O   UNL     1      -5.935  -7.032   3.212  0.00  0.00    +0.000 OA
ATOM     28  H   UNL     1      -5.673  -7.466   4.041  0.00  0.00    +0.000 HD
ENDBRANCH  10  27
BRANCH   2  29
ATOM     29  O   UNL     1      -2.742  -1.555   0.271  0.00  0.00    +0.000 OA
BRANCH  29  31
ATOM     30  O   UNL     1      -4.662   1.562   0.844  0.00  0.00    +0.000 OA
ATOM     31  C   UNL     1      -3.866  -0.777   0.729  0.00  0.00    +0.000 C 
ATOM     32  C   UNL     1      -3.621   0.706   0.355  0.00  0.00    +0.000 C 
ATOM     33  C   UNL     1      -5.170  -1.213   0.052  0.00  0.00    +0.000 C 
ATOM     34  C   UNL     1      -6.234  -0.152   0.120  0.00  0.00    +0.000 A 
ATOM     35  C   UNL     1      -5.924   1.155   0.509  0.00  0.00    +0.000 A 
ATOM     36  C   UNL     1      -7.560  -0.451  -0.214  0.00  0.00    +0.000 A 
ATOM     37  C   UNL     1      -6.922   2.128   0.607  0.00  0.00    +0.000 A 
ATOM     38  C   UNL     1      -8.561   0.514  -0.136  0.00  0.00    +0.000 A 
ATOM     39  C   UNL     1      -8.232   1.797   0.281  0.00  0.00    +0.000 A 
BRANCH  32  40
ATOM     40  C   UNL     1      -2.305   1.208   0.934  0.00  0.00    +0.000 A 
ATOM     41  C   UNL     1      -2.152   1.403   2.316  0.00  0.00    +0.000 A 
ATOM     42  C   UNL     1      -1.196   1.403   0.091  0.00  0.00    +0.000 A 
ATOM     43  C   UNL     1      -0.904   1.738   2.837  0.00  0.00    +0.000 A 
ATOM     44  C   UNL     1       0.048   1.758   0.618  0.00  0.00    +0.000 A 
ATOM     45  C   UNL     1       0.192   1.908   1.994  0.00  0.00    +0.000 A 
BRANCH  43  46
ATOM     46  O   UNL     1      -0.727   1.835   4.188  0.00  0.00    +0.000 OA
ATOM     47  H   UNL     1      -1.023   1.010   4.608  0.00  0.00    +0.000 HD
ENDBRANCH  43  46
BRANCH  45  48
ATOM     48  O   UNL     1       1.413   2.193   2.536  0.00  0.00    +0.000 OA
ATOM     49  H   UNL     1       1.641   1.504   3.181  0.00  0.00    +0.000 HD
ENDBRANCH  45  48
ENDBRANCH  32  40
BRANCH  36  50
ATOM     50  O   UNL     1      -7.861  -1.722  -0.619  0.00  0.00    +0.000 OA
ATOM     51  H   UNL     1      -7.938  -2.292   0.164  0.00  0.00    +0.000 HD
ENDBRANCH  36  50
BRANCH  39  52
ATOM     52  O   UNL     1      -9.236   2.718   0.355  0.00  0.00    +0.000 OA
ATOM     53  H   UNL     1      -9.216   3.267  -0.448  0.00  0.00    +0.000 HD
ENDBRANCH  39  52
ENDBRANCH  29  31
ENDBRANCH   2  29
TORSDOF 14
ENDMDL
MODEL 8
REMARK VINA RESULT:      -6.2     17.281     20.369
REMARK  Name = 
REMARK  14 active torsions:
REMARK  status: ('A' for Active; 'I' for Inactive)
REMARK    1  A    between atoms: O_1  and  C_14
REMARK    2  A    between atoms: O_1  and  C_15
REMARK    3  A    between atoms: O_4  and  C_16
REMARK    4  A    between atoms: O_5  and  C_18
REMARK    5  A    between atoms: O_6  and  C_26
REMARK    6  A    between atoms: O_7  and  C_29
REMARK    7  A    between atoms: O_8  and  C_35
REMARK    8  A    between atoms: O_9  and  C_36
REMARK    9  A    between atoms: O_10  and  C_39
REMARK   10  A    between atoms: O_11  and  C_40
REMARK   11  A    between atoms: O_12  and  C_41
REMARK   12  A    between atoms: O_13  and  C_43
REMARK   13  A    between atoms: C_14  and  C_20
REMARK   14  A    between atoms: C_17  and  C_24
REMARK                            x       y       z     vdW  Elec       q    Type
REMARK                         _______ _______ _______ _____ _____    ______ ____
ROOT
ATOM      1  O   UNL     1       4.128 -13.364  14.509  0.00  0.00    +0.000 OA
ATOM      2  C   UNL     1       4.739 -14.646  14.707  0.00  0.00    +0.000 C 
ATOM      3  C   UNL     1       6.255 -14.608  14.345  0.00  0.00    +0.000 C 
ATOM      4  C   UNL     1       6.451 -14.104  12.918  0.00  0.00    +0.000 C 
ATOM      5  C   UNL     1       5.651 -12.861  12.665  0.00  0.00    +0.000 A 
ATOM      6  C   UNL     1       4.541 -12.581  13.467  0.00  0.00    +0.000 A 
ATOM      7  C   UNL     1       5.950 -11.978  11.617  0.00  0.00    +0.000 A 
ATOM      8  C   UNL     1       3.766 -11.442  13.236  0.00  0.00    +0.000 A 
ATOM      9  C   UNL     1       5.173 -10.851  11.366  0.00  0.00    +0.000 A 
ATOM     10  C   UNL     1       4.085 -10.590  12.185  0.00  0.00    +0.000 A 
ENDROOT
BRANCH   2  11
ATOM     11  C   UNL     1       4.018 -15.777  13.948  0.00  0.00    +0.000 A 
ATOM     12  C   UNL     1       2.819 -15.523  13.245  0.00  0.00    +0.000 A 
ATOM     13  C   UNL     1       4.538 -17.089  13.918  0.00  0.00    +0.000 A 
ATOM     14  C   UNL     1       2.175 -16.549  12.560  0.00  0.00    +0.000 A 
ATOM     15  C   UNL     1       3.876 -18.116  13.238  0.00  0.00    +0.000 A 
ATOM     16  C   UNL     1       2.697 -17.837  12.572  0.00  0.00    +0.000 A 
BRANCH  14  17
ATOM     17  O   UNL     1       1.025 -16.347  11.850  0.00  0.00    +0.000 OA
ATOM     18  H   UNL     1       0.725 -17.195  11.466  0.00  0.00    +0.000 HD
ENDBRANCH  14  17
BRANCH  16  19
ATOM     19  O   UNL     1       2.052 -18.838  11.904  0.00  0.00    +0.000 OA
ATOM     20  H   UNL     1       2.196 -19.632  12.459  0.00  0.00    +0.000 HD
ENDBRANCH  16  19
ENDBRANCH   2  11
BRANCH   3  21
ATOM     21  O   UNL     1       7.010 -13.747  15.244  0.00  0.00    +0.000 OA
ATOM     22  H   UNL     1       6.610 -13.893  16.125  0.00  0.00    +0.000 HD
ENDBRANCH   3  21
BRANCH   4  23
ATOM     23  O   UNL     1       7.845 -13.827  12.695  0.00  0.00    +0.000 OA
ATOM     24  H   UNL     1       7.975 -14.012  11.738  0.00  0.00    +0.000 HD
ENDBRANCH   4  23
BRANCH   7  25
ATOM     25  O   UNL     1       7.033 -12.173  10.802  0.00  0.00    +0.000 OA
ATOM     26  H   UNL     1       7.830 -12.186  11.377  0.00  0.00    +0.000 HD
ENDBRANCH   7  25
BRANCH  10  27
ATOM     27  O   UNL     1       3.294  -9.495  11.989  0.00  0.00    +0.000 OA
ATOM     28  H   UNL     1       3.758  -8.884  11.392  0.00  0.00    +0.000 HD
ENDBRANCH  10  27
BRANCH   2  29
ATOM     29  O   UNL     1       4.749 -14.930  16.134  0.00  0.00    +0.000 OA
BRANCH  29  31
ATOM     30  O   UNL     1       2.135 -15.041  18.758  0.00  0.00    +0.000 OA
ATOM     31  C   UNL     1       3.657 -14.404  16.915  0.00  0.00    +0.000 C 
ATOM     32  C   UNL     1       3.269 -15.456  17.984  0.00  0.00    +0.000 C 
ATOM     33  C   UNL     1       4.054 -13.122  17.653  0.00  0.00    +0.000 C 
ATOM     34  C   UNL     1       3.150 -12.828  18.818  0.00  0.00    +0.000 A 
ATOM     35  C   UNL     1       2.254 -13.788  19.295  0.00  0.00    +0.000 A 
ATOM     36  C   UNL     1       3.194 -11.582  19.456  0.00  0.00    +0.000 A 
ATOM     37  C   UNL     1       1.388 -13.497  20.353  0.00  0.00    +0.000 A 
ATOM     38  C   UNL     1       2.348 -11.285  20.522  0.00  0.00    +0.000 A 
ATOM     39  C   UNL     1       1.446 -12.247  20.958  0.00  0.00    +0.000 A 
BRANCH  32  40
ATOM     40  C   UNL     1       2.919 -16.791  17.340  0.00  0.00    +0.000 A 
ATOM     41  C   UNL     1       3.709 -17.930  17.563  0.00  0.00    +0.000 A 
ATOM     42  C   UNL     1       1.744 -16.916  16.577  0.00  0.00    +0.000 A 
ATOM     43  C   UNL     1       3.300 -19.167  17.072  0.00  0.00    +0.000 A 
ATOM     44  C   UNL     1       1.350 -18.156  16.070  0.00  0.00    +0.000 A 
ATOM     45  C   UNL     1       2.124 -19.282  16.334  0.00  0.00    +0.000 A 
BRANCH  43  46
ATOM     46  O   UNL     1       4.014 -20.294  17.366  0.00  0.00    +0.000 OA
ATOM     47  H   UNL     1       4.539 -20.549  16.589  0.00  0.00    +0.000 HD
ENDBRANCH  43  46
BRANCH  45  48
ATOM     48  O   UNL     1       1.724 -20.514  15.903  0.00  0.00    +0.000 OA
ATOM     49  H   UNL     1       2.355 -20.838  15.240  0.00  0.00    +0.000 HD
ENDBRANCH  45  48
ENDBRANCH  32  40
BRANCH  36  50
ATOM     50  O   UNL     1       4.088 -10.649  19.008  0.00  0.00    +0.000 OA
ATOM     51  H   UNL     1       3.799  -9.769  19.304  0.00  0.00    +0.000 HD
ENDBRANCH  36  50
BRANCH  39  52
ATOM     52  O   UNL     1       0.626 -11.923  21.999  0.00  0.00    +0.000 OA
ATOM     53  H   UNL     1      -0.008 -12.648  22.134  0.00  0.00    +0.000 HD
ENDBRANCH  39  52
ENDBRANCH  29  31
ENDBRANCH   2  29
TORSDOF 14
ENDMDL
MODEL 9
REMARK VINA RESULT:      -6.0      2.866      6.975
REMARK  Name = 
REMARK  14 active torsions:
REMARK  status: ('A' for Active; 'I' for Inactive)
REMARK    1  A    between atoms: O_1  and  C_14
REMARK    2  A    between atoms: O_1  and  C_15
REMARK    3  A    between atoms: O_4  and  C_16
REMARK    4  A    between atoms: O_5  and  C_18
REMARK    5  A    between atoms: O_6  and  C_26
REMARK    6  A    between atoms: O_7  and  C_29
REMARK    7  A    between atoms: O_8  and  C_35
REMARK    8  A    between atoms: O_9  and  C_36
REMARK    9  A    between atoms: O_10  and  C_39
REMARK   10  A    between atoms: O_11  and  C_40
REMARK   11  A    between atoms: O_12  and  C_41
REMARK   12  A    between atoms: O_13  and  C_43
REMARK   13  A    between atoms: C_14  and  C_20
REMARK   14  A    between atoms: C_17  and  C_24
REMARK                            x       y       z     vdW  Elec       q    Type
REMARK                         _______ _______ _______ _____ _____    ______ ____
ROOT
ATOM      1  O   UNL     1     -10.042   0.958  22.056  0.00  0.00    +0.000 OA
ATOM      2  C   UNL     1      -9.461   0.063  23.014  0.00  0.00    +0.000 C 
ATOM      3  C   UNL     1      -8.256   0.729  23.746  0.00  0.00    +0.000 C 
ATOM      4  C   UNL     1      -7.224   1.222  22.737  0.00  0.00    +0.000 C 
ATOM      5  C   UNL     1      -7.872   1.999  21.630  0.00  0.00    +0.000 A 
ATOM      6  C   UNL     1      -9.229   1.807  21.358  0.00  0.00    +0.000 A 
ATOM      7  C   UNL     1      -7.153   2.890  20.820  0.00  0.00    +0.000 A 
ATOM      8  C   UNL     1      -9.849   2.501  20.316  0.00  0.00    +0.000 A 
ATOM      9  C   UNL     1      -7.757   3.571  19.768  0.00  0.00    +0.000 A 
ATOM     10  C   UNL     1      -9.108   3.373  19.527  0.00  0.00    +0.000 A 
ENDROOT
BRANCH   2  11
ATOM     11  C   UNL     1      -9.054  -1.291  22.402  0.00  0.00    +0.000 A 
ATOM     12  C   UNL     1      -8.454  -2.291  23.200  0.00  0.00    +0.000 A 
ATOM     13  C   UNL     1      -9.279  -1.578  21.039  0.00  0.00    +0.000 A 
ATOM     14  C   UNL     1      -8.092  -3.512  22.641  0.00  0.00    +0.000 A 
ATOM     15  C   UNL     1      -8.899  -2.803  20.483  0.00  0.00    +0.000 A 
ATOM     16  C   UNL     1      -8.302  -3.756  21.289  0.00  0.00    +0.000 A 
BRANCH  14  17
ATOM     17  O   UNL     1      -7.529  -4.517  23.376  0.00  0.00    +0.000 OA
ATOM     18  H   UNL     1      -6.567  -4.552  23.200  0.00  0.00    +0.000 HD
ENDBRANCH  14  17
BRANCH  16  19
ATOM     19  O   UNL     1      -7.934  -4.954  20.747  0.00  0.00    +0.000 OA
ATOM     20  H   UNL     1      -7.864  -4.776  19.787  0.00  0.00    +0.000 HD
ENDBRANCH  16  19
ENDBRANCH   2  11
BRANCH   3  21
ATOM     21  O   UNL     1      -8.672   1.859  24.566  0.00  0.00    +0.000 OA
ATOM     22  H   UNL     1      -7.903   2.465  24.566  0.00  0.00    +0.000 HD
ENDBRANCH   3  21
BRANCH   4  23
ATOM     23  O   UNL     1      -6.261   2.057  23.405  0.00  0.00    +0.000 OA
ATOM     24  H   UNL     1      -5.837   2.562  22.676  0.00  0.00    +0.000 HD
ENDBRANCH   4  23
BRANCH   7  25
ATOM     25  O   UNL     1      -5.825   3.147  21.038  0.00  0.00    +0.000 OA
ATOM     26  H   UNL     1      -5.617   3.995  20.588  0.00  0.00    +0.000 HD
ENDBRANCH   7  25
BRANCH  10  27
ATOM     27  O   UNL     1      -9.753   4.022  18.514  0.00  0.00    +0.000 OA
ATOM     28  H   UNL     1     -10.550   4.443  18.878  0.00  0.00    +0.000 HD
ENDBRANCH  10  27
BRANCH   2  29
ATOM     29  O   UNL     1     -10.424  -0.143  24.086  0.00  0.00    +0.000 OA
BRANCH  29  31
ATOM     30  O   UNL     1     -14.064  -0.829  24.172  0.00  0.00    +0.000 OA
ATOM     31  C   UNL     1     -11.809   0.110  23.780  0.00  0.00    +0.000 C 
ATOM     32  C   UNL     1     -12.671  -0.964  24.489  0.00  0.00    +0.000 C 
ATOM     33  C   UNL     1     -12.264   1.479  24.297  0.00  0.00    +0.000 C 
ATOM     34  C   UNL     1     -13.758   1.573  24.437  0.00  0.00    +0.000 A 
ATOM     35  C   UNL     1     -14.561   0.431  24.365  0.00  0.00    +0.000 A 
ATOM     36  C   UNL     1     -14.377   2.811  24.650  0.00  0.00    +0.000 A 
ATOM     37  C   UNL     1     -15.952   0.527  24.457  0.00  0.00    +0.000 A 
ATOM     38  C   UNL     1     -15.761   2.917  24.760  0.00  0.00    +0.000 A 
ATOM     39  C   UNL     1     -16.538   1.771  24.656  0.00  0.00    +0.000 A 
BRANCH  32  40
ATOM     40  C   UNL     1     -12.244  -2.368  24.082  0.00  0.00    +0.000 A 
ATOM     41  C   UNL     1     -12.344  -2.796  22.749  0.00  0.00    +0.000 A 
ATOM     42  C   UNL     1     -11.662  -3.227  25.032  0.00  0.00    +0.000 A 
ATOM     43  C   UNL     1     -11.828  -4.035  22.375  0.00  0.00    +0.000 A 
ATOM     44  C   UNL     1     -11.164  -4.477  24.655  0.00  0.00    +0.000 A 
ATOM     45  C   UNL     1     -11.235  -4.869  23.322  0.00  0.00    +0.000 A 
BRANCH  43  46
ATOM     46  O   UNL     1     -11.836  -4.416  21.064  0.00  0.00    +0.000 OA
ATOM     47  H   UNL     1     -12.213  -5.309  20.995  0.00  0.00    +0.000 HD
ENDBRANCH  43  46
BRANCH  45  48
ATOM     48  O   UNL     1     -10.698  -6.058  22.919  0.00  0.00    +0.000 OA
ATOM     49  H   UNL     1     -11.246  -6.785  23.260  0.00  0.00    +0.000 HD
ENDBRANCH  45  48
ENDBRANCH  32  40
BRANCH  36  50
ATOM     50  O   UNL     1     -13.592   3.926  24.747  0.00  0.00    +0.000 OA
ATOM     51  H   UNL     1     -13.481   4.310  23.860  0.00  0.00    +0.000 HD
ENDBRANCH  36  50
BRANCH  39  52
ATOM     52  O   UNL     1     -17.892   1.910  24.760  0.00  0.00    +0.000 OA
ATOM     53  H   UNL     1     -18.200   2.500  24.051  0.00  0.00    +0.000 HD
ENDBRANCH  39  52
ENDBRANCH  29  31
ENDBRANCH   2  29
TORSDOF 14
ENDMDL
