MODEL 1
REMARK VINA RESULT:      -7.6      0.000      0.000
REMARK  Name = Progesterone.pdbqt.pdb
REMARK  1 active torsions:
REMARK  status: ('A' for Active; 'I' for Inactive)
REMARK    1  A    between atoms: C_7  and  C_21
REMARK                            x       y       z     vdW  Elec       q    Type
REMARK                         _______ _______ _______ _____ _____    ______ ____
ROOT
ATOM      1  O   UNL     1      -1.898   2.233  20.602  0.00  0.00    +0.000 OA
ATOM      2  C   UNL     1      -8.790  -0.976  21.505  0.00  0.00    +0.000 C 
ATOM      3  C   UNL     1      -8.966  -2.544  21.889  0.00  0.00    +0.000 C 
ATOM      4  C   UNL     1      -7.590  -0.201  21.873  0.00  0.00    +0.000 C 
ATOM      5  C   UNL     1      -6.293  -0.766  22.384  0.00  0.00    +0.000 C 
ATOM      6  C   UNL     1      -5.107   0.097  22.869  0.00  0.00    +0.000 C 
ATOM      7  C   UNL     1      -9.546  -3.132  20.637  0.00  0.00    +0.000 C 
ATOM      8  C   UNL     1      -7.609  -2.985  22.213  0.00  0.00    +0.000 C 
ATOM      9  C   UNL     1      -6.358  -2.183  22.474  0.00  0.00    +0.000 C 
ATOM     10  C   UNL     1      -9.412  -0.779  20.232  0.00  0.00    +0.000 C 
ATOM     11  C   UNL     1      -7.516   1.191  21.633  0.00  0.00    +0.000 C 
ATOM     12  C   UNL     1      -9.850  -2.114  19.689  0.00  0.00    +0.000 C 
ATOM     13  C   UNL     1      -5.096   1.655  22.306  0.00  0.00    +0.000 C 
ATOM     14  C   UNL     1      -9.966  -2.601  23.067  0.00  0.00    +0.000 C 
ATOM     15  C   UNL     1      -6.348   2.112  21.825  0.00  0.00    +0.000 C 
ATOM     16  C   UNL     1      -3.814  -0.453  22.342  0.00  0.00    +0.000 C 
ATOM     17  C   UNL     1      -5.113   0.175  24.418  0.00  0.00    +0.000 C 
ATOM     18  C   UNL     1      -2.633   0.190  21.580  0.00  0.00    +0.000 C 
ATOM     19  C   UNL     1      -4.010   2.080  21.696  0.00  0.00    +0.000 C 
ATOM     20  C   UNL     1      -2.722   1.593  21.226  0.00  0.00    +0.000 C 
ENDROOT
BRANCH   7  21
ATOM     21  C   UNL     1      -9.801  -4.539  20.450  0.00  0.00    +0.000 C 
ATOM     22  O   UNL     1     -10.797  -5.131  20.829  0.00  0.00    +0.000 OA
ATOM     23  C   UNL     1      -8.909  -5.452  19.673  0.00  0.00    +0.000 C 
ENDBRANCH   7  21
TORSDOF 1
ENDMDL
MODEL 2
REMARK VINA RESULT:      -5.9     19.417     21.910
REMARK  Name = Progesterone.pdbqt.pdb
REMARK  1 active torsions:
REMARK  status: ('A' for Active; 'I' for Inactive)
REMARK    1  A    between atoms: C_7  and  C_21
REMARK                            x       y       z     vdW  Elec       q    Type
REMARK                         _______ _______ _______ _____ _____    ______ ____
ROOT
ATOM      1  O   UNL     1     -11.280 -22.073  16.564  0.00  0.00    +0.000 OA
ATOM      2  C   UNL     1     -11.838 -17.120  10.752  0.00  0.00    +0.000 C 
ATOM      3  C   UNL     1     -11.494 -17.545   9.223  0.00  0.00    +0.000 C 
ATOM      4  C   UNL     1     -12.298 -18.095  11.761  0.00  0.00    +0.000 C 
ATOM      5  C   UNL     1     -12.259 -19.592  11.627  0.00  0.00    +0.000 C 
ATOM      6  C   UNL     1     -12.863 -20.567  12.662  0.00  0.00    +0.000 C 
ATOM      7  C   UNL     1     -10.237 -16.780   8.937  0.00  0.00    +0.000 C 
ATOM      8  C   UNL     1     -11.338 -18.998   9.285  0.00  0.00    +0.000 C 
ATOM      9  C   UNL     1     -11.707 -19.975  10.374  0.00  0.00    +0.000 C 
ATOM     10  C   UNL     1     -10.923 -16.082  11.118  0.00  0.00    +0.000 C 
ATOM     11  C   UNL     1     -12.705 -17.677  13.049  0.00  0.00    +0.000 C 
ATOM     12  C   UNL     1      -9.923 -15.896  10.008  0.00  0.00    +0.000 C 
ATOM     13  C   UNL     1     -13.074 -19.936  14.180  0.00  0.00    +0.000 C 
ATOM     14  C   UNL     1     -12.675 -17.056   8.352  0.00  0.00    +0.000 C 
ATOM     15  C   UNL     1     -13.082 -18.520  14.229  0.00  0.00    +0.000 C 
ATOM     16  C   UNL     1     -11.925 -21.712  12.908  0.00  0.00    +0.000 C 
ATOM     17  C   UNL     1     -14.253 -21.054  12.176  0.00  0.00    +0.000 C 
ATOM     18  C   UNL     1     -11.340 -22.331  14.197  0.00  0.00    +0.000 C 
ATOM     19  C   UNL     1     -12.541 -20.586  15.193  0.00  0.00    +0.000 C 
ATOM     20  C   UNL     1     -11.682 -21.727  15.470  0.00  0.00    +0.000 C 
ENDROOT
BRANCH   7  21
ATOM     21  C   UNL     1      -9.481 -16.898   7.714  0.00  0.00    +0.000 C 
ATOM     22  O   UNL     1      -8.707 -17.803   7.449  0.00  0.00    +0.000 OA
ATOM     23  C   UNL     1      -9.620 -15.967   6.555  0.00  0.00    +0.000 C 
ENDBRANCH   7  21
TORSDOF 1
ENDMDL
MODEL 3
REMARK VINA RESULT:      -5.9     14.974     17.570
REMARK  Name = Progesterone.pdbqt.pdb
REMARK  1 active torsions:
REMARK  status: ('A' for Active; 'I' for Inactive)
REMARK    1  A    between atoms: C_7  and  C_21
REMARK                            x       y       z     vdW  Elec       q    Type
REMARK                         _______ _______ _______ _____ _____    ______ ____
ROOT
ATOM      1  O   UNL     1       1.373 -13.916  18.277  0.00  0.00    +0.000 OA
ATOM      2  C   UNL     1       4.943  -9.737  12.946  0.00  0.00    +0.000 C 
ATOM      3  C   UNL     1       5.953  -8.527  13.335  0.00  0.00    +0.000 C 
ATOM      4  C   UNL     1       4.701 -10.886  13.841  0.00  0.00    +0.000 C 
ATOM      5  C   UNL     1       5.106 -10.983  15.286  0.00  0.00    +0.000 C 
ATOM      6  C   UNL     1       4.936 -12.254  16.147  0.00  0.00    +0.000 C 
ATOM      7  C   UNL     1       5.199  -7.307  12.895  0.00  0.00    +0.000 C 
ATOM      8  C   UNL     1       6.128  -8.662  14.782  0.00  0.00    +0.000 C 
ATOM      9  C   UNL     1       5.770  -9.798  15.707  0.00  0.00    +0.000 C 
ATOM     10  C   UNL     1       3.863  -9.165  12.202  0.00  0.00    +0.000 C 
ATOM     11  C   UNL     1       3.912 -11.983  13.426  0.00  0.00    +0.000 C 
ATOM     12  C   UNL     1       4.011  -7.667  12.198  0.00  0.00    +0.000 C 
ATOM     13  C   UNL     1       3.805 -13.331  15.593  0.00  0.00    +0.000 C 
ATOM     14  C   UNL     1       7.238  -8.739  12.503  0.00  0.00    +0.000 C 
ATOM     15  C   UNL     1       3.462 -13.167  14.228  0.00  0.00    +0.000 C 
ATOM     16  C   UNL     1       4.412 -11.896  17.507  0.00  0.00    +0.000 C 
ATOM     17  C   UNL     1       6.285 -13.016  16.231  0.00  0.00    +0.000 C 
ATOM     18  C   UNL     1       3.222 -12.418  18.344  0.00  0.00    +0.000 C 
ATOM     19  C   UNL     1       2.859 -13.711  16.426  0.00  0.00    +0.000 C 
ATOM     20  C   UNL     1       2.361 -13.430  17.764  0.00  0.00    +0.000 C 
ENDROOT
BRANCH   7  21
ATOM     21  C   UNL     1       5.653  -5.956  13.114  0.00  0.00    +0.000 C 
ATOM     22  O   UNL     1       6.447  -5.357  12.408  0.00  0.00    +0.000 OA
ATOM     23  C   UNL     1       5.133  -5.066  14.195  0.00  0.00    +0.000 C 
ENDBRANCH   7  21
TORSDOF 1
ENDMDL
MODEL 4
REMARK VINA RESULT:      -5.8     15.802     17.659
REMARK  Name = Progesterone.pdbqt.pdb
REMARK  1 active torsions:
REMARK  status: ('A' for Active; 'I' for Inactive)
REMARK    1  A    between atoms: C_7  and  C_21
REMARK                            x       y       z     vdW  Elec       q    Type
REMARK                         _______ _______ _______ _____ _____    ______ ____
ROOT
ATOM      1  O   UNL     1       8.547  -5.794  12.341  0.00  0.00    +0.000 OA
ATOM      2  C   UNL     1       3.865 -11.791  13.194  0.00  0.00    +0.000 C 
ATOM      3  C   UNL     1       4.193 -12.999  14.228  0.00  0.00    +0.000 C 
ATOM      4  C   UNL     1       4.371 -10.419  13.392  0.00  0.00    +0.000 C 
ATOM      5  C   UNL     1       5.436 -10.000  14.368  0.00  0.00    +0.000 C 
ATOM      6  C   UNL     1       5.847  -8.533  14.621  0.00  0.00    +0.000 C 
ATOM      7  C   UNL     1       4.488 -14.151  13.315  0.00  0.00    +0.000 C 
ATOM      8  C   UNL     1       5.335 -12.506  14.998  0.00  0.00    +0.000 C 
ATOM      9  C   UNL     1       5.917 -11.118  15.103  0.00  0.00    +0.000 C 
ATOM     10  C   UNL     1       3.818 -12.359  11.881  0.00  0.00    +0.000 C 
ATOM     11  C   UNL     1       3.971  -9.362  12.542  0.00  0.00    +0.000 C 
ATOM     12  C   UNL     1       4.230 -13.805  11.959  0.00  0.00    +0.000 C 
ATOM     13  C   UNL     1       5.464  -7.477  13.402  0.00  0.00    +0.000 C 
ATOM     14  C   UNL     1       2.907 -13.235  15.054  0.00  0.00    +0.000 C 
ATOM     15  C   UNL     1       4.467  -7.947  12.513  0.00  0.00    +0.000 C 
ATOM     16  C   UNL     1       7.341  -8.416  14.702  0.00  0.00    +0.000 C 
ATOM     17  C   UNL     1       5.156  -8.009  15.908  0.00  0.00    +0.000 C 
ATOM     18  C   UNL     1       8.362  -7.499  13.992  0.00  0.00    +0.000 C 
ATOM     19  C   UNL     1       6.432  -6.735  12.907  0.00  0.00    +0.000 C 
ATOM     20  C   UNL     1       7.873  -6.556  13.005  0.00  0.00    +0.000 C 
ENDROOT
BRANCH   7  21
ATOM     21  C   UNL     1       4.928 -15.448  13.769  0.00  0.00    +0.000 C 
ATOM     22  O   UNL     1       6.074 -15.735  14.073  0.00  0.00    +0.000 OA
ATOM     23  C   UNL     1       4.011 -16.598  14.022  0.00  0.00    +0.000 C 
ENDBRANCH   7  21
TORSDOF 1
ENDMDL
MODEL 5
REMARK VINA RESULT:      -5.7     19.304     21.393
REMARK  Name = Progesterone.pdbqt.pdb
REMARK  1 active torsions:
REMARK  status: ('A' for Active; 'I' for Inactive)
REMARK    1  A    between atoms: C_7  and  C_21
REMARK                            x       y       z     vdW  Elec       q    Type
REMARK                         _______ _______ _______ _____ _____    ______ ____
ROOT
ATOM      1  O   UNL     1     -26.148   2.099   8.608  0.00  0.00    +0.000 OA
ATOM      2  C   UNL     1     -21.360  -3.860   9.029  0.00  0.00    +0.000 C 
ATOM      3  C   UNL     1     -21.495  -5.144   8.043  0.00  0.00    +0.000 C 
ATOM      4  C   UNL     1     -21.831  -2.515   8.645  0.00  0.00    +0.000 C 
ATOM      5  C   UNL     1     -22.709  -2.185   7.470  0.00  0.00    +0.000 C 
ATOM      6  C   UNL     1     -23.075  -0.747   7.043  0.00  0.00    +0.000 C 
ATOM      7  C   UNL     1     -21.941  -6.234   8.971  0.00  0.00    +0.000 C 
ATOM      8  C   UNL     1     -22.486  -4.727   7.050  0.00  0.00    +0.000 C 
ATOM      9  C   UNL     1     -23.047  -3.361   6.745  0.00  0.00    +0.000 C 
ATOM     10  C   UNL     1     -21.543  -4.334  10.367  0.00  0.00    +0.000 C 
ATOM     11  C   UNL     1     -21.592  -1.393   9.473  0.00  0.00    +0.000 C 
ATOM     12  C   UNL     1     -21.928  -5.788  10.323  0.00  0.00    +0.000 C 
ATOM     13  C   UNL     1     -22.919   0.399   8.229  0.00  0.00    +0.000 C 
ATOM     14  C   UNL     1     -20.082  -5.415   7.475  0.00  0.00    +0.000 C 
ATOM     15  C   UNL     1     -22.091   0.011   9.312  0.00  0.00    +0.000 C 
ATOM     16  C   UNL     1     -24.532  -0.663   6.692  0.00  0.00    +0.000 C 
ATOM     17  C   UNL     1     -22.171  -0.303   5.862  0.00  0.00    +0.000 C 
ATOM     18  C   UNL     1     -25.667   0.284   7.144  0.00  0.00    +0.000 C 
ATOM     19  C   UNL     1     -23.963   1.157   8.492  0.00  0.00    +0.000 C 
ATOM     20  C   UNL     1     -25.364   1.303   8.130  0.00  0.00    +0.000 C 
ENDROOT
BRANCH   7  21
ATOM     21  C   UNL     1     -22.288  -7.567   8.542  0.00  0.00    +0.000 C 
ATOM     22  O   UNL     1     -21.912  -8.598   9.075  0.00  0.00    +0.000 OA
ATOM     23  C   UNL     1     -23.242  -7.863   7.432  0.00  0.00    +0.000 C 
ENDBRANCH   7  21
TORSDOF 1
ENDMDL
MODEL 6
REMARK VINA RESULT:      -5.7     16.636     19.410
REMARK  Name = Progesterone.pdbqt.pdb
REMARK  1 active torsions:
REMARK  status: ('A' for Active; 'I' for Inactive)
REMARK    1  A    between atoms: C_7  and  C_21
REMARK                            x       y       z     vdW  Elec       q    Type
REMARK                         _______ _______ _______ _____ _____    ______ ____
ROOT
ATOM      1  O   UNL     1       1.612 -16.634  17.747  0.00  0.00    +0.000 OA
ATOM      2  C   UNL     1       4.418 -12.244  12.138  0.00  0.00    +0.000 C 
ATOM      3  C   UNL     1       5.708 -11.283  12.360  0.00  0.00    +0.000 C 
ATOM      4  C   UNL     1       4.200 -13.472  12.927  0.00  0.00    +0.000 C 
ATOM      5  C   UNL     1       4.938 -13.863  14.177  0.00  0.00    +0.000 C 
ATOM      6  C   UNL     1       4.755 -15.216  14.900  0.00  0.00    +0.000 C 
ATOM      7  C   UNL     1       5.116  -9.906  12.294  0.00  0.00    +0.000 C 
ATOM      8  C   UNL     1       6.222 -11.677  13.672  0.00  0.00    +0.000 C 
ATOM      9  C   UNL     1       5.904 -12.879  14.525  0.00  0.00    +0.000 C 
ATOM     10  C   UNL     1       3.314 -11.398  11.800  0.00  0.00    +0.000 C 
ATOM     11  C   UNL     1       3.134 -14.352  12.630  0.00  0.00    +0.000 C 
ATOM     12  C   UNL     1       3.742  -9.961  11.926  0.00  0.00    +0.000 C 
ATOM     13  C   UNL     1       3.333 -16.001  14.569  0.00  0.00    +0.000 C 
ATOM     14  C   UNL     1       6.669 -11.552  11.179  0.00  0.00    +0.000 C 
ATOM     15  C   UNL     1       2.687 -15.567  13.386  0.00  0.00    +0.000 C 
ATOM     16  C   UNL     1       4.679 -15.008  16.384  0.00  0.00    +0.000 C 
ATOM     17  C   UNL     1       5.906 -16.180  14.510  0.00  0.00    +0.000 C 
ATOM     18  C   UNL     1       3.669 -15.469  17.458  0.00  0.00    +0.000 C 
ATOM     19  C   UNL     1       2.580 -16.361  15.587  0.00  0.00    +0.000 C 
ATOM     20  C   UNL     1       2.509 -16.229  17.034  0.00  0.00    +0.000 C 
ENDROOT
BRANCH   7  21
ATOM     21  C   UNL     1       5.863  -8.695  12.528  0.00  0.00    +0.000 C 
ATOM     22  O   UNL     1       7.043  -8.533  12.264  0.00  0.00    +0.000 OA
ATOM     23  C   UNL     1       5.260  -7.430  13.046  0.00  0.00    +0.000 C 
ENDBRANCH   7  21
TORSDOF 1
ENDMDL
MODEL 7
REMARK VINA RESULT:      -5.4     15.143     18.064
REMARK  Name = Progesterone.pdbqt.pdb
REMARK  1 active torsions:
REMARK  status: ('A' for Active; 'I' for Inactive)
REMARK    1  A    between atoms: C_7  and  C_21
REMARK                            x       y       z     vdW  Elec       q    Type
REMARK                         _______ _______ _______ _____ _____    ______ ____
ROOT
ATOM      1  O   UNL     1       2.530 -13.470  13.799  0.00  0.00    +0.000 OA
ATOM      2  C   UNL     1       5.773  -6.587  12.946  0.00  0.00    +0.000 C 
ATOM      3  C   UNL     1       7.174  -6.200  13.670  0.00  0.00    +0.000 C 
ATOM      4  C   UNL     1       5.417  -7.978  12.602  0.00  0.00    +0.000 C 
ATOM      5  C   UNL     1       6.119  -9.216  13.084  0.00  0.00    +0.000 C 
ATOM      6  C   UNL     1       5.782 -10.644  12.600  0.00  0.00    +0.000 C 
ATOM      7  C   UNL     1       6.754  -5.185  14.691  0.00  0.00    +0.000 C 
ATOM      8  C   UNL     1       7.655  -7.470  14.214  0.00  0.00    +0.000 C 
ATOM      9  C   UNL     1       7.203  -8.883  13.942  0.00  0.00    +0.000 C 
ATOM     10  C   UNL     1       4.776  -5.691  13.447  0.00  0.00    +0.000 C 
ATOM     11  C   UNL     1       4.246  -8.272  11.865  0.00  0.00    +0.000 C 
ATOM     12  C   UNL     1       5.379  -4.850  14.541  0.00  0.00    +0.000 C 
ATOM     13  C   UNL     1       4.270 -10.824  11.945  0.00  0.00    +0.000 C 
ATOM     14  C   UNL     1       8.077  -5.578  12.579  0.00  0.00    +0.000 C 
ATOM     15  C   UNL     1       3.665  -9.612  11.530  0.00  0.00    +0.000 C 
ATOM     16  C   UNL     1       5.754 -11.595  13.761  0.00  0.00    +0.000 C 
ATOM     17  C   UNL     1       6.801 -11.086  11.517  0.00  0.00    +0.000 C 
ATOM     18  C   UNL     1       4.710 -12.624  14.249  0.00  0.00    +0.000 C 
ATOM     19  C   UNL     1       3.493 -11.762  12.444  0.00  0.00    +0.000 C 
ATOM     20  C   UNL     1       3.460 -12.737  13.524  0.00  0.00    +0.000 C 
ENDROOT
BRANCH   7  21
ATOM     21  C   UNL     1       7.648  -4.600  15.660  0.00  0.00    +0.000 C 
ATOM     22  O   UNL     1       8.836  -4.388  15.485  0.00  0.00    +0.000 OA
ATOM     23  C   UNL     1       7.211  -4.082  16.991  0.00  0.00    +0.000 C 
ENDBRANCH   7  21
TORSDOF 1
ENDMDL
MODEL 8
REMARK VINA RESULT:      -5.2     16.550     18.600
REMARK  Name = Progesterone.pdbqt.pdb
REMARK  1 active torsions:
REMARK  status: ('A' for Active; 'I' for Inactive)
REMARK    1  A    between atoms: C_7  and  C_21
REMARK                            x       y       z     vdW  Elec       q    Type
REMARK                         _______ _______ _______ _____ _____    ______ ____
ROOT
ATOM      1  O   UNL     1       7.246  -7.112  13.709  0.00  0.00    +0.000 OA
ATOM      2  C   UNL     1       4.940 -14.383  13.045  0.00  0.00    +0.000 C 
ATOM      3  C   UNL     1       3.559 -14.913  13.716  0.00  0.00    +0.000 C 
ATOM      4  C   UNL     1       5.139 -12.975  12.649  0.00  0.00    +0.000 C 
ATOM      5  C   UNL     1       4.262 -11.815  13.032  0.00  0.00    +0.000 C 
ATOM      6  C   UNL     1       4.445 -10.379  12.493  0.00  0.00    +0.000 C 
ATOM      7  C   UNL     1       4.044 -15.820  14.808  0.00  0.00    +0.000 C 
ATOM      8  C   UNL     1       2.894 -13.691  14.170  0.00  0.00    +0.000 C 
ATOM      9  C   UNL     1       3.180 -12.245  13.849  0.00  0.00    +0.000 C 
ATOM     10  C   UNL     1       6.011 -15.121  13.642  0.00  0.00    +0.000 C 
ATOM     11  C   UNL     1       6.303 -12.567  11.958  0.00  0.00    +0.000 C 
ATOM     12  C   UNL     1       5.457 -15.983  14.745  0.00  0.00    +0.000 C 
ATOM     13  C   UNL     1       5.957 -10.038  11.908  0.00  0.00    +0.000 C 
ATOM     14  C   UNL     1       2.804 -15.692  12.615  0.00  0.00    +0.000 C 
ATOM     15  C   UNL     1       6.732 -11.180  11.586  0.00  0.00    +0.000 C 
ATOM     16  C   UNL     1       4.288  -9.382  13.604  0.00  0.00    +0.000 C 
ATOM     17  C   UNL     1       3.442 -10.119  11.339  0.00  0.00    +0.000 C 
ATOM     18  C   UNL     1       5.167  -8.208  14.092  0.00  0.00    +0.000 C 
ATOM     19  C   UNL     1       6.582  -8.987  12.396  0.00  0.00    +0.000 C 
ATOM     20  C   UNL     1       6.432  -7.969  13.426  0.00  0.00    +0.000 C 
ENDROOT
BRANCH   7  21
ATOM     21  C   UNL     1       3.177 -16.470  15.759  0.00  0.00    +0.000 C 
ATOM     22  O   UNL     1       2.205 -17.150  15.476  0.00  0.00    +0.000 OA
ATOM     23  C   UNL     1       3.413 -16.477  17.234  0.00  0.00    +0.000 C 
ENDBRANCH   7  21
TORSDOF 1
ENDMDL
MODEL 9
REMARK VINA RESULT:      -5.0     18.217     21.067
REMARK  Name = Progesterone.pdbqt.pdb
REMARK  1 active torsions:
REMARK  status: ('A' for Active; 'I' for Inactive)
REMARK    1  A    between atoms: C_7  and  C_21
REMARK                            x       y       z     vdW  Elec       q    Type
REMARK                         _______ _______ _______ _____ _____    ______ ____
ROOT
ATOM      1  O   UNL     1     -25.973  -6.450  15.039  0.00  0.00    +0.000 OA
ATOM      2  C   UNL     1     -22.730  -5.067   8.243  0.00  0.00    +0.000 C 
ATOM      3  C   UNL     1     -21.942  -3.681   7.931  0.00  0.00    +0.000 C 
ATOM      4  C   UNL     1     -22.854  -5.618   9.607  0.00  0.00    +0.000 C 
ATOM      5  C   UNL     1     -22.536  -4.894  10.886  0.00  0.00    +0.000 C 
ATOM      6  C   UNL     1     -22.568  -5.554  12.282  0.00  0.00    +0.000 C 
ATOM      7  C   UNL     1     -22.841  -3.001   6.942  0.00  0.00    +0.000 C 
ATOM      8  C   UNL     1     -21.844  -3.027   9.236  0.00  0.00    +0.000 C 
ATOM      9  C   UNL     1     -22.087  -3.571  10.622  0.00  0.00    +0.000 C 
ATOM     10  C   UNL     1     -23.832  -5.141   7.333  0.00  0.00    +0.000 C 
ATOM     11  C   UNL     1     -23.439  -6.885   9.834  0.00  0.00    +0.000 C 
ATOM     12  C   UNL     1     -23.912  -3.855   6.555  0.00  0.00    +0.000 C 
ATOM     13  C   UNL     1     -23.484  -6.931  12.386  0.00  0.00    +0.000 C 
ATOM     14  C   UNL     1     -20.587  -4.076   7.300  0.00  0.00    +0.000 C 
ATOM     15  C   UNL     1     -23.757  -7.547  11.140  0.00  0.00    +0.000 C 
ATOM     16  C   UNL     1     -23.229  -4.642  13.274  0.00  0.00    +0.000 C 
ATOM     17  C   UNL     1     -21.128  -5.933  12.718  0.00  0.00    +0.000 C 
ATOM     18  C   UNL     1     -24.380  -4.849  14.285  0.00  0.00    +0.000 C 
ATOM     19  C   UNL     1     -24.415  -6.980  13.316  0.00  0.00    +0.000 C 
ATOM     20  C   UNL     1     -25.037  -6.140  14.328  0.00  0.00    +0.000 C 
ENDROOT
BRANCH   7  21
ATOM     21  C   UNL     1     -22.611  -1.674   6.423  0.00  0.00    +0.000 C 
ATOM     22  O   UNL     1     -22.501  -1.389   5.243  0.00  0.00    +0.000 OA
ATOM     23  C   UNL     1     -22.572  -0.444   7.269  0.00  0.00    +0.000 C 
ENDBRANCH   7  21
TORSDOF 1
ENDMDL
