MODEL 1
REMARK VINA RESULT:      -6.7      0.000      0.000
REMARK  Name = Quercetin.pdbqt.pdb
REMARK  6 active torsions:
REMARK  status: ('A' for Active; 'I' for Inactive)
REMARK    1  A    between atoms: C_5  and  C_12
REMARK    2  A    between atoms: C_6  and  O_22
REMARK    3  A    between atoms: C_8  and  O_24
REMARK    4  A    between atoms: C_10  and  O_26
REMARK    5  A    between atoms: C_15  and  O_18
REMARK    6  A    between atoms: C_17  and  O_20
REMARK                            x       y       z     vdW  Elec       q    Type
REMARK                         _______ _______ _______ _____ _____    ______ ____
ROOT
ATOM      1  O   UNL     1     -11.260  -4.060  21.410  0.00  0.00    +0.000 OA
ATOM      2  O   UNL     1     -10.492  -0.271  22.665  0.00  0.00    +0.000 OA
ATOM      3  C   UNL     1     -11.659  -2.263  22.988  0.00  0.00    +0.000 A 
ATOM      4  C   UNL     1     -11.887  -3.550  22.513  0.00  0.00    +0.000 A 
ATOM      5  C   UNL     1     -10.339  -3.271  20.736  0.00  0.00    +0.000 A 
ATOM      6  C   UNL     1     -10.028  -2.001  21.076  0.00  0.00    +0.000 A 
ATOM      7  C   UNL     1     -10.702  -1.415  22.270  0.00  0.00    +0.000 A 
ATOM      8  C   UNL     1     -12.338  -1.805  24.124  0.00  0.00    +0.000 A 
ATOM      9  C   UNL     1     -12.791  -4.386  23.167  0.00  0.00    +0.000 A 
ATOM     10  C   UNL     1     -13.460  -3.922  24.295  0.00  0.00    +0.000 A 
ATOM     11  C   UNL     1     -13.241  -2.637  24.780  0.00  0.00    +0.000 A 
ENDROOT
BRANCH   5  12
ATOM     12  C   UNL     1      -9.741  -3.974  19.593  0.00  0.00    +0.000 A 
ATOM     13  C   UNL     1      -8.739  -4.931  19.781  0.00  0.00    +0.000 A 
ATOM     14  C   UNL     1     -10.223  -3.730  18.300  0.00  0.00    +0.000 A 
ATOM     15  C   UNL     1      -8.218  -5.608  18.686  0.00  0.00    +0.000 A 
ATOM     16  C   UNL     1      -9.709  -4.424  17.205  0.00  0.00    +0.000 A 
ATOM     17  C   UNL     1      -8.718  -5.373  17.410  0.00  0.00    +0.000 A 
BRANCH  15  18
ATOM     18  O   UNL     1      -7.185  -6.477  18.882  0.00  0.00    +0.000 OA
ATOM     19  H   UNL     1      -7.451  -7.331  18.492  0.00  0.00    +0.000 HD
ENDBRANCH  15  18
BRANCH  17  20
ATOM     20  O   UNL     1      -8.257  -6.091  16.345  0.00  0.00    +0.000 OA
ATOM     21  H   UNL     1      -7.549  -6.668  16.684  0.00  0.00    +0.000 HD
ENDBRANCH  17  20
ENDBRANCH   5  12
BRANCH   6  22
ATOM     22  O   UNL     1      -9.144  -1.185  20.395  0.00  0.00    +0.000 OA
ATOM     23  H   UNL     1      -8.561  -0.728  21.020  0.00  0.00    +0.000 HD
ENDBRANCH   6  22
BRANCH   8  24
ATOM     24  O   UNL     1     -12.164  -0.551  24.645  0.00  0.00    +0.000 OA
ATOM     25  H   UNL     1     -12.997  -0.289  25.103  0.00  0.00    +0.000 HD
ENDBRANCH   8  24
BRANCH  10  26
ATOM     26  O   UNL     1     -14.339  -4.759  24.917  0.00  0.00    +0.000 OA
ATOM     27  H   UNL     1     -14.319  -4.566  25.871  0.00  0.00    +0.000 HD
ENDBRANCH  10  26
TORSDOF 6
ENDMDL
MODEL 2
REMARK VINA RESULT:      -6.1     15.736     17.723
REMARK  Name = Quercetin.pdbqt.pdb
REMARK  6 active torsions:
REMARK  status: ('A' for Active; 'I' for Inactive)
REMARK    1  A    between atoms: C_5  and  C_12
REMARK    2  A    between atoms: C_6  and  O_22
REMARK    3  A    between atoms: C_8  and  O_24
REMARK    4  A    between atoms: C_10  and  O_26
REMARK    5  A    between atoms: C_15  and  O_18
REMARK    6  A    between atoms: C_17  and  O_20
REMARK                            x       y       z     vdW  Elec       q    Type
REMARK                         _______ _______ _______ _____ _____    ______ ____
ROOT
ATOM      1  O   UNL     1     -21.935  -2.279   8.105  0.00  0.00    +0.000 OA
ATOM      2  O   UNL     1     -21.946  -4.646  11.410  0.00  0.00    +0.000 OA
ATOM      3  C   UNL     1     -21.783  -4.490   9.090  0.00  0.00    +0.000 A 
ATOM      4  C   UNL     1     -21.791  -3.635   7.993  0.00  0.00    +0.000 A 
ATOM      5  C   UNL     1     -22.064  -1.721   9.369  0.00  0.00    +0.000 A 
ATOM      6  C   UNL     1     -22.086  -2.428  10.519  0.00  0.00    +0.000 A 
ATOM      7  C   UNL     1     -21.939  -3.909  10.427  0.00  0.00    +0.000 A 
ATOM      8  C   UNL     1     -21.633  -5.869   8.900  0.00  0.00    +0.000 A 
ATOM      9  C   UNL     1     -21.648  -4.148   6.705  0.00  0.00    +0.000 A 
ATOM     10  C   UNL     1     -21.498  -5.520   6.528  0.00  0.00    +0.000 A 
ATOM     11  C   UNL     1     -21.490  -6.386   7.616  0.00  0.00    +0.000 A 
ENDROOT
BRANCH   5  12
ATOM     12  C   UNL     1     -22.185  -0.257   9.315  0.00  0.00    +0.000 A 
ATOM     13  C   UNL     1     -21.105   0.567   9.647  0.00  0.00    +0.000 A 
ATOM     14  C   UNL     1     -23.378   0.324   8.865  0.00  0.00    +0.000 A 
ATOM     15  C   UNL     1     -21.236   1.947   9.551  0.00  0.00    +0.000 A 
ATOM     16  C   UNL     1     -23.500   1.708   8.754  0.00  0.00    +0.000 A 
ATOM     17  C   UNL     1     -22.417   2.511   9.083  0.00  0.00    +0.000 A 
BRANCH  15  18
ATOM     18  O   UNL     1     -20.199   2.734   9.958  0.00  0.00    +0.000 OA
ATOM     19  H   UNL     1     -19.988   3.334   9.219  0.00  0.00    +0.000 HD
ENDBRANCH  15  18
BRANCH  17  20
ATOM     20  O   UNL     1     -22.520   3.862   8.920  0.00  0.00    +0.000 OA
ATOM     21  H   UNL     1     -22.397   4.259   9.803  0.00  0.00    +0.000 HD
ENDBRANCH  17  20
ENDBRANCH   5  12
BRANCH   6  22
ATOM     22  O   UNL     1     -22.253  -1.895  11.783  0.00  0.00    +0.000 OA
ATOM     23  H   UNL     1     -23.195  -1.874  12.016  0.00  0.00    +0.000 HD
ENDBRANCH   6  22
BRANCH   8  24
ATOM     24  O   UNL     1     -21.618  -6.769   9.932  0.00  0.00    +0.000 OA
ATOM     25  H   UNL     1     -21.089  -6.385  10.669  0.00  0.00    +0.000 HD
ENDBRANCH   8  24
BRANCH  10  26
ATOM     26  O   UNL     1     -21.360  -5.998   5.258  0.00  0.00    +0.000 OA
ATOM     27  H   UNL     1     -22.216  -6.372   4.980  0.00  0.00    +0.000 HD
ENDBRANCH  10  26
TORSDOF 6
ENDMDL
MODEL 3
REMARK VINA RESULT:      -6.0     18.086     20.171
REMARK  Name = Quercetin.pdbqt.pdb
REMARK  6 active torsions:
REMARK  status: ('A' for Active; 'I' for Inactive)
REMARK    1  A    between atoms: C_5  and  C_12
REMARK    2  A    between atoms: C_6  and  O_22
REMARK    3  A    between atoms: C_8  and  O_24
REMARK    4  A    between atoms: C_10  and  O_26
REMARK    5  A    between atoms: C_15  and  O_18
REMARK    6  A    between atoms: C_17  and  O_20
REMARK                            x       y       z     vdW  Elec       q    Type
REMARK                         _______ _______ _______ _____ _____    ______ ____
ROOT
ATOM      1  O   UNL     1       3.040 -12.954  12.480  0.00  0.00    +0.000 OA
ATOM      2  O   UNL     1       7.040 -12.323  12.835  0.00  0.00    +0.000 OA
ATOM      3  C   UNL     1       4.944 -11.468  12.275  0.00  0.00    +0.000 A 
ATOM      4  C   UNL     1       3.585 -11.739  12.168  0.00  0.00    +0.000 A 
ATOM      5  C   UNL     1       3.872 -13.964  12.940  0.00  0.00    +0.000 A 
ATOM      6  C   UNL     1       5.210 -13.848  13.081  0.00  0.00    +0.000 A 
ATOM      7  C   UNL     1       5.833 -12.537  12.742  0.00  0.00    +0.000 A 
ATOM      8  C   UNL     1       5.434 -10.200  11.938  0.00  0.00    +0.000 A 
ATOM      9  C   UNL     1       2.708 -10.750  11.726  0.00  0.00    +0.000 A 
ATOM     10  C   UNL     1       3.204  -9.494  11.394  0.00  0.00    +0.000 A 
ATOM     11  C   UNL     1       4.562  -9.209  11.496  0.00  0.00    +0.000 A 
ENDROOT
BRANCH   5  12
ATOM     12  C   UNL     1       3.127 -15.193  13.251  0.00  0.00    +0.000 A 
ATOM     13  C   UNL     1       2.639 -16.016  12.231  0.00  0.00    +0.000 A 
ATOM     14  C   UNL     1       2.956 -15.581  14.586  0.00  0.00    +0.000 A 
ATOM     15  C   UNL     1       1.972 -17.191  12.553  0.00  0.00    +0.000 A 
ATOM     16  C   UNL     1       2.301 -16.769  14.905  0.00  0.00    +0.000 A 
ATOM     17  C   UNL     1       1.827 -17.577  13.881  0.00  0.00    +0.000 A 
BRANCH  15  18
ATOM     18  O   UNL     1       1.433 -17.936  11.546  0.00  0.00    +0.000 OA
ATOM     19  H   UNL     1       1.472 -18.869  11.828  0.00  0.00    +0.000 HD
ENDBRANCH  15  18
BRANCH  17  20
ATOM     20  O   UNL     1       1.236 -18.766  14.194  0.00  0.00    +0.000 OA
ATOM     21  H   UNL     1       1.392 -19.361  13.437  0.00  0.00    +0.000 HD
ENDBRANCH  17  20
ENDBRANCH   5  12
BRANCH   6  22
ATOM     22  O   UNL     1       6.060 -14.853  13.500  0.00  0.00    +0.000 OA
ATOM     23  H   UNL     1       6.527 -15.236  12.741  0.00  0.00    +0.000 HD
ENDBRANCH   6  22
BRANCH   8  24
ATOM     24  O   UNL     1       6.759  -9.864  12.016  0.00  0.00    +0.000 OA
ATOM     25  H   UNL     1       7.293 -10.651  11.759  0.00  0.00    +0.000 HD
ENDBRANCH   8  24
BRANCH  10  26
ATOM     26  O   UNL     1       2.325  -8.543  10.964  0.00  0.00    +0.000 OA
ATOM     27  H   UNL     1       1.438  -8.781  11.288  0.00  0.00    +0.000 HD
ENDBRANCH  10  26
TORSDOF 6
ENDMDL
MODEL 4
REMARK VINA RESULT:      -5.7     15.118     16.503
REMARK  Name = Quercetin.pdbqt.pdb
REMARK  6 active torsions:
REMARK  status: ('A' for Active; 'I' for Inactive)
REMARK    1  A    between atoms: C_5  and  C_12
REMARK    2  A    between atoms: C_6  and  O_22
REMARK    3  A    between atoms: C_8  and  O_24
REMARK    4  A    between atoms: C_10  and  O_26
REMARK    5  A    between atoms: C_15  and  O_18
REMARK    6  A    between atoms: C_17  and  O_20
REMARK                            x       y       z     vdW  Elec       q    Type
REMARK                         _______ _______ _______ _____ _____    ______ ____
ROOT
ATOM      1  O   UNL     1     -12.098 -17.606  12.734  0.00  0.00    +0.000 OA
ATOM      2  O   UNL     1     -15.119 -14.938  13.266  0.00  0.00    +0.000 OA
ATOM      3  C   UNL     1     -13.832 -16.670  14.148  0.00  0.00    +0.000 A 
ATOM      4  C   UNL     1     -12.794 -17.564  13.912  0.00  0.00    +0.000 A 
ATOM      5  C   UNL     1     -12.426 -16.707  11.730  0.00  0.00    +0.000 A 
ATOM      6  C   UNL     1     -13.418 -15.794  11.815  0.00  0.00    +0.000 A 
ATOM      7  C   UNL     1     -14.198 -15.731  13.084  0.00  0.00    +0.000 A 
ATOM      8  C   UNL     1     -14.501 -16.685  15.378  0.00  0.00    +0.000 A 
ATOM      9  C   UNL     1     -12.418 -18.475  14.897  0.00  0.00    +0.000 A 
ATOM     10  C   UNL     1     -13.088 -18.481  16.116  0.00  0.00    +0.000 A 
ATOM     11  C   UNL     1     -14.129 -17.592  16.365  0.00  0.00    +0.000 A 
ENDROOT
BRANCH   5  12
ATOM     12  C   UNL     1     -11.572 -16.868  10.545  0.00  0.00    +0.000 A 
ATOM     13  C   UNL     1     -11.921 -17.754   9.521  0.00  0.00    +0.000 A 
ATOM     14  C   UNL     1     -10.422 -16.080  10.407  0.00  0.00    +0.000 A 
ATOM     15  C   UNL     1     -11.115 -17.860   8.395  0.00  0.00    +0.000 A 
ATOM     16  C   UNL     1      -9.624 -16.175   9.268  0.00  0.00    +0.000 A 
ATOM     17  C   UNL     1      -9.988 -17.056   8.259  0.00  0.00    +0.000 A 
BRANCH  15  18
ATOM     18  O   UNL     1     -11.429 -18.788   7.447  0.00  0.00    +0.000 OA
ATOM     19  H   UNL     1     -12.306 -18.549   7.092  0.00  0.00    +0.000 HD
ENDBRANCH  15  18
BRANCH  17  20
ATOM     20  O   UNL     1      -9.237 -17.107   7.121  0.00  0.00    +0.000 OA
ATOM     21  H   UNL     1      -8.303 -17.098   7.403  0.00  0.00    +0.000 HD
ENDBRANCH  17  20
ENDBRANCH   5  12
BRANCH   6  22
ATOM     22  O   UNL     1     -13.786 -14.917  10.812  0.00  0.00    +0.000 OA
ATOM     23  H   UNL     1     -14.093 -14.080  11.194  0.00  0.00    +0.000 HD
ENDBRANCH   6  22
BRANCH   8  24
ATOM     24  O   UNL     1     -15.533 -15.836  15.678  0.00  0.00    +0.000 OA
ATOM     25  H   UNL     1     -15.187 -14.913  15.666  0.00  0.00    +0.000 HD
ENDBRANCH   8  24
BRANCH  10  26
ATOM     26  O   UNL     1     -12.701 -19.382  17.064  0.00  0.00    +0.000 OA
ATOM     27  H   UNL     1     -13.495 -19.855  17.375  0.00  0.00    +0.000 HD
ENDBRANCH  10  26
TORSDOF 6
ENDMDL
MODEL 5
REMARK VINA RESULT:      -5.6     15.861     17.909
REMARK  Name = Quercetin.pdbqt.pdb
REMARK  6 active torsions:
REMARK  status: ('A' for Active; 'I' for Inactive)
REMARK    1  A    between atoms: C_5  and  C_12
REMARK    2  A    between atoms: C_6  and  O_22
REMARK    3  A    between atoms: C_8  and  O_24
REMARK    4  A    between atoms: C_10  and  O_26
REMARK    5  A    between atoms: C_15  and  O_18
REMARK    6  A    between atoms: C_17  and  O_20
REMARK                            x       y       z     vdW  Elec       q    Type
REMARK                         _______ _______ _______ _____ _____    ______ ____
ROOT
ATOM      1  O   UNL     1     -21.829  -2.033   9.537  0.00  0.00    +0.000 OA
ATOM      2  O   UNL     1     -22.471  -2.433   5.543  0.00  0.00    +0.000 OA
ATOM      3  C   UNL     1     -22.064  -3.464   7.594  0.00  0.00    +0.000 A 
ATOM      4  C   UNL     1     -21.846  -3.270   8.953  0.00  0.00    +0.000 A 
ATOM      5  C   UNL     1     -22.057  -0.916   8.747  0.00  0.00    +0.000 A 
ATOM      6  C   UNL     1     -22.270  -0.953   7.413  0.00  0.00    +0.000 A 
ATOM      7  C   UNL     1     -22.285  -2.287   6.748  0.00  0.00    +0.000 A 
ATOM      8  C   UNL     1     -22.066  -4.761   7.063  0.00  0.00    +0.000 A 
ATOM      9  C   UNL     1     -21.629  -4.364   9.789  0.00  0.00    +0.000 A 
ATOM     10  C   UNL     1     -21.634  -5.647   9.253  0.00  0.00    +0.000 A 
ATOM     11  C   UNL     1     -21.851  -5.856   7.895  0.00  0.00    +0.000 A 
ENDROOT
BRANCH   5  12
ATOM     12  C   UNL     1     -22.029   0.328   9.529  0.00  0.00    +0.000 A 
ATOM     13  C   UNL     1     -20.873   1.112   9.593  0.00  0.00    +0.000 A 
ATOM     14  C   UNL     1     -23.194   0.769  10.171  0.00  0.00    +0.000 A 
ATOM     15  C   UNL     1     -20.886   2.302  10.310  0.00  0.00    +0.000 A 
ATOM     16  C   UNL     1     -23.209   1.972  10.875  0.00  0.00    +0.000 A 
ATOM     17  C   UNL     1     -22.054   2.741  10.925  0.00  0.00    +0.000 A 
BRANCH  15  18
ATOM     18  O   UNL     1     -19.727   3.010  10.428  0.00  0.00    +0.000 OA
ATOM     19  H   UNL     1     -19.972   3.925  10.661  0.00  0.00    +0.000 HD
ENDBRANCH  15  18
BRANCH  17  20
ATOM     20  O   UNL     1     -22.087   3.944  11.567  0.00  0.00    +0.000 OA
ATOM     21  H   UNL     1     -21.754   4.606  10.932  0.00  0.00    +0.000 HD
ENDBRANCH  17  20
ENDBRANCH   5  12
BRANCH   6  22
ATOM     22  O   UNL     1     -22.459   0.151   6.603  0.00  0.00    +0.000 OA
ATOM     23  H   UNL     1     -23.374   0.464   6.671  0.00  0.00    +0.000 HD
ENDBRANCH   6  22
BRANCH   8  24
ATOM     24  O   UNL     1     -22.272  -5.026   5.736  0.00  0.00    +0.000 OA
ATOM     25  H   UNL     1     -23.133  -4.625   5.471  0.00  0.00    +0.000 HD
ENDBRANCH   8  24
BRANCH  10  26
ATOM     26  O   UNL     1     -21.420  -6.701  10.092  0.00  0.00    +0.000 OA
ATOM     27  H   UNL     1     -20.954  -6.371  10.881  0.00  0.00    +0.000 HD
ENDBRANCH  10  26
TORSDOF 6
ENDMDL
MODEL 6
REMARK VINA RESULT:      -5.4     15.373     17.357
REMARK  Name = Quercetin.pdbqt.pdb
REMARK  6 active torsions:
REMARK  status: ('A' for Active; 'I' for Inactive)
REMARK    1  A    between atoms: C_5  and  C_12
REMARK    2  A    between atoms: C_6  and  O_22
REMARK    3  A    between atoms: C_8  and  O_24
REMARK    4  A    between atoms: C_10  and  O_26
REMARK    5  A    between atoms: C_15  and  O_18
REMARK    6  A    between atoms: C_17  and  O_20
REMARK                            x       y       z     vdW  Elec       q    Type
REMARK                         _______ _______ _______ _____ _____    ______ ____
ROOT
ATOM      1  O   UNL     1     -22.536  -2.735  10.462  0.00  0.00    +0.000 OA
ATOM      2  O   UNL     1     -23.107  -4.475   6.833  0.00  0.00    +0.000 OA
ATOM      3  C   UNL     1     -22.639  -2.541   8.047  0.00  0.00    +0.000 A 
ATOM      4  C   UNL     1     -22.456  -1.996   9.314  0.00  0.00    +0.000 A 
ATOM      5  C   UNL     1     -22.795  -4.094  10.368  0.00  0.00    +0.000 A 
ATOM      6  C   UNL     1     -23.005  -4.754   9.209  0.00  0.00    +0.000 A 
ATOM      7  C   UNL     1     -22.932  -3.973   7.941  0.00  0.00    +0.000 A 
ATOM      8  C   UNL     1     -22.543  -1.724   6.914  0.00  0.00    +0.000 A 
ATOM      9  C   UNL     1     -22.179  -0.638   9.457  0.00  0.00    +0.000 A 
ATOM     10  C   UNL     1     -22.085   0.165   8.325  0.00  0.00    +0.000 A 
ATOM     11  C   UNL     1     -22.266  -0.367   7.052  0.00  0.00    +0.000 A 
ENDROOT
BRANCH   5  12
ATOM     12  C   UNL     1     -22.824  -4.742  11.687  0.00  0.00    +0.000 A 
ATOM     13  C   UNL     1     -21.796  -5.599  12.091  0.00  0.00    +0.000 A 
ATOM     14  C   UNL     1     -23.865  -4.452  12.579  0.00  0.00    +0.000 A 
ATOM     15  C   UNL     1     -21.830  -6.169  13.358  0.00  0.00    +0.000 A 
ATOM     16  C   UNL     1     -23.888  -5.012  13.856  0.00  0.00    +0.000 A 
ATOM     17  C   UNL     1     -22.857  -5.856  14.242  0.00  0.00    +0.000 A 
BRANCH  15  18
ATOM     18  O   UNL     1     -20.861  -7.065  13.701  0.00  0.00    +0.000 OA
ATOM     19  H   UNL     1     -20.117  -6.554  14.070  0.00  0.00    +0.000 HD
ENDBRANCH  15  18
BRANCH  17  20
ATOM     20  O   UNL     1     -22.852  -6.358  15.511  0.00  0.00    +0.000 OA
ATOM     21  H   UNL     1     -23.766  -6.639  15.703  0.00  0.00    +0.000 HD
ENDBRANCH  17  20
ENDBRANCH   5  12
BRANCH   6  22
ATOM     22  O   UNL     1     -23.303  -6.099   9.097  0.00  0.00    +0.000 OA
ATOM     23  H   UNL     1     -24.002  -6.234   8.439  0.00  0.00    +0.000 HD
ENDBRANCH   6  22
BRANCH   8  24
ATOM     24  O   UNL     1     -22.713  -2.191   5.639  0.00  0.00    +0.000 OA
ATOM     25  H   UNL     1     -22.571  -3.167   5.645  0.00  0.00    +0.000 HD
ENDBRANCH   8  24
BRANCH  10  26
ATOM     26  O   UNL     1     -21.812   1.491   8.491  0.00  0.00    +0.000 OA
ATOM     27  H   UNL     1     -22.544   1.890   8.995  0.00  0.00    +0.000 HD
ENDBRANCH  10  26
TORSDOF 6
ENDMDL
MODEL 7
REMARK VINA RESULT:      -5.4     18.281     20.450
REMARK  Name = Quercetin.pdbqt.pdb
REMARK  6 active torsions:
REMARK  status: ('A' for Active; 'I' for Inactive)
REMARK    1  A    between atoms: C_5  and  C_12
REMARK    2  A    between atoms: C_6  and  O_22
REMARK    3  A    between atoms: C_8  and  O_24
REMARK    4  A    between atoms: C_10  and  O_26
REMARK    5  A    between atoms: C_15  and  O_18
REMARK    6  A    between atoms: C_17  and  O_20
REMARK                            x       y       z     vdW  Elec       q    Type
REMARK                         _______ _______ _______ _____ _____    ______ ____
ROOT
ATOM      1  O   UNL     1       4.814 -11.389  13.482  0.00  0.00    +0.000 OA
ATOM      2  O   UNL     1       7.810 -10.871  10.784  0.00  0.00    +0.000 OA
ATOM      3  C   UNL     1       6.526  -9.974  12.510  0.00  0.00    +0.000 A 
ATOM      4  C   UNL     1       5.492 -10.203  13.411  0.00  0.00    +0.000 A 
ATOM      5  C   UNL     1       5.180 -12.423  12.631  0.00  0.00    +0.000 A 
ATOM      6  C   UNL     1       6.154 -12.338  11.700  0.00  0.00    +0.000 A 
ATOM      7  C   UNL     1       6.905 -11.054  11.594  0.00  0.00    +0.000 A 
ATOM      8  C   UNL     1       7.176  -8.733  12.492  0.00  0.00    +0.000 A 
ATOM      9  C   UNL     1       5.100  -9.201  14.296  0.00  0.00    +0.000 A 
ATOM     10  C   UNL     1       5.752  -7.972  14.271  0.00  0.00    +0.000 A 
ATOM     11  C   UNL     1       6.788  -7.729  13.375  0.00  0.00    +0.000 A 
ENDROOT
BRANCH   5  12
ATOM     12  C   UNL     1       4.372 -13.631  12.852  0.00  0.00    +0.000 A 
ATOM     13  C   UNL     1       3.593 -14.173  11.825  0.00  0.00    +0.000 A 
ATOM     14  C   UNL     1       4.428 -14.286  14.089  0.00  0.00    +0.000 A 
ATOM     15  C   UNL     1       2.868 -15.336  12.050  0.00  0.00    +0.000 A 
ATOM     16  C   UNL     1       3.713 -15.463  14.306  0.00  0.00    +0.000 A 
ATOM     17  C   UNL     1       2.949 -15.990  13.275  0.00  0.00    +0.000 A 
BRANCH  15  18
ATOM     18  O   UNL     1       2.052 -15.802  11.062  0.00  0.00    +0.000 OA
ATOM     19  H   UNL     1       2.540 -15.714  10.222  0.00  0.00    +0.000 HD
ENDBRANCH  15  18
BRANCH  17  20
ATOM     20  O   UNL     1       2.295 -17.171  13.471  0.00  0.00    +0.000 OA
ATOM     21  H   UNL     1       2.027 -17.188  14.408  0.00  0.00    +0.000 HD
ENDBRANCH  17  20
ENDBRANCH   5  12
BRANCH   6  22
ATOM     22  O   UNL     1       6.507 -13.341  10.818  0.00  0.00    +0.000 OA
ATOM     23  H   UNL     1       7.167 -13.926  11.222  0.00  0.00    +0.000 HD
ENDBRANCH   6  22
BRANCH   8  24
ATOM     24  O   UNL     1       8.199  -8.437  11.633  0.00  0.00    +0.000 OA
ATOM     25  H   UNL     1       7.908  -8.659  10.718  0.00  0.00    +0.000 HD
ENDBRANCH   8  24
BRANCH  10  26
ATOM     26  O   UNL     1       5.350  -7.007  15.147  0.00  0.00    +0.000 OA
ATOM     27  H   UNL     1       4.928  -7.445  15.908  0.00  0.00    +0.000 HD
ENDBRANCH  10  26
TORSDOF 6
ENDMDL
MODEL 8
REMARK VINA RESULT:      -5.3     19.090     21.222
REMARK  Name = Quercetin.pdbqt.pdb
REMARK  6 active torsions:
REMARK  status: ('A' for Active; 'I' for Inactive)
REMARK    1  A    between atoms: C_5  and  C_12
REMARK    2  A    between atoms: C_6  and  O_22
REMARK    3  A    between atoms: C_8  and  O_24
REMARK    4  A    between atoms: C_10  and  O_26
REMARK    5  A    between atoms: C_15  and  O_18
REMARK    6  A    between atoms: C_17  and  O_20
REMARK                            x       y       z     vdW  Elec       q    Type
REMARK                         _______ _______ _______ _____ _____    ______ ____
ROOT
ATOM      1  O   UNL     1     -13.806 -14.176   4.540  0.00  0.00    +0.000 OA
ATOM      2  O   UNL     1     -12.506 -12.245   1.207  0.00  0.00    +0.000 OA
ATOM      3  C   UNL     1     -12.001 -13.624   3.018  0.00  0.00    +0.000 A 
ATOM      4  C   UNL     1     -12.497 -14.260   4.150  0.00  0.00    +0.000 A 
ATOM      5  C   UNL     1     -14.690 -13.437   3.766  0.00  0.00    +0.000 A 
ATOM      6  C   UNL     1     -14.346 -12.758   2.651  0.00  0.00    +0.000 A 
ATOM      7  C   UNL     1     -12.924 -12.825   2.207  0.00  0.00    +0.000 A 
ATOM      8  C   UNL     1     -10.648 -13.753   2.680  0.00  0.00    +0.000 A 
ATOM      9  C   UNL     1     -11.651 -15.027   4.949  0.00  0.00    +0.000 A 
ATOM     10  C   UNL     1     -10.309 -15.150   4.604  0.00  0.00    +0.000 A 
ATOM     11  C   UNL     1      -9.799 -14.518   3.475  0.00  0.00    +0.000 A 
ENDROOT
BRANCH   5  12
ATOM     12  C   UNL     1     -16.056 -13.469   4.308  0.00  0.00    +0.000 A 
ATOM     13  C   UNL     1     -16.342 -12.935   5.568  0.00  0.00    +0.000 A 
ATOM     14  C   UNL     1     -17.099 -13.984   3.528  0.00  0.00    +0.000 A 
ATOM     15  C   UNL     1     -17.649 -12.944   6.040  0.00  0.00    +0.000 A 
ATOM     16  C   UNL     1     -18.412 -13.976   3.997  0.00  0.00    +0.000 A 
ATOM     17  C   UNL     1     -18.680 -13.438   5.248  0.00  0.00    +0.000 A 
BRANCH  15  18
ATOM     18  O   UNL     1     -17.893 -12.494   7.304  0.00  0.00    +0.000 OA
ATOM     19  H   UNL     1     -17.957 -11.522   7.254  0.00  0.00    +0.000 HD
ENDBRANCH  15  18
BRANCH  17  20
ATOM     20  O   UNL     1     -19.972 -13.380   5.682  0.00  0.00    +0.000 OA
ATOM     21  H   UNL     1     -20.300 -12.489   5.459  0.00  0.00    +0.000 HD
ENDBRANCH  17  20
ENDBRANCH   5  12
BRANCH   6  22
ATOM     22  O   UNL     1     -15.202 -11.985   1.890  0.00  0.00    +0.000 OA
ATOM     23  H   UNL     1     -14.765 -11.159   1.629  0.00  0.00    +0.000 HD
ENDBRANCH   6  22
BRANCH   8  24
ATOM     24  O   UNL     1     -10.091 -13.154   1.583  0.00  0.00    +0.000 OA
ATOM     25  H   UNL     1     -10.611 -13.418   0.788  0.00  0.00    +0.000 HD
ENDBRANCH   8  24
BRANCH  10  26
ATOM     26  O   UNL     1      -9.501 -15.906   5.402  0.00  0.00    +0.000 OA
ATOM     27  H   UNL     1     -10.046 -16.598   5.816  0.00  0.00    +0.000 HD
ENDBRANCH  10  26
TORSDOF 6
ENDMDL
MODEL 9
REMARK VINA RESULT:      -5.3     15.338     17.262
REMARK  Name = Quercetin.pdbqt.pdb
REMARK  6 active torsions:
REMARK  status: ('A' for Active; 'I' for Inactive)
REMARK    1  A    between atoms: C_5  and  C_12
REMARK    2  A    between atoms: C_6  and  O_22
REMARK    3  A    between atoms: C_8  and  O_24
REMARK    4  A    between atoms: C_10  and  O_26
REMARK    5  A    between atoms: C_15  and  O_18
REMARK    6  A    between atoms: C_17  and  O_20
REMARK                            x       y       z     vdW  Elec       q    Type
REMARK                         _______ _______ _______ _____ _____    ______ ____
ROOT
ATOM      1  O   UNL     1     -22.775  -4.188   9.484  0.00  0.00    +0.000 OA
ATOM      2  O   UNL     1     -21.858  -0.232   9.305  0.00  0.00    +0.000 OA
ATOM      3  C   UNL     1     -22.412  -2.187   8.163  0.00  0.00    +0.000 A 
ATOM      4  C   UNL     1     -22.717  -3.539   8.282  0.00  0.00    +0.000 A 
ATOM      5  C   UNL     1     -22.537  -3.469  10.647  0.00  0.00    +0.000 A 
ATOM      6  C   UNL     1     -22.218  -2.157  10.682  0.00  0.00    +0.000 A 
ATOM      7  C   UNL     1     -22.139  -1.425   9.386  0.00  0.00    +0.000 A 
ATOM      8  C   UNL     1     -22.369  -1.588   6.898  0.00  0.00    +0.000 A 
ATOM      9  C   UNL     1     -22.979  -4.298   7.143  0.00  0.00    +0.000 A 
ATOM     10  C   UNL     1     -22.935  -3.694   5.891  0.00  0.00    +0.000 A 
ATOM     11  C   UNL     1     -22.631  -2.343   5.758  0.00  0.00    +0.000 A 
ENDROOT
BRANCH   5  12
ATOM     12  C   UNL     1     -22.662  -4.306  11.848  0.00  0.00    +0.000 A 
ATOM     13  C   UNL     1     -21.699  -5.272  12.155  0.00  0.00    +0.000 A 
ATOM     14  C   UNL     1     -23.726  -4.093  12.734  0.00  0.00    +0.000 A 
ATOM     15  C   UNL     1     -21.822  -6.024  13.317  0.00  0.00    +0.000 A 
ATOM     16  C   UNL     1     -23.838  -4.837  13.907  0.00  0.00    +0.000 A 
ATOM     17  C   UNL     1     -22.871  -5.789  14.199  0.00  0.00    +0.000 A 
BRANCH  15  18
ATOM     18  O   UNL     1     -20.917  -7.016  13.555  0.00  0.00    +0.000 OA
ATOM     19  H   UNL     1     -21.279  -7.833  13.163  0.00  0.00    +0.000 HD
ENDBRANCH  15  18
BRANCH  17  20
ATOM     20  O   UNL     1     -22.951  -6.476  15.375  0.00  0.00    +0.000 OA
ATOM     21  H   UNL     1     -22.166  -7.054  15.413  0.00  0.00    +0.000 HD
ENDBRANCH  17  20
ENDBRANCH   5  12
BRANCH   6  22
ATOM     22  O   UNL     1     -21.939  -1.432  11.825  0.00  0.00    +0.000 OA
ATOM     23  H   UNL     1     -20.995  -1.212  11.861  0.00  0.00    +0.000 HD
ENDBRANCH   6  22
BRANCH   8  24
ATOM     24  O   UNL     1     -22.074  -0.265   6.707  0.00  0.00    +0.000 OA
ATOM     25  H   UNL     1     -22.609   0.064   5.947  0.00  0.00    +0.000 HD
ENDBRANCH   8  24
BRANCH  10  26
ATOM     26  O   UNL     1     -23.196  -4.458   4.792  0.00  0.00    +0.000 OA
ATOM     27  H   UNL     1     -23.611  -5.287   5.091  0.00  0.00    +0.000 HD
ENDBRANCH  10  26
TORSDOF 6
ENDMDL
