MODEL 1
REMARK VINA RESULT:      -6.6      0.000      0.000
REMARK  Name = 
REMARK  11 active torsions:
REMARK  status: ('A' for Active; 'I' for Inactive)
REMARK    1  A    between atoms: O_2  and  C_16
REMARK    2  A    between atoms: O_2  and  C_18
REMARK    3  A    between atoms: O_3  and  C_12
REMARK    4  A    between atoms: O_4  and  C_13
REMARK    5  A    between atoms: O_5  and  C_14
REMARK    6  A    between atoms: O_8  and  C_24
REMARK    7  A    between atoms: O_9  and  C_29
REMARK    8  A    between atoms: O_10  and  C_30
REMARK    9  A    between atoms: O_11  and  C_32
REMARK   10  A    between atoms: C_15  and  C_17
REMARK   11  A    between atoms: C_19  and  C_23
REMARK                            x       y       z     vdW  Elec       q    Type
REMARK                         _______ _______ _______ _____ _____    ______ ____
ROOT
ATOM      1  O   UNL     1      -9.515  -5.661  21.300  0.00  0.00    +0.000 OA
ATOM      2  O   UNL     1     -11.443  -2.376  19.903  0.00  0.00    +0.000 OA
ATOM      3  C   UNL     1     -11.244  -4.002  21.604  0.00  0.00    +0.000 A 
ATOM      4  C   UNL     1     -10.487  -5.024  22.049  0.00  0.00    +0.000 A 
ATOM      5  C   UNL     1     -10.944  -3.437  20.255  0.00  0.00    +0.000 A 
ATOM      6  C   UNL     1     -10.002  -4.205  19.410  0.00  0.00    +0.000 A 
ATOM      7  C   UNL     1      -9.329  -5.277  19.998  0.00  0.00    +0.000 A 
ATOM      8  C   UNL     1      -9.747  -3.897  18.066  0.00  0.00    +0.000 A 
ATOM      9  C   UNL     1      -8.407  -6.027  19.265  0.00  0.00    +0.000 A 
ATOM     10  C   UNL     1      -8.826  -4.647  17.325  0.00  0.00    +0.000 A 
ATOM     11  C   UNL     1      -8.163  -5.706  17.937  0.00  0.00    +0.000 A 
ENDROOT
BRANCH   4  12
ATOM     12  C   UNL     1     -10.639  -5.604  23.400  0.00  0.00    +0.000 A 
ATOM     13  C   UNL     1     -11.867  -6.176  23.776  0.00  0.00    +0.000 A 
ATOM     14  C   UNL     1      -9.574  -5.602  24.319  0.00  0.00    +0.000 A 
ATOM     15  C   UNL     1     -12.018  -6.705  25.053  0.00  0.00    +0.000 A 
ATOM     16  C   UNL     1      -9.737  -6.131  25.601  0.00  0.00    +0.000 A 
ATOM     17  C   UNL     1     -10.960  -6.674  25.957  0.00  0.00    +0.000 A 
BRANCH  15  18
ATOM     18  O   UNL     1     -13.194  -7.263  25.471  0.00  0.00    +0.000 OA
ATOM     19  H   UNL     1     -13.873  -7.095  24.793  0.00  0.00    +0.000 HD
ENDBRANCH  15  18
BRANCH  17  20
ATOM     20  O   UNL     1     -11.120  -7.188  27.211  0.00  0.00    +0.000 OA
ATOM     21  H   UNL     1     -11.610  -6.498  27.703  0.00  0.00    +0.000 HD
ENDBRANCH  17  20
ENDBRANCH   4  12
BRANCH   8  22
ATOM     22  O   UNL     1     -10.407  -2.875  17.446  0.00  0.00    +0.000 OA
ATOM     23  H   UNL     1     -10.795  -2.266  18.093  0.00  0.00    +0.000 HD
ENDBRANCH   8  22
BRANCH  11  24
ATOM     24  O   UNL     1      -7.257  -6.466  17.261  0.00  0.00    +0.000 OA
ATOM     25  H   UNL     1      -6.827  -7.082  17.877  0.00  0.00    +0.000 HD
ENDBRANCH  11  24
BRANCH   3  26
ATOM     26  O   UNL     1     -12.218  -3.373  22.364  0.00  0.00    +0.000 OA
BRANCH  26  32
ATOM     27  O   UNL     1     -11.650  -2.753  24.607  0.00  0.00    +0.000 OA
ATOM     28  C   UNL     1     -13.783  -1.078  23.628  0.00  0.00    +0.000 C 
ATOM     29  C   UNL     1     -13.708  -1.521  25.094  0.00  0.00    +0.000 C 
ATOM     30  C   UNL     1     -12.392  -1.037  22.996  0.00  0.00    +0.000 C 
ATOM     31  C   UNL     1     -12.963  -2.858  25.180  0.00  0.00    +0.000 C 
ATOM     32  C   UNL     1     -11.654  -2.375  23.228  0.00  0.00    +0.000 C 
ATOM     33  C   UNL     1     -12.792  -3.314  26.625  0.00  0.00    +0.000 C 
BRANCH  28  34
ATOM     34  O   UNL     1     -14.386   0.229  23.577  0.00  0.00    +0.000 OA
ATOM     35  H   UNL     1     -14.737   0.308  22.665  0.00  0.00    +0.000 HD
ENDBRANCH  28  34
BRANCH  29  36
ATOM     36  O   UNL     1     -15.035  -1.622  25.619  0.00  0.00    +0.000 OA
ATOM     37  H   UNL     1     -15.598  -1.109  25.005  0.00  0.00    +0.000 HD
ENDBRANCH  29  36
BRANCH  30  38
ATOM     38  O   UNL     1     -11.686   0.081  23.577  0.00  0.00    +0.000 OA
ATOM     39  H   UNL     1     -11.985   0.164  24.502  0.00  0.00    +0.000 HD
ENDBRANCH  30  38
ENDBRANCH  26  32
ENDBRANCH   3  26
TORSDOF 10
ENDMDL
MODEL 2
REMARK VINA RESULT:      -6.5      2.867      6.121
REMARK  Name = 
REMARK  11 active torsions:
REMARK  status: ('A' for Active; 'I' for Inactive)
REMARK    1  A    between atoms: O_2  and  C_16
REMARK    2  A    between atoms: O_2  and  C_18
REMARK    3  A    between atoms: O_3  and  C_12
REMARK    4  A    between atoms: O_4  and  C_13
REMARK    5  A    between atoms: O_5  and  C_14
REMARK    6  A    between atoms: O_8  and  C_24
REMARK    7  A    between atoms: O_9  and  C_29
REMARK    8  A    between atoms: O_10  and  C_30
REMARK    9  A    between atoms: O_11  and  C_32
REMARK   10  A    between atoms: C_15  and  C_17
REMARK   11  A    between atoms: C_19  and  C_23
REMARK                            x       y       z     vdW  Elec       q    Type
REMARK                         _______ _______ _______ _____ _____    ______ ____
ROOT
ATOM      1  O   UNL     1      -8.934  -0.294  20.697  0.00  0.00    +0.000 OA
ATOM      2  O   UNL     1     -11.795   0.205  23.531  0.00  0.00    +0.000 OA
ATOM      3  C   UNL     1     -10.794  -1.216  21.933  0.00  0.00    +0.000 A 
ATOM      4  C   UNL     1      -9.753  -1.338  21.085  0.00  0.00    +0.000 A 
ATOM      5  C   UNL     1     -11.015   0.104  22.592  0.00  0.00    +0.000 A 
ATOM      6  C   UNL     1     -10.226   1.244  22.074  0.00  0.00    +0.000 A 
ATOM      7  C   UNL     1      -9.213   0.967  21.155  0.00  0.00    +0.000 A 
ATOM      8  C   UNL     1     -10.437   2.572  22.473  0.00  0.00    +0.000 A 
ATOM      9  C   UNL     1      -8.414   1.993  20.646  0.00  0.00    +0.000 A 
ATOM     10  C   UNL     1      -9.642   3.604  21.964  0.00  0.00    +0.000 A 
ATOM     11  C   UNL     1      -8.634   3.301  21.055  0.00  0.00    +0.000 A 
ENDROOT
BRANCH   4  12
ATOM     12  C   UNL     1      -9.389  -2.618  20.443  0.00  0.00    +0.000 A 
ATOM     13  C   UNL     1      -9.895  -2.924  19.167  0.00  0.00    +0.000 A 
ATOM     14  C   UNL     1      -8.538  -3.538  21.081  0.00  0.00    +0.000 A 
ATOM     15  C   UNL     1      -9.569  -4.137  18.570  0.00  0.00    +0.000 A 
ATOM     16  C   UNL     1      -8.219  -4.756  20.475  0.00  0.00    +0.000 A 
ATOM     17  C   UNL     1      -8.743  -5.045  19.225  0.00  0.00    +0.000 A 
BRANCH  15  18
ATOM     18  O   UNL     1     -10.043  -4.486  17.335  0.00  0.00    +0.000 OA
ATOM     19  H   UNL     1     -11.013  -4.404  17.343  0.00  0.00    +0.000 HD
ENDBRANCH  15  18
BRANCH  17  20
ATOM     20  O   UNL     1      -8.435  -6.236  18.635  0.00  0.00    +0.000 OA
ATOM     21  H   UNL     1      -8.774  -6.157  17.720  0.00  0.00    +0.000 HD
ENDBRANCH  17  20
ENDBRANCH   4  12
BRANCH   8  22
ATOM     22  O   UNL     1     -11.437   2.887  23.347  0.00  0.00    +0.000 OA
ATOM     23  H   UNL     1     -11.604   2.160  23.967  0.00  0.00    +0.000 HD
ENDBRANCH   8  22
BRANCH  11  24
ATOM     24  O   UNL     1      -7.831   4.269  20.530  0.00  0.00    +0.000 OA
ATOM     25  H   UNL     1      -7.349   4.714  21.247  0.00  0.00    +0.000 HD
ENDBRANCH  11  24
BRANCH   3  26
ATOM     26  O   UNL     1     -11.609  -2.271  22.312  0.00  0.00    +0.000 OA
BRANCH  26  32
ATOM     27  O   UNL     1     -10.480  -3.560  23.985  0.00  0.00    +0.000 OA
ATOM     28  C   UNL     1     -13.240  -4.374  23.807  0.00  0.00    +0.000 C 
ATOM     29  C   UNL     1     -12.118  -5.375  24.104  0.00  0.00    +0.000 C 
ATOM     30  C   UNL     1     -12.858  -2.968  24.271  0.00  0.00    +0.000 C 
ATOM     31  C   UNL     1     -10.811  -4.866  23.486  0.00  0.00    +0.000 C 
ATOM     32  C   UNL     1     -11.475  -2.571  23.709  0.00  0.00    +0.000 C 
ATOM     33  C   UNL     1      -9.640  -5.786  23.812  0.00  0.00    +0.000 C 
BRANCH  28  34
ATOM     34  O   UNL     1     -14.433  -4.810  24.487  0.00  0.00    +0.000 OA
ATOM     35  H   UNL     1     -15.126  -4.823  23.794  0.00  0.00    +0.000 HD
ENDBRANCH  28  34
BRANCH  29  36
ATOM     36  O   UNL     1     -12.486  -6.655  23.581  0.00  0.00    +0.000 OA
ATOM     37  H   UNL     1     -12.063  -7.308  24.174  0.00  0.00    +0.000 HD
ENDBRANCH  29  36
BRANCH  30  38
ATOM     38  O   UNL     1     -12.877  -2.970  25.715  0.00  0.00    +0.000 OA
ATOM     39  H   UNL     1     -12.867  -2.041  26.007  0.00  0.00    +0.000 HD
ENDBRANCH  30  38
ENDBRANCH  26  32
ENDBRANCH   3  26
TORSDOF 10
ENDMDL
MODEL 3
REMARK VINA RESULT:      -6.5      2.599      6.342
REMARK  Name = 
REMARK  11 active torsions:
REMARK  status: ('A' for Active; 'I' for Inactive)
REMARK    1  A    between atoms: O_2  and  C_16
REMARK    2  A    between atoms: O_2  and  C_18
REMARK    3  A    between atoms: O_3  and  C_12
REMARK    4  A    between atoms: O_4  and  C_13
REMARK    5  A    between atoms: O_5  and  C_14
REMARK    6  A    between atoms: O_8  and  C_24
REMARK    7  A    between atoms: O_9  and  C_29
REMARK    8  A    between atoms: O_10  and  C_30
REMARK    9  A    between atoms: O_11  and  C_32
REMARK   10  A    between atoms: C_15  and  C_17
REMARK   11  A    between atoms: C_19  and  C_23
REMARK                            x       y       z     vdW  Elec       q    Type
REMARK                         _______ _______ _______ _____ _____    ______ ____
ROOT
ATOM      1  O   UNL     1      -9.506  -0.661  20.094  0.00  0.00    +0.000 OA
ATOM      2  O   UNL     1      -9.700  -1.030  24.130  0.00  0.00    +0.000 OA
ATOM      3  C   UNL     1      -9.746  -2.095  22.022  0.00  0.00    +0.000 A 
ATOM      4  C   UNL     1      -9.566  -1.901  20.701  0.00  0.00    +0.000 A 
ATOM      5  C   UNL     1      -9.769  -0.899  22.914  0.00  0.00    +0.000 A 
ATOM      6  C   UNL     1      -9.840   0.422  22.249  0.00  0.00    +0.000 A 
ATOM      7  C   UNL     1      -9.690   0.458  20.862  0.00  0.00    +0.000 A 
ATOM      8  C   UNL     1     -10.033   1.625  22.944  0.00  0.00    +0.000 A 
ATOM      9  C   UNL     1      -9.721   1.674  20.175  0.00  0.00    +0.000 A 
ATOM     10  C   UNL     1     -10.068   2.845  22.261  0.00  0.00    +0.000 A 
ATOM     11  C   UNL     1      -9.909   2.855  20.879  0.00  0.00    +0.000 A 
ENDROOT
BRANCH   4  12
ATOM     12  C   UNL     1      -9.443  -3.015  19.738  0.00  0.00    +0.000 A 
ATOM     13  C   UNL     1      -8.601  -4.101  20.036  0.00  0.00    +0.000 A 
ATOM     14  C   UNL     1     -10.158  -3.015  18.526  0.00  0.00    +0.000 A 
ATOM     15  C   UNL     1      -8.469  -5.141  19.123  0.00  0.00    +0.000 A 
ATOM     16  C   UNL     1     -10.015  -4.063  17.613  0.00  0.00    +0.000 A 
ATOM     17  C   UNL     1      -9.168  -5.114  17.920  0.00  0.00    +0.000 A 
BRANCH  15  18
ATOM     18  O   UNL     1      -7.656  -6.215  19.362  0.00  0.00    +0.000 OA
ATOM     19  H   UNL     1      -7.050  -6.316  18.607  0.00  0.00    +0.000 HD
ENDBRANCH  15  18
BRANCH  17  20
ATOM     20  O   UNL     1      -9.025  -6.135  17.025  0.00  0.00    +0.000 OA
ATOM     21  H   UNL     1      -8.271  -6.660  17.362  0.00  0.00    +0.000 HD
ENDBRANCH  17  20
ENDBRANCH   4  12
BRANCH   8  22
ATOM     22  O   UNL     1     -10.213   1.628  24.297  0.00  0.00    +0.000 OA
ATOM     23  H   UNL     1      -9.970   2.485  24.681  0.00  0.00    +0.000 HD
ENDBRANCH   8  22
BRANCH  11  24
ATOM     24  O   UNL     1      -9.935   4.016  20.166  0.00  0.00    +0.000 OA
ATOM     25  H   UNL     1      -9.026   4.327  20.019  0.00  0.00    +0.000 HD
ENDBRANCH  11  24
BRANCH   3  26
ATOM     26  O   UNL     1      -9.808  -3.345  22.619  0.00  0.00    +0.000 OA
BRANCH  26  32
ATOM     27  O   UNL     1     -12.145  -3.280  23.138  0.00  0.00    +0.000 OA
ATOM     28  C   UNL     1     -10.925  -5.591  24.357  0.00  0.00    +0.000 C 
ATOM     29  C   UNL     1     -12.059  -4.819  25.040  0.00  0.00    +0.000 C 
ATOM     30  C   UNL     1     -11.001  -5.446  22.837  0.00  0.00    +0.000 C 
ATOM     31  C   UNL     1     -12.032  -3.361  24.568  0.00  0.00    +0.000 C 
ATOM     32  C   UNL     1     -11.094  -3.955  22.440  0.00  0.00    +0.000 C 
ATOM     33  C   UNL     1     -13.185  -2.557  25.159  0.00  0.00    +0.000 C 
BRANCH  28  34
ATOM     34  O   UNL     1     -11.033  -6.980  24.725  0.00  0.00    +0.000 OA
ATOM     35  H   UNL     1     -11.994  -7.134  24.841  0.00  0.00    +0.000 HD
ENDBRANCH  28  34
BRANCH  29  36
ATOM     36  O   UNL     1     -11.901  -4.917  26.459  0.00  0.00    +0.000 OA
ATOM     37  H   UNL     1     -11.053  -4.471  26.657  0.00  0.00    +0.000 HD
ENDBRANCH  29  36
BRANCH  30  38
ATOM     38  O   UNL     1     -12.147  -6.201  22.388  0.00  0.00    +0.000 OA
ATOM     39  H   UNL     1     -11.813  -7.016  21.971  0.00  0.00    +0.000 HD
ENDBRANCH  30  38
ENDBRANCH  26  32
ENDBRANCH   3  26
TORSDOF 10
ENDMDL
MODEL 4
REMARK VINA RESULT:      -6.5      3.492      6.435
REMARK  Name = 
REMARK  11 active torsions:
REMARK  status: ('A' for Active; 'I' for Inactive)
REMARK    1  A    between atoms: O_2  and  C_16
REMARK    2  A    between atoms: O_2  and  C_18
REMARK    3  A    between atoms: O_3  and  C_12
REMARK    4  A    between atoms: O_4  and  C_13
REMARK    5  A    between atoms: O_5  and  C_14
REMARK    6  A    between atoms: O_8  and  C_24
REMARK    7  A    between atoms: O_9  and  C_29
REMARK    8  A    between atoms: O_10  and  C_30
REMARK    9  A    between atoms: O_11  and  C_32
REMARK   10  A    between atoms: C_15  and  C_17
REMARK   11  A    between atoms: C_19  and  C_23
REMARK                            x       y       z     vdW  Elec       q    Type
REMARK                         _______ _______ _______ _____ _____    ______ ____
ROOT
ATOM      1  O   UNL     1      -7.276  -1.930  21.925  0.00  0.00    +0.000 OA
ATOM      2  O   UNL     1      -8.020  -3.671  25.514  0.00  0.00    +0.000 OA
ATOM      3  C   UNL     1      -8.552  -3.523  23.217  0.00  0.00    +0.000 A 
ATOM      4  C   UNL     1      -8.173  -2.976  22.046  0.00  0.00    +0.000 A 
ATOM      5  C   UNL     1      -7.880  -3.055  24.464  0.00  0.00    +0.000 A 
ATOM      6  C   UNL     1      -7.027  -1.850  24.346  0.00  0.00    +0.000 A 
ATOM      7  C   UNL     1      -6.767  -1.365  23.064  0.00  0.00    +0.000 A 
ATOM      8  C   UNL     1      -6.465  -1.193  25.449  0.00  0.00    +0.000 A 
ATOM      9  C   UNL     1      -5.950  -0.248  22.878  0.00  0.00    +0.000 A 
ATOM     10  C   UNL     1      -5.647  -0.072  25.270  0.00  0.00    +0.000 A 
ATOM     11  C   UNL     1      -5.397   0.388  23.982  0.00  0.00    +0.000 A 
ENDROOT
BRANCH   4  12
ATOM     12  C   UNL     1      -8.708  -3.423  20.743  0.00  0.00    +0.000 A 
ATOM     13  C   UNL     1      -8.318  -4.669  20.222  0.00  0.00    +0.000 A 
ATOM     14  C   UNL     1      -9.611  -2.628  20.013  0.00  0.00    +0.000 A 
ATOM     15  C   UNL     1      -8.805  -5.083  18.987  0.00  0.00    +0.000 A 
ATOM     16  C   UNL     1     -10.092  -3.050  18.772  0.00  0.00    +0.000 A 
ATOM     17  C   UNL     1      -9.680  -4.273  18.269  0.00  0.00    +0.000 A 
BRANCH  15  18
ATOM     18  O   UNL     1      -8.448  -6.281  18.433  0.00  0.00    +0.000 OA
ATOM     19  H   UNL     1      -8.221  -6.897  19.151  0.00  0.00    +0.000 HD
ENDBRANCH  15  18
BRANCH  17  20
ATOM     20  O   UNL     1     -10.147  -4.684  17.054  0.00  0.00    +0.000 OA
ATOM     21  H   UNL     1     -11.035  -4.279  16.977  0.00  0.00    +0.000 HD
ENDBRANCH  17  20
ENDBRANCH   4  12
BRANCH   8  22
ATOM     22  O   UNL     1      -6.720  -1.620  26.721  0.00  0.00    +0.000 OA
ATOM     23  H   UNL     1      -7.269  -0.981  27.201  0.00  0.00    +0.000 HD
ENDBRANCH   8  22
BRANCH  11  24
ATOM     24  O   UNL     1      -4.608   1.475  23.753  0.00  0.00    +0.000 OA
ATOM     25  H   UNL     1      -3.782   1.389  24.257  0.00  0.00    +0.000 HD
ENDBRANCH  11  24
BRANCH   3  26
ATOM     26  O   UNL     1      -9.454  -4.571  23.325  0.00  0.00    +0.000 OA
BRANCH  26  32
ATOM     27  O   UNL     1     -11.219  -3.461  24.505  0.00  0.00    +0.000 OA
ATOM     28  C   UNL     1     -11.883  -6.240  24.118  0.00  0.00    +0.000 C 
ATOM     29  C   UNL     1     -12.288  -5.479  25.385  0.00  0.00    +0.000 C 
ATOM     30  C   UNL     1     -11.737  -5.289  22.930  0.00  0.00    +0.000 C 
ATOM     31  C   UNL     1     -11.288  -4.345  25.635  0.00  0.00    +0.000 C 
ATOM     32  C   UNL     1     -10.812  -4.106  23.295  0.00  0.00    +0.000 C 
ATOM     33  C   UNL     1     -11.681  -3.504  26.844  0.00  0.00    +0.000 C 
BRANCH  28  34
ATOM     34  O   UNL     1     -12.892  -7.229  23.837  0.00  0.00    +0.000 OA
ATOM     35  H   UNL     1     -12.762  -7.458  22.893  0.00  0.00    +0.000 HD
ENDBRANCH  28  34
BRANCH  29  36
ATOM     36  O   UNL     1     -12.334  -6.394  26.484  0.00  0.00    +0.000 OA
ATOM     37  H   UNL     1     -12.106  -7.266  26.106  0.00  0.00    +0.000 HD
ENDBRANCH  29  36
BRANCH  30  38
ATOM     38  O   UNL     1     -13.063  -4.849  22.565  0.00  0.00    +0.000 OA
ATOM     39  H   UNL     1     -12.962  -4.072  21.985  0.00  0.00    +0.000 HD
ENDBRANCH  30  38
ENDBRANCH  26  32
ENDBRANCH   3  26
TORSDOF 10
ENDMDL
MODEL 5
REMARK VINA RESULT:      -6.5      1.459      2.558
REMARK  Name = 
REMARK  11 active torsions:
REMARK  status: ('A' for Active; 'I' for Inactive)
REMARK    1  A    between atoms: O_2  and  C_16
REMARK    2  A    between atoms: O_2  and  C_18
REMARK    3  A    between atoms: O_3  and  C_12
REMARK    4  A    between atoms: O_4  and  C_13
REMARK    5  A    between atoms: O_5  and  C_14
REMARK    6  A    between atoms: O_8  and  C_24
REMARK    7  A    between atoms: O_9  and  C_29
REMARK    8  A    between atoms: O_10  and  C_30
REMARK    9  A    between atoms: O_11  and  C_32
REMARK   10  A    between atoms: C_15  and  C_17
REMARK   11  A    between atoms: C_19  and  C_23
REMARK                            x       y       z     vdW  Elec       q    Type
REMARK                         _______ _______ _______ _____ _____    ______ ____
ROOT
ATOM      1  O   UNL     1      -9.140  -5.298  21.676  0.00  0.00    +0.000 OA
ATOM      2  O   UNL     1     -11.302  -1.970  20.828  0.00  0.00    +0.000 OA
ATOM      3  C   UNL     1     -10.699  -3.608  22.419  0.00  0.00    +0.000 A 
ATOM      4  C   UNL     1      -9.872  -4.647  22.652  0.00  0.00    +0.000 A 
ATOM      5  C   UNL     1     -10.750  -3.043  21.039  0.00  0.00    +0.000 A 
ATOM      6  C   UNL     1     -10.074  -3.824  19.978  0.00  0.00    +0.000 A 
ATOM      7  C   UNL     1      -9.293  -4.910  20.371  0.00  0.00    +0.000 A 
ATOM      8  C   UNL     1     -10.172  -3.514  18.614  0.00  0.00    +0.000 A 
ATOM      9  C   UNL     1      -8.607  -5.674  19.423  0.00  0.00    +0.000 A 
ATOM     10  C   UNL     1      -9.491  -4.277  17.659  0.00  0.00    +0.000 A 
ATOM     11  C   UNL     1      -8.711  -5.351  18.077  0.00  0.00    +0.000 A 
ENDROOT
BRANCH   4  12
ATOM     12  C   UNL     1      -9.678  -5.230  23.996  0.00  0.00    +0.000 A 
ATOM     13  C   UNL     1      -8.781  -4.624  24.893  0.00  0.00    +0.000 A 
ATOM     14  C   UNL     1     -10.381  -6.379  24.401  0.00  0.00    +0.000 A 
ATOM     15  C   UNL     1      -8.583  -5.182  26.151  0.00  0.00    +0.000 A 
ATOM     16  C   UNL     1     -10.172  -6.935  25.665  0.00  0.00    +0.000 A 
ATOM     17  C   UNL     1      -9.270  -6.332  26.527  0.00  0.00    +0.000 A 
BRANCH  15  18
ATOM     18  O   UNL     1      -7.714  -4.637  27.056  0.00  0.00    +0.000 OA
ATOM     19  H   UNL     1      -7.116  -5.337  27.369  0.00  0.00    +0.000 HD
ENDBRANCH  15  18
BRANCH  17  20
ATOM     20  O   UNL     1      -9.064  -6.878  27.761  0.00  0.00    +0.000 OA
ATOM     21  H   UNL     1      -8.470  -7.640  27.601  0.00  0.00    +0.000 HD
ENDBRANCH  17  20
ENDBRANCH   4  12
BRANCH   8  22
ATOM     22  O   UNL     1     -10.951  -2.477  18.187  0.00  0.00    +0.000 OA
ATOM     23  H   UNL     1     -10.963  -1.758  18.837  0.00  0.00    +0.000 HD
ENDBRANCH   8  22
BRANCH  11  24
ATOM     24  O   UNL     1      -8.028  -6.125  17.188  0.00  0.00    +0.000 OA
ATOM     25  H   UNL     1      -7.151  -5.739  17.029  0.00  0.00    +0.000 HD
ENDBRANCH  11  24
BRANCH   3  26
ATOM     26  O   UNL     1     -11.429  -2.965  23.407  0.00  0.00    +0.000 OA
BRANCH  26  32
ATOM     27  O   UNL     1     -13.747  -2.449  23.098  0.00  0.00    +0.000 OA
ATOM     28  C   UNL     1     -13.198  -2.900  25.893  0.00  0.00    +0.000 C 
ATOM     29  C   UNL     1     -14.222  -1.859  25.426  0.00  0.00    +0.000 C 
ATOM     30  C   UNL     1     -13.052  -4.024  24.866  0.00  0.00    +0.000 C 
ATOM     31  C   UNL     1     -13.834  -1.359  24.030  0.00  0.00    +0.000 C 
ATOM     32  C   UNL     1     -12.782  -3.440  23.461  0.00  0.00    +0.000 C 
ATOM     33  C   UNL     1     -14.858  -0.373  23.480  0.00  0.00    +0.000 C 
BRANCH  28  34
ATOM     34  O   UNL     1     -13.638  -3.439  27.154  0.00  0.00    +0.000 OA
ATOM     35  H   UNL     1     -13.940  -2.660  27.667  0.00  0.00    +0.000 HD
ENDBRANCH  28  34
BRANCH  29  36
ATOM     36  O   UNL     1     -14.267  -0.790  26.376  0.00  0.00    +0.000 OA
ATOM     37  H   UNL     1     -15.217  -0.606  26.515  0.00  0.00    +0.000 HD
ENDBRANCH  29  36
BRANCH  30  38
ATOM     38  O   UNL     1     -14.265  -4.806  24.907  0.00  0.00    +0.000 OA
ATOM     39  H   UNL     1     -14.889  -4.406  24.274  0.00  0.00    +0.000 HD
ENDBRANCH  30  38
ENDBRANCH  26  32
ENDBRANCH   3  26
TORSDOF 10
ENDMDL
MODEL 6
REMARK VINA RESULT:      -6.4      2.243      6.312
REMARK  Name = 
REMARK  11 active torsions:
REMARK  status: ('A' for Active; 'I' for Inactive)
REMARK    1  A    between atoms: O_2  and  C_16
REMARK    2  A    between atoms: O_2  and  C_18
REMARK    3  A    between atoms: O_3  and  C_12
REMARK    4  A    between atoms: O_4  and  C_13
REMARK    5  A    between atoms: O_5  and  C_14
REMARK    6  A    between atoms: O_8  and  C_24
REMARK    7  A    between atoms: O_9  and  C_29
REMARK    8  A    between atoms: O_10  and  C_30
REMARK    9  A    between atoms: O_11  and  C_32
REMARK   10  A    between atoms: C_15  and  C_17
REMARK   11  A    between atoms: C_19  and  C_23
REMARK                            x       y       z     vdW  Elec       q    Type
REMARK                         _______ _______ _______ _____ _____    ______ ____
ROOT
ATOM      1  O   UNL     1     -11.611  -5.362  22.407  0.00  0.00    +0.000 OA
ATOM      2  O   UNL     1     -12.852  -1.796  23.892  0.00  0.00    +0.000 OA
ATOM      3  C   UNL     1     -11.554  -2.950  22.292  0.00  0.00    +0.000 A 
ATOM      4  C   UNL     1     -11.274  -4.170  21.793  0.00  0.00    +0.000 A 
ATOM      5  C   UNL     1     -12.382  -2.867  23.530  0.00  0.00    +0.000 A 
ATOM      6  C   UNL     1     -12.622  -4.137  24.253  0.00  0.00    +0.000 A 
ATOM      7  C   UNL     1     -12.225  -5.321  23.631  0.00  0.00    +0.000 A 
ATOM      8  C   UNL     1     -13.236  -4.203  25.512  0.00  0.00    +0.000 A 
ATOM      9  C   UNL     1     -12.445  -6.556  24.246  0.00  0.00    +0.000 A 
ATOM     10  C   UNL     1     -13.456  -5.436  26.134  0.00  0.00    +0.000 A 
ATOM     11  C   UNL     1     -13.058  -6.604  25.490  0.00  0.00    +0.000 A 
ENDROOT
BRANCH   4  12
ATOM     12  C   UNL     1     -10.536  -4.368  20.528  0.00  0.00    +0.000 A 
ATOM     13  C   UNL     1      -9.417  -5.217  20.502  0.00  0.00    +0.000 A 
ATOM     14  C   UNL     1     -10.938  -3.727  19.342  0.00  0.00    +0.000 A 
ATOM     15  C   UNL     1      -8.710  -5.390  19.317  0.00  0.00    +0.000 A 
ATOM     16  C   UNL     1     -10.219  -3.903  18.157  0.00  0.00    +0.000 A 
ATOM     17  C   UNL     1      -9.108  -4.730  18.158  0.00  0.00    +0.000 A 
BRANCH  15  18
ATOM     18  O   UNL     1      -7.608  -6.197  19.242  0.00  0.00    +0.000 OA
ATOM     19  H   UNL     1      -7.443  -6.574  20.124  0.00  0.00    +0.000 HD
ENDBRANCH  15  18
BRANCH  17  20
ATOM     20  O   UNL     1      -8.403  -4.898  17.001  0.00  0.00    +0.000 OA
ATOM     21  H   UNL     1      -8.840  -5.648  16.549  0.00  0.00    +0.000 HD
ENDBRANCH  17  20
ENDBRANCH   4  12
BRANCH   8  22
ATOM     22  O   UNL     1     -13.611  -3.064  26.166  0.00  0.00    +0.000 OA
ATOM     23  H   UNL     1     -14.476  -3.173  26.592  0.00  0.00    +0.000 HD
ENDBRANCH   8  22
BRANCH  11  24
ATOM     24  O   UNL     1     -13.250  -7.830  26.052  0.00  0.00    +0.000 OA
ATOM     25  H   UNL     1     -13.110  -8.519  25.382  0.00  0.00    +0.000 HD
ENDBRANCH  11  24
BRANCH   3  26
ATOM     26  O   UNL     1     -11.209  -1.761  21.667  0.00  0.00    +0.000 OA
BRANCH  26  32
ATOM     27  O   UNL     1     -10.142  -0.368  23.296  0.00  0.00    +0.000 OA
ATOM     28  C   UNL     1      -9.866   0.792  20.671  0.00  0.00    +0.000 C 
ATOM     29  C   UNL     1     -10.045   1.657  21.924  0.00  0.00    +0.000 C 
ATOM     30  C   UNL     1      -9.212  -0.546  21.018  0.00  0.00    +0.000 C 
ATOM     31  C   UNL     1     -10.818   0.859  22.981  0.00  0.00    +0.000 C 
ATOM     32  C   UNL     1      -9.973  -1.236  22.172  0.00  0.00    +0.000 C 
ATOM     33  C   UNL     1     -10.964   1.643  24.281  0.00  0.00    +0.000 C 
BRANCH  28  34
ATOM     34  O   UNL     1      -9.044   1.514  19.733  0.00  0.00    +0.000 OA
ATOM     35  H   UNL     1      -9.280   2.456  19.867  0.00  0.00    +0.000 HD
ENDBRANCH  28  34
BRANCH  29  36
ATOM     36  O   UNL     1     -10.731   2.860  21.566  0.00  0.00    +0.000 OA
ATOM     37  H   UNL     1     -11.292   2.622  20.801  0.00  0.00    +0.000 HD
ENDBRANCH  29  36
BRANCH  30  38
ATOM     38  O   UNL     1      -7.834  -0.278  21.357  0.00  0.00    +0.000 OA
ATOM     39  H   UNL     1      -7.781  -0.220  22.329  0.00  0.00    +0.000 HD
ENDBRANCH  30  38
ENDBRANCH  26  32
ENDBRANCH   3  26
TORSDOF 10
ENDMDL
MODEL 7
REMARK VINA RESULT:      -6.2     15.452     17.953
REMARK  Name = 
REMARK  11 active torsions:
REMARK  status: ('A' for Active; 'I' for Inactive)
REMARK    1  A    between atoms: O_2  and  C_16
REMARK    2  A    between atoms: O_2  and  C_18
REMARK    3  A    between atoms: O_3  and  C_12
REMARK    4  A    between atoms: O_4  and  C_13
REMARK    5  A    between atoms: O_5  and  C_14
REMARK    6  A    between atoms: O_8  and  C_24
REMARK    7  A    between atoms: O_9  and  C_29
REMARK    8  A    between atoms: O_10  and  C_30
REMARK    9  A    between atoms: O_11  and  C_32
REMARK   10  A    between atoms: C_15  and  C_17
REMARK   11  A    between atoms: C_19  and  C_23
REMARK                            x       y       z     vdW  Elec       q    Type
REMARK                         _______ _______ _______ _____ _____    ______ ____
ROOT
ATOM      1  O   UNL     1     -22.570  -2.213  11.729  0.00  0.00    +0.000 OA
ATOM      2  O   UNL     1     -23.157  -1.728   7.743  0.00  0.00    +0.000 OA
ATOM      3  C   UNL     1     -23.074  -3.205   9.584  0.00  0.00    +0.000 A 
ATOM      4  C   UNL     1     -22.970  -3.266  10.926  0.00  0.00    +0.000 A 
ATOM      5  C   UNL     1     -22.855  -1.887   8.919  0.00  0.00    +0.000 A 
ATOM      6  C   UNL     1     -22.297  -0.804   9.761  0.00  0.00    +0.000 A 
ATOM      7  C   UNL     1     -22.200  -1.036  11.134  0.00  0.00    +0.000 A 
ATOM      8  C   UNL     1     -21.882   0.434   9.250  0.00  0.00    +0.000 A 
ATOM      9  C   UNL     1     -21.707  -0.048  11.989  0.00  0.00    +0.000 A 
ATOM     10  C   UNL     1     -21.385   1.426  10.101  0.00  0.00    +0.000 A 
ATOM     11  C   UNL     1     -21.305   1.174  11.467  0.00  0.00    +0.000 A 
ENDROOT
BRANCH   4  12
ATOM     12  C   UNL     1     -23.250  -4.496  11.696  0.00  0.00    +0.000 A 
ATOM     13  C   UNL     1     -22.204  -5.143  12.377  0.00  0.00    +0.000 A 
ATOM     14  C   UNL     1     -24.548  -5.033  11.767  0.00  0.00    +0.000 A 
ATOM     15  C   UNL     1     -22.460  -6.311  13.085  0.00  0.00    +0.000 A 
ATOM     16  C   UNL     1     -24.796  -6.210  12.477  0.00  0.00    +0.000 A 
ATOM     17  C   UNL     1     -23.747  -6.840  13.127  0.00  0.00    +0.000 A 
BRANCH  15  18
ATOM     18  O   UNL     1     -21.476  -6.982  13.756  0.00  0.00    +0.000 OA
ATOM     19  H   UNL     1     -21.579  -7.934  13.582  0.00  0.00    +0.000 HD
ENDBRANCH  15  18
BRANCH  17  20
ATOM     20  O   UNL     1     -23.989  -7.992  13.817  0.00  0.00    +0.000 OA
ATOM     21  H   UNL     1     -24.600  -8.502  13.247  0.00  0.00    +0.000 HD
ENDBRANCH  17  20
ENDBRANCH   4  12
BRANCH   8  22
ATOM     22  O   UNL     1     -21.934   0.688   7.909  0.00  0.00    +0.000 OA
ATOM     23  H   UNL     1     -22.812   0.486   7.548  0.00  0.00    +0.000 HD
ENDBRANCH   8  22
BRANCH  11  24
ATOM     24  O   UNL     1     -20.828   2.106  12.338  0.00  0.00    +0.000 OA
ATOM     25  H   UNL     1     -20.365   1.662  13.068  0.00  0.00    +0.000 HD
ENDBRANCH  11  24
BRANCH   3  26
ATOM     26  O   UNL     1     -23.475  -4.268   8.790  0.00  0.00    +0.000 OA
BRANCH  26  32
ATOM     27  O   UNL     1     -22.803  -5.178   6.679  0.00  0.00    +0.000 OA
ATOM     28  C   UNL     1     -22.535  -7.172   8.745  0.00  0.00    +0.000 C 
ATOM     29  C   UNL     1     -22.962  -7.535   7.318  0.00  0.00    +0.000 C 
ATOM     30  C   UNL     1     -21.682  -5.902   8.754  0.00  0.00    +0.000 C 
ATOM     31  C   UNL     1     -23.660  -6.330   6.677  0.00  0.00    +0.000 C 
ATOM     32  C   UNL     1     -22.395  -4.767   7.987  0.00  0.00    +0.000 C 
ATOM     33  C   UNL     1     -24.044  -6.608   5.229  0.00  0.00    +0.000 C 
BRANCH  28  34
ATOM     34  O   UNL     1     -21.785  -8.274   9.291  0.00  0.00    +0.000 OA
ATOM     35  H   UNL     1     -22.377  -8.672   9.962  0.00  0.00    +0.000 HD
ENDBRANCH  28  34
BRANCH  29  36
ATOM     36  O   UNL     1     -23.821  -8.679   7.366  0.00  0.00    +0.000 OA
ATOM     37  H   UNL     1     -24.498  -8.525   6.677  0.00  0.00    +0.000 HD
ENDBRANCH  29  36
BRANCH  30  38
ATOM     38  O   UNL     1     -20.405  -6.236   8.170  0.00  0.00    +0.000 OA
ATOM     39  H   UNL     1     -19.918  -6.772   8.822  0.00  0.00    +0.000 HD
ENDBRANCH  30  38
ENDBRANCH  26  32
ENDBRANCH   3  26
TORSDOF 10
ENDMDL
MODEL 8
REMARK VINA RESULT:      -6.2      3.362      6.199
REMARK  Name = 
REMARK  11 active torsions:
REMARK  status: ('A' for Active; 'I' for Inactive)
REMARK    1  A    between atoms: O_2  and  C_16
REMARK    2  A    between atoms: O_2  and  C_18
REMARK    3  A    between atoms: O_3  and  C_12
REMARK    4  A    between atoms: O_4  and  C_13
REMARK    5  A    between atoms: O_5  and  C_14
REMARK    6  A    between atoms: O_8  and  C_24
REMARK    7  A    between atoms: O_9  and  C_29
REMARK    8  A    between atoms: O_10  and  C_30
REMARK    9  A    between atoms: O_11  and  C_32
REMARK   10  A    between atoms: C_15  and  C_17
REMARK   11  A    between atoms: C_19  and  C_23
REMARK                            x       y       z     vdW  Elec       q    Type
REMARK                         _______ _______ _______ _____ _____    ______ ____
ROOT
ATOM      1  O   UNL     1      -9.273   0.464  20.112  0.00  0.00    +0.000 OA
ATOM      2  O   UNL     1     -10.730   1.612  23.721  0.00  0.00    +0.000 OA
ATOM      3  C   UNL     1     -10.243  -0.158  22.236  0.00  0.00    +0.000 A 
ATOM      4  C   UNL     1      -9.648  -0.464  21.066  0.00  0.00    +0.000 A 
ATOM      5  C   UNL     1     -10.410   1.283  22.586  0.00  0.00    +0.000 A 
ATOM      6  C   UNL     1     -10.134   2.263  21.511  0.00  0.00    +0.000 A 
ATOM      7  C   UNL     1      -9.565   1.785  20.330  0.00  0.00    +0.000 A 
ATOM      8  C   UNL     1     -10.403   3.634  21.631  0.00  0.00    +0.000 A 
ATOM      9  C   UNL     1      -9.256   2.659  19.285  0.00  0.00    +0.000 A 
ATOM     10  C   UNL     1     -10.098   4.514  20.587  0.00  0.00    +0.000 A 
ATOM     11  C   UNL     1      -9.524   4.014  19.422  0.00  0.00    +0.000 A 
ENDROOT
BRANCH   4  12
ATOM     12  C   UNL     1      -9.354  -1.854  20.656  0.00  0.00    +0.000 A 
ATOM     13  C   UNL     1      -9.956  -2.379  19.499  0.00  0.00    +0.000 A 
ATOM     14  C   UNL     1      -8.476  -2.663  21.400  0.00  0.00    +0.000 A 
ATOM     15  C   UNL     1      -9.696  -3.692  19.123  0.00  0.00    +0.000 A 
ATOM     16  C   UNL     1      -8.224  -3.982  21.017  0.00  0.00    +0.000 A 
ATOM     17  C   UNL     1      -8.841  -4.485  19.883  0.00  0.00    +0.000 A 
BRANCH  15  18
ATOM     18  O   UNL     1     -10.263  -4.252  18.012  0.00  0.00    +0.000 OA
ATOM     19  H   UNL     1     -11.230  -4.161  18.081  0.00  0.00    +0.000 HD
ENDBRANCH  15  18
BRANCH  17  20
ATOM     20  O   UNL     1      -8.599  -5.776  19.511  0.00  0.00    +0.000 OA
ATOM     21  H   UNL     1      -8.526  -5.746  18.536  0.00  0.00    +0.000 HD
ENDBRANCH  17  20
ENDBRANCH   4  12
BRANCH   8  22
ATOM     22  O   UNL     1     -10.986   4.135  22.759  0.00  0.00    +0.000 OA
ATOM     23  H   UNL     1     -11.060   3.455  23.447  0.00  0.00    +0.000 HD
ENDBRANCH   8  22
BRANCH  11  24
ATOM     24  O   UNL     1      -9.207   4.828  18.376  0.00  0.00    +0.000 OA
ATOM     25  H   UNL     1      -8.549   4.390  17.812  0.00  0.00    +0.000 HD
ENDBRANCH  11  24
BRANCH   3  26
ATOM     26  O   UNL     1     -10.615  -1.099  23.183  0.00  0.00    +0.000 OA
BRANCH  26  32
ATOM     27  O   UNL     1     -12.958  -0.862  23.619  0.00  0.00    +0.000 OA
ATOM     28  C   UNL     1     -11.972  -3.292  24.816  0.00  0.00    +0.000 C 
ATOM     29  C   UNL     1     -13.067  -2.449  25.479  0.00  0.00    +0.000 C 
ATOM     30  C   UNL     1     -11.978  -3.103  23.299  0.00  0.00    +0.000 C 
ATOM     31  C   UNL     1     -12.908  -0.986  25.049  0.00  0.00    +0.000 C 
ATOM     32  C   UNL     1     -11.938  -1.600  22.941  0.00  0.00    +0.000 C 
ATOM     33  C   UNL     1     -14.016  -0.108  25.619  0.00  0.00    +0.000 C 
BRANCH  28  34
ATOM     34  O   UNL     1     -12.203  -4.676  25.141  0.00  0.00    +0.000 OA
ATOM     35  H   UNL     1     -11.540  -5.171  24.615  0.00  0.00    +0.000 HD
ENDBRANCH  28  34
BRANCH  29  36
ATOM     36  O   UNL     1     -12.972  -2.594  26.899  0.00  0.00    +0.000 OA
ATOM     37  H   UNL     1     -13.872  -2.833  27.197  0.00  0.00    +0.000 HD
ENDBRANCH  29  36
BRANCH  30  38
ATOM     38  O   UNL     1     -13.161  -3.753  22.787  0.00  0.00    +0.000 OA
ATOM     39  H   UNL     1     -13.589  -3.132  22.170  0.00  0.00    +0.000 HD
ENDBRANCH  30  38
ENDBRANCH  26  32
ENDBRANCH   3  26
TORSDOF 10
ENDMDL
MODEL 9
REMARK VINA RESULT:      -6.1     19.025     22.817
REMARK  Name = 
REMARK  11 active torsions:
REMARK  status: ('A' for Active; 'I' for Inactive)
REMARK    1  A    between atoms: O_2  and  C_16
REMARK    2  A    between atoms: O_2  and  C_18
REMARK    3  A    between atoms: O_3  and  C_12
REMARK    4  A    between atoms: O_4  and  C_13
REMARK    5  A    between atoms: O_5  and  C_14
REMARK    6  A    between atoms: O_8  and  C_24
REMARK    7  A    between atoms: O_9  and  C_29
REMARK    8  A    between atoms: O_10  and  C_30
REMARK    9  A    between atoms: O_11  and  C_32
REMARK   10  A    between atoms: C_15  and  C_17
REMARK   11  A    between atoms: C_19  and  C_23
REMARK                            x       y       z     vdW  Elec       q    Type
REMARK                         _______ _______ _______ _____ _____    ______ ____
ROOT
ATOM      1  O   UNL     1     -14.431 -13.987   5.091  0.00  0.00    +0.000 OA
ATOM      2  O   UNL     1     -16.766 -12.888   1.960  0.00  0.00    +0.000 OA
ATOM      3  C   UNL     1     -14.610 -13.449   2.743  0.00  0.00    +0.000 A 
ATOM      4  C   UNL     1     -13.925 -13.913   3.807  0.00  0.00    +0.000 A 
ATOM      5  C   UNL     1     -16.047 -13.094   2.930  0.00  0.00    +0.000 A 
ATOM      6  C   UNL     1     -16.542 -13.045   4.325  0.00  0.00    +0.000 A 
ATOM      7  C   UNL     1     -15.693 -13.511   5.330  0.00  0.00    +0.000 A 
ATOM      8  C   UNL     1     -17.814 -12.570   4.674  0.00  0.00    +0.000 A 
ATOM      9  C   UNL     1     -16.107 -13.518   6.664  0.00  0.00    +0.000 A 
ATOM     10  C   UNL     1     -18.232 -12.571   6.009  0.00  0.00    +0.000 A 
ATOM     11  C   UNL     1     -17.371 -13.048   6.992  0.00  0.00    +0.000 A 
ENDROOT
BRANCH   4  12
ATOM     12  C   UNL     1     -12.523 -14.374   3.717  0.00  0.00    +0.000 A 
ATOM     13  C   UNL     1     -11.478 -13.478   4.000  0.00  0.00    +0.000 A 
ATOM     14  C   UNL     1     -12.213 -15.699   3.360  0.00  0.00    +0.000 A 
ATOM     15  C   UNL     1     -10.158 -13.905   3.898  0.00  0.00    +0.000 A 
ATOM     16  C   UNL     1     -10.884 -16.117   3.256  0.00  0.00    +0.000 A 
ATOM     17  C   UNL     1      -9.869 -15.213   3.522  0.00  0.00    +0.000 A 
BRANCH  15  18
ATOM     18  O   UNL     1      -9.106 -13.069   4.153  0.00  0.00    +0.000 OA
ATOM     19  H   UNL     1      -9.322 -12.187   3.805  0.00  0.00    +0.000 HD
ENDBRANCH  15  18
BRANCH  17  20
ATOM     20  O   UNL     1      -8.571 -15.621   3.416  0.00  0.00    +0.000 OA
ATOM     21  H   UNL     1      -8.414 -16.167   4.213  0.00  0.00    +0.000 HD
ENDBRANCH  17  20
ENDBRANCH   4  12
BRANCH   8  22
ATOM     22  O   UNL     1     -18.661 -12.078   3.724  0.00  0.00    +0.000 OA
ATOM     23  H   UNL     1     -19.574 -12.050   4.049  0.00  0.00    +0.000 HD
ENDBRANCH   8  22
BRANCH  11  24
ATOM     24  O   UNL     1     -17.730 -13.071   8.306  0.00  0.00    +0.000 OA
ATOM     25  H   UNL     1     -18.412 -13.750   8.445  0.00  0.00    +0.000 HD
ENDBRANCH  11  24
BRANCH   3  26
ATOM     26  O   UNL     1     -14.090 -13.379   1.459  0.00  0.00    +0.000 OA
BRANCH  26  32
ATOM     27  O   UNL     1     -14.415 -11.819  -0.329  0.00  0.00    +0.000 OA
ATOM     28  C   UNL     1     -11.597 -12.206   0.145  0.00  0.00    +0.000 C 
ATOM     29  C   UNL     1     -12.158 -11.979  -1.263  0.00  0.00    +0.000 C 
ATOM     30  C   UNL     1     -12.497 -11.567   1.203  0.00  0.00    +0.000 C 
ATOM     31  C   UNL     1     -13.607 -12.478  -1.316  0.00  0.00    +0.000 C 
ATOM     32  C   UNL     1     -13.962 -12.021   1.013  0.00  0.00    +0.000 C 
ATOM     33  C   UNL     1     -14.244 -12.212  -2.675  0.00  0.00    +0.000 C 
BRANCH  28  34
ATOM     34  O   UNL     1     -10.278 -11.632   0.208  0.00  0.00    +0.000 OA
ATOM     35  H   UNL     1     -10.251 -11.159   1.067  0.00  0.00    +0.000 HD
ENDBRANCH  28  34
BRANCH  29  36
ATOM     36  O   UNL     1     -11.330 -12.661  -2.210  0.00  0.00    +0.000 OA
ATOM     37  H   UNL     1     -11.919 -12.879  -2.960  0.00  0.00    +0.000 HD
ENDBRANCH  29  36
BRANCH  30  38
ATOM     38  O   UNL     1     -12.352 -10.135   1.085  0.00  0.00    +0.000 OA
ATOM     39  H   UNL     1     -12.005  -9.808   1.935  0.00  0.00    +0.000 HD
ENDBRANCH  30  38
ENDBRANCH  26  32
ENDBRANCH   3  26
TORSDOF 10
ENDMDL
