MODEL 1
REMARK VINA RESULT:      -6.4      0.000      0.000
REMARK  Name = 
REMARK  14 active torsions:
REMARK  status: ('A' for Active; 'I' for Inactive)
REMARK    1  A    between atoms: O_1  and  C_24
REMARK    2  A    between atoms: O_1  and  C_36
REMARK    3  A    between atoms: O_4  and  C_30
REMARK    4  A    between atoms: O_4  and  C_37
REMARK    5  A    between atoms: O_7  and  C_33
REMARK    6  A    between atoms: O_7  and  C_38
REMARK    7  A    between atoms: N_10  and  C_23
REMARK    8  A    between atoms: C_15  and  C_26
REMARK    9  A    between atoms: C_16  and  C_24
REMARK   10  A    between atoms: C_31  and  C_34
REMARK   11  A    between atoms: C_32  and  C_35
REMARK   12  A    between atoms: C_36  and  C_39
REMARK   13  A    between atoms: C_39  and  C_40
REMARK   14  A    between atoms: C_41  and  C_42
REMARK                            x       y       z     vdW  Elec       q    Type
REMARK                         _______ _______ _______ _____ _____    ______ ____
ROOT
ATOM      1  O   UNL     1      -7.721  -4.917  21.215  0.00  0.00    +0.000 OA
ATOM      2  O   UNL     1      -9.972  -0.326  19.761  0.00  0.00    +0.000 OA
ATOM      3  O   UNL     1      -9.579  -7.093  24.897  0.00  0.00    +0.000 OA
ATOM      4  O   UNL     1     -11.574  -3.170  27.880  0.00  0.00    +0.000 OA
ATOM      5  N   UNL     1      -9.194  -2.044  24.530  0.00  0.00    +0.000 NA
ATOM      6  N   UNL     1      -6.595  -1.496  23.277  0.00  0.00    +0.000 NA
ATOM      7  C   UNL     1      -8.198  -3.113  24.259  0.00  0.00    +0.000 C 
ATOM      8  C   UNL     1      -7.305  -2.775  22.989  0.00  0.00    +0.000 C 
ATOM      9  C   UNL     1      -7.599  -0.409  23.398  0.00  0.00    +0.000 C 
ATOM     10  C   UNL     1      -8.548  -0.695  24.621  0.00  0.00    +0.000 C 
ATOM     11  C   UNL     1     -10.167  -2.314  25.626  0.00  0.00    +0.000 C 
ATOM     12  C   UNL     1      -8.891  -4.484  24.108  0.00  0.00    +0.000 C 
ATOM     13  C   UNL     1      -8.421  -0.223  22.092  0.00  0.00    +0.000 C 
ATOM     14  C   UNL     1      -8.149  -2.669  21.727  0.00  0.00    +0.000 C 
ATOM     15  C   UNL     1      -8.676  -1.500  21.333  0.00  0.00    +0.000 C 
ATOM     16  C   UNL     1     -10.362  -3.784  25.963  0.00  0.00    +0.000 C 
ATOM     17  C   UNL     1      -9.803  -4.777  25.260  0.00  0.00    +0.000 C 
ATOM     18  C   UNL     1      -5.511  -1.206  22.343  0.00  0.00    +0.000 C 
ATOM     19  C   UNL     1      -8.321  -3.892  20.909  0.00  0.00    +0.000 C 
ATOM     20  C   UNL     1      -9.505  -1.403  20.113  0.00  0.00    +0.000 C 
ATOM     21  C   UNL     1     -10.057  -6.198  25.585  0.00  0.00    +0.000 C 
ATOM     22  C   UNL     1     -11.178  -4.087  27.167  0.00  0.00    +0.000 C 
ATOM     23  C   UNL     1      -9.236  -3.822  19.723  0.00  0.00    +0.000 C 
ATOM     24  C   UNL     1      -9.766  -2.648  19.345  0.00  0.00    +0.000 C 
ATOM     25  C   UNL     1     -10.933  -6.505  26.742  0.00  0.00    +0.000 C 
ATOM     26  C   UNL     1     -11.480  -5.523  27.477  0.00  0.00    +0.000 C 
ATOM     27  C   UNL     1     -10.647  -2.473  18.142  0.00  0.00    +0.000 C 
ATOM     28  C   UNL     1     -11.148  -7.968  27.003  0.00  0.00    +0.000 C 
ENDROOT
BRANCH  23  29
ATOM     29  O   UNL     1      -9.499  -4.954  18.959  0.00  0.00    +0.000 OA
ATOM     30  C   UNL     1      -8.489  -5.307  18.018  0.00  0.00    +0.000 C 
ENDBRANCH  23  29
BRANCH  26  31
ATOM     31  O   UNL     1     -12.276  -5.860  28.566  0.00  0.00    +0.000 OA
ATOM     32  C   UNL     1     -11.597  -5.899  29.820  0.00  0.00    +0.000 C 
ENDBRANCH  26  31
BRANCH  10  34
ATOM     33  N   UNL     1      -7.202  -0.309  26.874  0.00  0.00    +0.000 NA
ATOM     34  C   UNL     1      -7.784  -0.459  25.881  0.00  0.00    +0.000 C 
ENDBRANCH  10  34
BRANCH  11  35
ATOM     35  C   UNL     1     -11.527  -1.679  25.209  0.00  0.00    +0.000 C 
BRANCH  35  36
ATOM     36  O   UNL     1     -11.834  -2.065  23.853  0.00  0.00    +0.000 OA
BRANCH  36  38
ATOM     37  O   UNL     1     -14.000  -1.767  23.169  0.00  0.00    +0.000 OA
ATOM     38  C   UNL     1     -13.114  -2.456  23.648  0.00  0.00    +0.000 C 
BRANCH  38  39
ATOM     39  C   UNL     1     -13.277  -3.904  23.963  0.00  0.00    +0.000 C 
ATOM     40  C   UNL     1     -14.075  -4.154  25.211  0.00  0.00    +0.000 C 
ATOM     41  C   UNL     1     -12.763  -4.914  23.234  0.00  0.00    +0.000 C 
ATOM     42  C   UNL     1     -11.871  -4.835  22.036  0.00  0.00    +0.000 C 
ENDBRANCH  38  39
ENDBRANCH  36  38
ENDBRANCH  35  36
ENDBRANCH  11  35
TORSDOF 7
ENDMDL
MODEL 2
REMARK VINA RESULT:      -6.0      2.351      4.747
REMARK  Name = 
REMARK  14 active torsions:
REMARK  status: ('A' for Active; 'I' for Inactive)
REMARK    1  A    between atoms: O_1  and  C_24
REMARK    2  A    between atoms: O_1  and  C_36
REMARK    3  A    between atoms: O_4  and  C_30
REMARK    4  A    between atoms: O_4  and  C_37
REMARK    5  A    between atoms: O_7  and  C_33
REMARK    6  A    between atoms: O_7  and  C_38
REMARK    7  A    between atoms: N_10  and  C_23
REMARK    8  A    between atoms: C_15  and  C_26
REMARK    9  A    between atoms: C_16  and  C_24
REMARK   10  A    between atoms: C_31  and  C_34
REMARK   11  A    between atoms: C_32  and  C_35
REMARK   12  A    between atoms: C_36  and  C_39
REMARK   13  A    between atoms: C_39  and  C_40
REMARK   14  A    between atoms: C_41  and  C_42
REMARK                            x       y       z     vdW  Elec       q    Type
REMARK                         _______ _______ _______ _____ _____    ______ ____
ROOT
ATOM      1  O   UNL     1      -7.856  -0.271  25.921  0.00  0.00    +0.000 OA
ATOM      2  O   UNL     1     -10.590   1.219  21.612  0.00  0.00    +0.000 OA
ATOM      3  O   UNL     1      -7.717  -4.840  26.844  0.00  0.00    +0.000 OA
ATOM      4  O   UNL     1     -12.283  -6.723  24.873  0.00  0.00    +0.000 OA
ATOM      5  N   UNL     1     -11.796  -2.491  24.942  0.00  0.00    +0.000 NA
ATOM      6  N   UNL     1     -11.971   0.107  26.302  0.00  0.00    +0.000 NA
ATOM      7  C   UNL     1     -10.906  -2.121  26.072  0.00  0.00    +0.000 C 
ATOM      8  C   UNL     1     -10.646  -0.555  26.127  0.00  0.00    +0.000 C 
ATOM      9  C   UNL     1     -12.796  -0.150  25.094  0.00  0.00    +0.000 C 
ATOM     10  C   UNL     1     -13.066  -1.695  24.953  0.00  0.00    +0.000 C 
ATOM     11  C   UNL     1     -12.009  -3.948  24.721  0.00  0.00    +0.000 C 
ATOM     12  C   UNL     1      -9.579  -2.907  26.007  0.00  0.00    +0.000 C 
ATOM     13  C   UNL     1     -12.139   0.417  23.804  0.00  0.00    +0.000 C 
ATOM     14  C   UNL     1      -9.942  -0.063  24.870  0.00  0.00    +0.000 C 
ATOM     15  C   UNL     1     -10.632   0.361  23.801  0.00  0.00    +0.000 C 
ATOM     16  C   UNL     1     -10.931  -4.849  25.304  0.00  0.00    +0.000 C 
ATOM     17  C   UNL     1      -9.811  -4.381  25.869  0.00  0.00    +0.000 C 
ATOM     18  C   UNL     1     -11.877   1.516  26.672  0.00  0.00    +0.000 C 
ATOM     19  C   UNL     1      -8.462  -0.007  24.888  0.00  0.00    +0.000 C 
ATOM     20  C   UNL     1      -9.945   0.827  22.578  0.00  0.00    +0.000 C 
ATOM     21  C   UNL     1      -8.760  -5.288  26.379  0.00  0.00    +0.000 C 
ATOM     22  C   UNL     1     -11.197  -6.311  25.270  0.00  0.00    +0.000 C 
ATOM     23  C   UNL     1      -7.757   0.376  23.620  0.00  0.00    +0.000 C 
ATOM     24  C   UNL     1      -8.460   0.787  22.552  0.00  0.00    +0.000 C 
ATOM     25  C   UNL     1      -8.988  -6.750  26.277  0.00  0.00    +0.000 C 
ATOM     26  C   UNL     1     -10.118  -7.239  25.741  0.00  0.00    +0.000 C 
ATOM     27  C   UNL     1      -7.839   1.240  21.263  0.00  0.00    +0.000 C 
ATOM     28  C   UNL     1      -7.873  -7.603  26.809  0.00  0.00    +0.000 C 
ENDROOT
BRANCH  23  29
ATOM     29  O   UNL     1      -6.369   0.372  23.548  0.00  0.00    +0.000 OA
ATOM     30  C   UNL     1      -5.767  -0.906  23.365  0.00  0.00    +0.000 C 
ENDBRANCH  23  29
BRANCH  26  31
ATOM     31  O   UNL     1     -10.296  -8.618  25.689  0.00  0.00    +0.000 OA
ATOM     32  C   UNL     1     -11.061  -9.167  26.760  0.00  0.00    +0.000 C 
ENDBRANCH  26  31
BRANCH  10  34
ATOM     33  N   UNL     1     -14.774  -2.438  26.842  0.00  0.00    +0.000 NA
ATOM     34  C   UNL     1     -14.043  -2.104  26.004  0.00  0.00    +0.000 C 
ENDBRANCH  10  34
BRANCH  11  35
ATOM     35  C   UNL     1     -12.119  -4.177  23.184  0.00  0.00    +0.000 C 
BRANCH  35  36
ATOM     36  O   UNL     1     -11.328  -3.183  22.500  0.00  0.00    +0.000 OA
BRANCH  36  38
ATOM     37  O   UNL     1     -11.143  -4.489  20.627  0.00  0.00    +0.000 OA
ATOM     38  C   UNL     1     -10.721  -3.618  21.370  0.00  0.00    +0.000 C 
BRANCH  38  39
ATOM     39  C   UNL     1      -9.517  -2.792  21.069  0.00  0.00    +0.000 C 
ATOM     40  C   UNL     1      -9.741  -1.796  19.966  0.00  0.00    +0.000 C 
ATOM     41  C   UNL     1      -8.327  -2.908  21.691  0.00  0.00    +0.000 C 
ATOM     42  C   UNL     1      -7.913  -3.906  22.726  0.00  0.00    +0.000 C 
ENDBRANCH  38  39
ENDBRANCH  36  38
ENDBRANCH  35  36
ENDBRANCH  11  35
TORSDOF 7
ENDMDL
MODEL 3
REMARK VINA RESULT:      -6.0      2.257      7.219
REMARK  Name = 
REMARK  14 active torsions:
REMARK  status: ('A' for Active; 'I' for Inactive)
REMARK    1  A    between atoms: O_1  and  C_24
REMARK    2  A    between atoms: O_1  and  C_36
REMARK    3  A    between atoms: O_4  and  C_30
REMARK    4  A    between atoms: O_4  and  C_37
REMARK    5  A    between atoms: O_7  and  C_33
REMARK    6  A    between atoms: O_7  and  C_38
REMARK    7  A    between atoms: N_10  and  C_23
REMARK    8  A    between atoms: C_15  and  C_26
REMARK    9  A    between atoms: C_16  and  C_24
REMARK   10  A    between atoms: C_31  and  C_34
REMARK   11  A    between atoms: C_32  and  C_35
REMARK   12  A    between atoms: C_36  and  C_39
REMARK   13  A    between atoms: C_39  and  C_40
REMARK   14  A    between atoms: C_41  and  C_42
REMARK                            x       y       z     vdW  Elec       q    Type
REMARK                         _______ _______ _______ _____ _____    ______ ____
ROOT
ATOM      1  O   UNL     1     -12.516  -7.168  24.766  0.00  0.00    +0.000 OA
ATOM      2  O   UNL     1     -10.389  -5.348  29.286  0.00  0.00    +0.000 OA
ATOM      3  O   UNL     1     -11.299  -4.970  20.838  0.00  0.00    +0.000 OA
ATOM      4  O   UNL     1     -10.294   0.020  22.374  0.00  0.00    +0.000 OA
ATOM      5  N   UNL     1     -12.005  -2.597  25.269  0.00  0.00    +0.000 NA
ATOM      6  N   UNL     1     -14.321  -3.880  26.541  0.00  0.00    +0.000 NA
ATOM      7  C   UNL     1     -12.833  -3.617  24.575  0.00  0.00    +0.000 C 
ATOM      8  C   UNL     1     -13.465  -4.655  25.598  0.00  0.00    +0.000 C 
ATOM      9  C   UNL     1     -13.455  -2.969  27.334  0.00  0.00    +0.000 C 
ATOM     10  C   UNL     1     -12.762  -1.928  26.376  0.00  0.00    +0.000 C 
ATOM     11  C   UNL     1     -11.264  -1.645  24.395  0.00  0.00    +0.000 C 
ATOM     12  C   UNL     1     -12.015  -4.335  23.481  0.00  0.00    +0.000 C 
ATOM     13  C   UNL     1     -12.396  -3.745  28.166  0.00  0.00    +0.000 C 
ATOM     14  C   UNL     1     -12.387  -5.434  26.339  0.00  0.00    +0.000 C 
ATOM     15  C   UNL     1     -11.886  -5.000  27.505  0.00  0.00    +0.000 C 
ATOM     16  C   UNL     1     -11.026  -2.132  22.975  0.00  0.00    +0.000 C 
ATOM     17  C   UNL     1     -11.343  -3.364  22.559  0.00  0.00    +0.000 C 
ATOM     18  C   UNL     1     -15.206  -4.714  27.349  0.00  0.00    +0.000 C 
ATOM     19  C   UNL     1     -11.950  -6.725  25.760  0.00  0.00    +0.000 C 
ATOM     20  C   UNL     1     -10.831  -5.753  28.216  0.00  0.00    +0.000 C 
ATOM     21  C   UNL     1     -11.049  -3.821  21.183  0.00  0.00    +0.000 C 
ATOM     22  C   UNL     1     -10.457  -1.144  22.021  0.00  0.00    +0.000 C 
ATOM     23  C   UNL     1     -10.816  -7.447  26.426  0.00  0.00    +0.000 C 
ATOM     24  C   UNL     1     -10.315  -6.996  27.587  0.00  0.00    +0.000 C 
ATOM     25  C   UNL     1     -10.412  -2.861  20.249  0.00  0.00    +0.000 C 
ATOM     26  C   UNL     1     -10.112  -1.611  20.638  0.00  0.00    +0.000 C 
ATOM     27  C   UNL     1      -9.220  -7.681  28.351  0.00  0.00    +0.000 C 
ATOM     28  C   UNL     1     -10.139  -3.401  18.875  0.00  0.00    +0.000 C 
ENDROOT
BRANCH  23  29
ATOM     29  O   UNL     1     -10.308  -8.624  25.889  0.00  0.00    +0.000 OA
ATOM     30  C   UNL     1     -11.028  -9.810  26.219  0.00  0.00    +0.000 C 
ENDBRANCH  23  29
BRANCH  26  31
ATOM     31  O   UNL     1      -9.536  -0.739  19.719  0.00  0.00    +0.000 OA
ATOM     32  C   UNL     1      -9.594   0.640  20.078  0.00  0.00    +0.000 C 
ENDBRANCH  26  31
BRANCH  10  34
ATOM     33  N   UNL     1     -14.610  -0.214  25.550  0.00  0.00    +0.000 NA
ATOM     34  C   UNL     1     -13.789  -0.947  25.919  0.00  0.00    +0.000 C 
ENDBRANCH  10  34
BRANCH  11  35
ATOM     35  C   UNL     1      -9.902  -1.338  25.088  0.00  0.00    +0.000 C 
BRANCH  35  36
ATOM     36  O   UNL     1      -9.338  -2.568  25.589  0.00  0.00    +0.000 OA
BRANCH  36  38
ATOM     37  O   UNL     1      -7.058  -2.358  25.583  0.00  0.00    +0.000 OA
ATOM     38  C   UNL     1      -8.089  -2.843  25.148  0.00  0.00    +0.000 C 
BRANCH  38  39
ATOM     39  C   UNL     1      -8.119  -3.934  24.132  0.00  0.00    +0.000 C 
ATOM     40  C   UNL     1      -8.650  -5.232  24.670  0.00  0.00    +0.000 C 
ATOM     41  C   UNL     1      -7.705  -3.811  22.855  0.00  0.00    +0.000 C 
ATOM     42  C   UNL     1      -7.064  -2.630  22.197  0.00  0.00    +0.000 C 
ENDBRANCH  38  39
ENDBRANCH  36  38
ENDBRANCH  35  36
ENDBRANCH  11  35
TORSDOF 7
ENDMDL
MODEL 4
REMARK VINA RESULT:      -5.7      2.625      5.740
REMARK  Name = 
REMARK  14 active torsions:
REMARK  status: ('A' for Active; 'I' for Inactive)
REMARK    1  A    between atoms: O_1  and  C_24
REMARK    2  A    between atoms: O_1  and  C_36
REMARK    3  A    between atoms: O_4  and  C_30
REMARK    4  A    between atoms: O_4  and  C_37
REMARK    5  A    between atoms: O_7  and  C_33
REMARK    6  A    between atoms: O_7  and  C_38
REMARK    7  A    between atoms: N_10  and  C_23
REMARK    8  A    between atoms: C_15  and  C_26
REMARK    9  A    between atoms: C_16  and  C_24
REMARK   10  A    between atoms: C_31  and  C_34
REMARK   11  A    between atoms: C_32  and  C_35
REMARK   12  A    between atoms: C_36  and  C_39
REMARK   13  A    between atoms: C_39  and  C_40
REMARK   14  A    between atoms: C_41  and  C_42
REMARK                            x       y       z     vdW  Elec       q    Type
REMARK                         _______ _______ _______ _____ _____    ______ ____
ROOT
ATOM      1  O   UNL     1      -9.848   0.523  20.883  0.00  0.00    +0.000 OA
ATOM      2  O   UNL     1      -5.582  -2.081  22.696  0.00  0.00    +0.000 OA
ATOM      3  O   UNL     1     -13.432   0.989  23.829  0.00  0.00    +0.000 OA
ATOM      4  O   UNL     1     -13.121  -3.286  26.974  0.00  0.00    +0.000 OA
ATOM      5  N   UNL     1     -10.513  -3.158  23.606  0.00  0.00    +0.000 NA
ATOM      6  N   UNL     1      -9.944  -3.624  20.763  0.00  0.00    +0.000 NA
ATOM      7  C   UNL     1     -11.153  -2.366  22.524  0.00  0.00    +0.000 C 
ATOM      8  C   UNL     1     -10.211  -2.241  21.252  0.00  0.00    +0.000 C 
ATOM      9  C   UNL     1      -9.171  -4.356  21.799  0.00  0.00    +0.000 C 
ATOM     10  C   UNL     1     -10.034  -4.488  23.110  0.00  0.00    +0.000 C 
ATOM     11  C   UNL     1     -11.258  -3.236  24.894  0.00  0.00    +0.000 C 
ATOM     12  C   UNL     1     -11.584  -0.977  23.042  0.00  0.00    +0.000 C 
ATOM     13  C   UNL     1      -7.806  -3.677  22.101  0.00  0.00    +0.000 C 
ATOM     14  C   UNL     1      -8.917  -1.511  21.586  0.00  0.00    +0.000 C 
ATOM     15  C   UNL     1      -7.825  -2.173  21.996  0.00  0.00    +0.000 C 
ATOM     16  C   UNL     1     -12.268  -2.122  25.119  0.00  0.00    +0.000 C 
ATOM     17  C   UNL     1     -12.404  -1.078  24.292  0.00  0.00    +0.000 C 
ATOM     18  C   UNL     1      -9.347  -3.669  19.431  0.00  0.00    +0.000 C 
ATOM     19  C   UNL     1      -8.883  -0.044  21.385  0.00  0.00    +0.000 C 
ATOM     20  C   UNL     1      -6.575  -1.461  22.331  0.00  0.00    +0.000 C 
ATOM     21  C   UNL     1     -13.361   0.016  24.570  0.00  0.00    +0.000 C 
ATOM     22  C   UNL     1     -13.161  -2.263  26.299  0.00  0.00    +0.000 C 
ATOM     23  C   UNL     1      -7.650   0.696  21.811  0.00  0.00    +0.000 C 
ATOM     24  C   UNL     1      -6.567   0.022  22.230  0.00  0.00    +0.000 C 
ATOM     25  C   UNL     1     -14.202  -0.084  25.788  0.00  0.00    +0.000 C 
ATOM     26  C   UNL     1     -14.101  -1.138  26.615  0.00  0.00    +0.000 C 
ATOM     27  C   UNL     1      -5.273   0.674  22.624  0.00  0.00    +0.000 C 
ATOM     28  C   UNL     1     -15.141   1.067  26.005  0.00  0.00    +0.000 C 
ENDROOT
BRANCH  23  29
ATOM     29  O   UNL     1      -7.584   2.082  21.720  0.00  0.00    +0.000 OA
ATOM     30  C   UNL     1      -8.233   2.797  22.768  0.00  0.00    +0.000 C 
ENDBRANCH  23  29
BRANCH  26  31
ATOM     31  O   UNL     1     -14.927  -1.198  27.732  0.00  0.00    +0.000 OA
ATOM     32  C   UNL     1     -16.130  -1.943  27.553  0.00  0.00    +0.000 C 
ENDBRANCH  26  31
BRANCH  10  34
ATOM     33  N   UNL     1     -11.982  -6.243  22.704  0.00  0.00    +0.000 NA
ATOM     34  C   UNL     1     -11.118  -5.485  22.867  0.00  0.00    +0.000 C 
ENDBRANCH  10  34
BRANCH  11  35
ATOM     35  C   UNL     1     -10.206  -3.241  26.043  0.00  0.00    +0.000 C 
BRANCH  35  36
ATOM     36  O   UNL     1      -9.581  -1.942  26.118  0.00  0.00    +0.000 OA
BRANCH  36  38
ATOM     37  O   UNL     1      -7.594  -2.898  25.498  0.00  0.00    +0.000 OA
ATOM     38  C   UNL     1      -8.267  -1.924  25.794  0.00  0.00    +0.000 C 
BRANCH  38  39
ATOM     39  C   UNL     1      -7.766  -0.522  25.712  0.00  0.00    +0.000 C 
ATOM     40  C   UNL     1      -8.833   0.469  25.342  0.00  0.00    +0.000 C 
ATOM     41  C   UNL     1      -6.490  -0.146  25.926  0.00  0.00    +0.000 C 
ATOM     42  C   UNL     1      -5.300  -1.010  26.199  0.00  0.00    +0.000 C 
ENDBRANCH  38  39
ENDBRANCH  36  38
ENDBRANCH  35  36
ENDBRANCH  11  35
TORSDOF 7
ENDMDL
MODEL 5
REMARK VINA RESULT:      -5.6      2.806      5.207
REMARK  Name = 
REMARK  14 active torsions:
REMARK  status: ('A' for Active; 'I' for Inactive)
REMARK    1  A    between atoms: O_1  and  C_24
REMARK    2  A    between atoms: O_1  and  C_36
REMARK    3  A    between atoms: O_4  and  C_30
REMARK    4  A    between atoms: O_4  and  C_37
REMARK    5  A    between atoms: O_7  and  C_33
REMARK    6  A    between atoms: O_7  and  C_38
REMARK    7  A    between atoms: N_10  and  C_23
REMARK    8  A    between atoms: C_15  and  C_26
REMARK    9  A    between atoms: C_16  and  C_24
REMARK   10  A    between atoms: C_31  and  C_34
REMARK   11  A    between atoms: C_32  and  C_35
REMARK   12  A    between atoms: C_36  and  C_39
REMARK   13  A    between atoms: C_39  and  C_40
REMARK   14  A    between atoms: C_41  and  C_42
REMARK                            x       y       z     vdW  Elec       q    Type
REMARK                         _______ _______ _______ _____ _____    ______ ____
ROOT
ATOM      1  O   UNL     1      -5.173  -1.096  25.827  0.00  0.00    +0.000 OA
ATOM      2  O   UNL     1      -5.155   2.500  21.912  0.00  0.00    +0.000 OA
ATOM      3  O   UNL     1      -8.340  -4.507  25.531  0.00  0.00    +0.000 OA
ATOM      4  O   UNL     1     -12.399  -2.313  22.887  0.00  0.00    +0.000 OA
ATOM      5  N   UNL     1      -9.235   0.277  24.086  0.00  0.00    +0.000 NA
ATOM      6  N   UNL     1      -7.921   2.004  26.065  0.00  0.00    +0.000 NA
ATOM      7  C   UNL     1      -8.607  -0.260  25.321  0.00  0.00    +0.000 C 
ATOM      8  C   UNL     1      -7.386   0.638  25.797  0.00  0.00    +0.000 C 
ATOM      9  C   UNL     1      -8.409   2.585  24.788  0.00  0.00    +0.000 C 
ATOM     10  C   UNL     1      -9.604   1.721  24.234  0.00  0.00    +0.000 C 
ATOM     11  C   UNL     1     -10.313  -0.554  23.481  0.00  0.00    +0.000 C 
ATOM     12  C   UNL     1      -8.179  -1.730  25.126  0.00  0.00    +0.000 C 
ATOM     13  C   UNL     1      -7.278   2.707  23.730  0.00  0.00    +0.000 C 
ATOM     14  C   UNL     1      -6.279   0.671  24.754  0.00  0.00    +0.000 C 
ATOM     15  C   UNL     1      -6.246   1.609  23.795  0.00  0.00    +0.000 C 
ATOM     16  C   UNL     1     -10.282  -2.025  23.867  0.00  0.00    +0.000 C 
ATOM     17  C   UNL     1      -9.300  -2.571  24.595  0.00  0.00    +0.000 C 
ATOM     18  C   UNL     1      -6.994   2.863  26.795  0.00  0.00    +0.000 C 
ATOM     19  C   UNL     1      -5.197  -0.334  24.867  0.00  0.00    +0.000 C 
ATOM     20  C   UNL     1      -5.176   1.631  22.777  0.00  0.00    +0.000 C 
ATOM     21  C   UNL     1      -9.275  -4.016  24.908  0.00  0.00    +0.000 C 
ATOM     22  C   UNL     1     -11.442  -2.849  23.437  0.00  0.00    +0.000 C 
ATOM     23  C   UNL     1      -4.160  -0.376  23.784  0.00  0.00    +0.000 C 
ATOM     24  C   UNL     1      -4.145   0.562  22.824  0.00  0.00    +0.000 C 
ATOM     25  C   UNL     1     -10.394  -4.858  24.416  0.00  0.00    +0.000 C 
ATOM     26  C   UNL     1     -11.403  -4.324  23.709  0.00  0.00    +0.000 C 
ATOM     27  C   UNL     1      -3.115   0.631  21.734  0.00  0.00    +0.000 C 
ATOM     28  C   UNL     1     -10.293  -6.314  24.768  0.00  0.00    +0.000 C 
ENDROOT
BRANCH  23  29
ATOM     29  O   UNL     1      -3.162  -1.344  23.791  0.00  0.00    +0.000 OA
ATOM     30  C   UNL     1      -2.058  -1.082  24.654  0.00  0.00    +0.000 C 
ENDBRANCH  23  29
BRANCH  26  31
ATOM     31  O   UNL     1     -12.441  -5.148  23.289  0.00  0.00    +0.000 OA
ATOM     32  C   UNL     1     -13.599  -5.131  24.121  0.00  0.00    +0.000 C 
ENDBRANCH  26  31
BRANCH  10  34
ATOM     33  N   UNL     1     -11.715   2.182  25.773  0.00  0.00    +0.000 NA
ATOM     34  C   UNL     1     -10.804   1.969  25.086  0.00  0.00    +0.000 C 
ENDBRANCH  10  34
BRANCH  11  35
ATOM     35  C   UNL     1     -10.202  -0.409  21.934  0.00  0.00    +0.000 C 
BRANCH  35  36
ATOM     36  O   UNL     1      -8.910  -0.886  21.504  0.00  0.00    +0.000 OA
BRANCH  36  38
ATOM     37  O   UNL     1      -9.505  -2.085  19.645  0.00  0.00    +0.000 OA
ATOM     38  C   UNL     1      -8.943  -1.992  20.724  0.00  0.00    +0.000 C 
BRANCH  38  39
ATOM     39  C   UNL     1      -8.077  -3.063  21.295  0.00  0.00    +0.000 C 
ATOM     40  C   UNL     1      -6.834  -2.534  21.954  0.00  0.00    +0.000 C 
ATOM     41  C   UNL     1      -8.340  -4.383  21.232  0.00  0.00    +0.000 C 
ATOM     42  C   UNL     1      -9.468  -5.073  20.532  0.00  0.00    +0.000 C 
ENDBRANCH  38  39
ENDBRANCH  36  38
ENDBRANCH  35  36
ENDBRANCH  11  35
TORSDOF 7
ENDMDL
MODEL 6
REMARK VINA RESULT:      -5.6      2.549      5.285
REMARK  Name = 
REMARK  14 active torsions:
REMARK  status: ('A' for Active; 'I' for Inactive)
REMARK    1  A    between atoms: O_1  and  C_24
REMARK    2  A    between atoms: O_1  and  C_36
REMARK    3  A    between atoms: O_4  and  C_30
REMARK    4  A    between atoms: O_4  and  C_37
REMARK    5  A    between atoms: O_7  and  C_33
REMARK    6  A    between atoms: O_7  and  C_38
REMARK    7  A    between atoms: N_10  and  C_23
REMARK    8  A    between atoms: C_15  and  C_26
REMARK    9  A    between atoms: C_16  and  C_24
REMARK   10  A    between atoms: C_31  and  C_34
REMARK   11  A    between atoms: C_32  and  C_35
REMARK   12  A    between atoms: C_36  and  C_39
REMARK   13  A    between atoms: C_39  and  C_40
REMARK   14  A    between atoms: C_41  and  C_42
REMARK                            x       y       z     vdW  Elec       q    Type
REMARK                         _______ _______ _______ _____ _____    ______ ____
ROOT
ATOM      1  O   UNL     1     -12.102   0.285  23.122  0.00  0.00    +0.000 OA
ATOM      2  O   UNL     1      -6.828   0.922  23.341  0.00  0.00    +0.000 OA
ATOM      3  O   UNL     1     -13.858  -3.451  25.292  0.00  0.00    +0.000 OA
ATOM      4  O   UNL     1      -9.966  -7.066  25.053  0.00  0.00    +0.000 OA
ATOM      5  N   UNL     1      -9.420  -3.475  22.827  0.00  0.00    +0.000 NA
ATOM      6  N   UNL     1      -9.802  -1.853  20.408  0.00  0.00    +0.000 NA
ATOM      7  C   UNL     1     -10.748  -2.944  22.424  0.00  0.00    +0.000 C 
ATOM      8  C   UNL     1     -10.617  -1.577  21.626  0.00  0.00    +0.000 C 
ATOM      9  C   UNL     1      -8.431  -2.238  20.829  0.00  0.00    +0.000 C 
ATOM     10  C   UNL     1      -8.485  -3.574  21.660  0.00  0.00    +0.000 C 
ATOM     11  C   UNL     1      -9.430  -4.691  23.687  0.00  0.00    +0.000 C 
ATOM     12  C   UNL     1     -11.674  -2.792  23.649  0.00  0.00    +0.000 C 
ATOM     13  C   UNL     1      -7.727  -1.112  21.636  0.00  0.00    +0.000 C 
ATOM     14  C   UNL     1      -9.983  -0.490  22.484  0.00  0.00    +0.000 C 
ATOM     15  C   UNL     1      -8.656  -0.297  22.501  0.00  0.00    +0.000 C 
ATOM     16  C   UNL     1     -10.723  -4.924  24.452  0.00  0.00    +0.000 C 
ATOM     17  C   UNL     1     -11.738  -4.052  24.458  0.00  0.00    +0.000 C 
ATOM     18  C   UNL     1      -9.844  -0.778  19.421  0.00  0.00    +0.000 C 
ATOM     19  C   UNL     1     -10.887   0.392  23.256  0.00  0.00    +0.000 C 
ATOM     20  C   UNL     1      -8.042   0.751  23.343  0.00  0.00    +0.000 C 
ATOM     21  C   UNL     1     -12.962  -4.287  25.257  0.00  0.00    +0.000 C 
ATOM     22  C   UNL     1     -10.844  -6.218  25.173  0.00  0.00    +0.000 C 
ATOM     23  C   UNL     1     -10.268   1.395  24.184  0.00  0.00    +0.000 C 
ATOM     24  C   UNL     1      -8.937   1.571  24.200  0.00  0.00    +0.000 C 
ATOM     25  C   UNL     1     -13.054  -5.544  26.040  0.00  0.00    +0.000 C 
ATOM     26  C   UNL     1     -12.059  -6.445  26.023  0.00  0.00    +0.000 C 
ATOM     27  C   UNL     1      -8.236   2.587  25.054  0.00  0.00    +0.000 C 
ATOM     28  C   UNL     1     -14.322  -5.706  26.828  0.00  0.00    +0.000 C 
ENDROOT
BRANCH  23  29
ATOM     29  O   UNL     1     -11.061   2.200  24.994  0.00  0.00    +0.000 OA
ATOM     30  C   UNL     1     -11.684   3.304  24.340  0.00  0.00    +0.000 C 
ENDBRANCH  23  29
BRANCH  26  31
ATOM     31  O   UNL     1     -12.202  -7.619  26.755  0.00  0.00    +0.000 OA
ATOM     32  C   UNL     1     -12.640  -8.749  26.002  0.00  0.00    +0.000 C 
ENDBRANCH  26  31
BRANCH  10  34
ATOM     33  N   UNL     1      -8.999  -5.556  19.972  0.00  0.00    +0.000 NA
ATOM     34  C   UNL     1      -8.778  -4.702  20.727  0.00  0.00    +0.000 C 
ENDBRANCH  10  34
BRANCH  11  35
ATOM     35  C   UNL     1      -8.238  -4.569  24.682  0.00  0.00    +0.000 C 
BRANCH  35  36
ATOM     36  O   UNL     1      -8.058  -3.182  25.039  0.00  0.00    +0.000 OA
BRANCH  36  38
ATOM     37  O   UNL     1      -6.936  -2.881  27.013  0.00  0.00    +0.000 OA
ATOM     38  C   UNL     1      -7.970  -2.944  26.368  0.00  0.00    +0.000 C 
BRANCH  38  39
ATOM     39  C   UNL     1      -9.312  -2.627  26.935  0.00  0.00    +0.000 C 
ATOM     40  C   UNL     1      -9.826  -1.275  26.525  0.00  0.00    +0.000 C 
ATOM     41  C   UNL     1     -10.017  -3.439  27.748  0.00  0.00    +0.000 C 
ATOM     42  C   UNL     1      -9.609  -4.757  28.325  0.00  0.00    +0.000 C 
ENDBRANCH  38  39
ENDBRANCH  36  38
ENDBRANCH  35  36
ENDBRANCH  11  35
TORSDOF 7
ENDMDL
MODEL 7
REMARK VINA RESULT:      -5.5     16.137     20.326
REMARK  Name = 
REMARK  14 active torsions:
REMARK  status: ('A' for Active; 'I' for Inactive)
REMARK    1  A    between atoms: O_1  and  C_24
REMARK    2  A    between atoms: O_1  and  C_36
REMARK    3  A    between atoms: O_4  and  C_30
REMARK    4  A    between atoms: O_4  and  C_37
REMARK    5  A    between atoms: O_7  and  C_33
REMARK    6  A    between atoms: O_7  and  C_38
REMARK    7  A    between atoms: N_10  and  C_23
REMARK    8  A    between atoms: C_15  and  C_26
REMARK    9  A    between atoms: C_16  and  C_24
REMARK   10  A    between atoms: C_31  and  C_34
REMARK   11  A    between atoms: C_32  and  C_35
REMARK   12  A    between atoms: C_36  and  C_39
REMARK   13  A    between atoms: C_39  and  C_40
REMARK   14  A    between atoms: C_41  and  C_42
REMARK                            x       y       z     vdW  Elec       q    Type
REMARK                         _______ _______ _______ _____ _____    ______ ____
ROOT
ATOM      1  O   UNL     1       4.530  -4.086  14.249  0.00  0.00    +0.000 OA
ATOM      2  O   UNL     1       8.727  -4.264  17.508  0.00  0.00    +0.000 OA
ATOM      3  O   UNL     1       3.155  -8.128  12.374  0.00  0.00    +0.000 OA
ATOM      4  O   UNL     1       7.607 -11.018  12.056  0.00  0.00    +0.000 OA
ATOM      5  N   UNL     1       8.022  -6.929  13.182  0.00  0.00    +0.000 NA
ATOM      6  N   UNL     1       8.300  -4.083  12.515  0.00  0.00    +0.000 NA
ATOM      7  C   UNL     1       6.919  -6.142  12.572  0.00  0.00    +0.000 C 
ATOM      8  C   UNL     1       6.989  -4.611  12.991  0.00  0.00    +0.000 C 
ATOM      9  C   UNL     1       9.389  -4.779  13.246  0.00  0.00    +0.000 C 
ATOM     10  C   UNL     1       9.360  -6.316  12.906  0.00  0.00    +0.000 C 
ATOM     11  C   UNL     1       7.982  -8.401  12.956  0.00  0.00    +0.000 C 
ATOM     12  C   UNL     1       5.547  -6.756  12.921  0.00  0.00    +0.000 C 
ATOM     13  C   UNL     1       9.305  -4.550  14.780  0.00  0.00    +0.000 C 
ATOM     14  C   UNL     1       6.835  -4.438  14.496  0.00  0.00    +0.000 C 
ATOM     15  C   UNL     1       7.899  -4.432  15.313  0.00  0.00    +0.000 C 
ATOM     16  C   UNL     1       6.613  -8.960  12.603  0.00  0.00    +0.000 C 
ATOM     17  C   UNL     1       5.497  -8.221  12.609  0.00  0.00    +0.000 C 
ATOM     18  C   UNL     1       8.392  -2.626  12.552  0.00  0.00    +0.000 C 
ATOM     19  C   UNL     1       5.471  -4.212  15.026  0.00  0.00    +0.000 C 
ATOM     20  C   UNL     1       7.745  -4.275  16.774  0.00  0.00    +0.000 C 
ATOM     21  C   UNL     1       4.172  -8.809  12.311  0.00  0.00    +0.000 C 
ATOM     22  C   UNL     1       6.564 -10.386  12.188  0.00  0.00    +0.000 C 
ATOM     23  C   UNL     1       5.297  -4.146  16.515  0.00  0.00    +0.000 C 
ATOM     24  C   UNL     1       6.369  -4.153  17.323  0.00  0.00    +0.000 C 
ATOM     25  C   UNL     1       4.109 -10.252  11.970  0.00  0.00    +0.000 C 
ATOM     26  C   UNL     1       5.221 -11.004  11.930  0.00  0.00    +0.000 C 
ATOM     27  C   UNL     1       6.294  -4.036  18.817  0.00  0.00    +0.000 C 
ATOM     28  C   UNL     1       2.731 -10.776  11.688  0.00  0.00    +0.000 C 
ENDROOT
BRANCH  23  29
ATOM     29  O   UNL     1       4.033  -4.012  17.078  0.00  0.00    +0.000 OA
ATOM     30  C   UNL     1       3.567  -2.673  17.230  0.00  0.00    +0.000 C 
ENDBRANCH  23  29
BRANCH  26  31
ATOM     31  O   UNL     1       5.115 -12.346  11.583  0.00  0.00    +0.000 OA
ATOM     32  C   UNL     1       5.117 -13.255  12.682  0.00  0.00    +0.000 C 
ENDBRANCH  26  31
BRANCH  10  34
ATOM     33  N   UNL     1      10.263  -6.659  10.435  0.00  0.00    +0.000 NA
ATOM     34  C   UNL     1       9.849  -6.503  11.508  0.00  0.00    +0.000 C 
ENDBRANCH  10  34
BRANCH  11  35
ATOM     35  C   UNL     1       8.519  -9.087  14.248  0.00  0.00    +0.000 C 
BRANCH  35  36
ATOM     36  O   UNL     1       7.428  -9.274  15.173  0.00  0.00    +0.000 OA
BRANCH  36  38
ATOM     37  O   UNL     1       8.392  -7.744  16.578  0.00  0.00    +0.000 OA
ATOM     38  C   UNL     1       7.477  -8.492  16.276  0.00  0.00    +0.000 C 
BRANCH  38  39
ATOM     39  C   UNL     1       6.188  -8.557  17.024  0.00  0.00    +0.000 C 
ATOM     40  C   UNL     1       5.160  -7.583  16.522  0.00  0.00    +0.000 C 
ATOM     41  C   UNL     1       5.939  -9.382  18.061  0.00  0.00    +0.000 C 
ATOM     42  C   UNL     1       6.877 -10.328  18.741  0.00  0.00    +0.000 C 
ENDBRANCH  38  39
ENDBRANCH  36  38
ENDBRANCH  35  36
ENDBRANCH  11  35
TORSDOF 7
ENDMDL
MODEL 8
REMARK VINA RESULT:      -5.4     18.074     21.141
REMARK  Name = 
REMARK  14 active torsions:
REMARK  status: ('A' for Active; 'I' for Inactive)
REMARK    1  A    between atoms: O_1  and  C_24
REMARK    2  A    between atoms: O_1  and  C_36
REMARK    3  A    between atoms: O_4  and  C_30
REMARK    4  A    between atoms: O_4  and  C_37
REMARK    5  A    between atoms: O_7  and  C_33
REMARK    6  A    between atoms: O_7  and  C_38
REMARK    7  A    between atoms: N_10  and  C_23
REMARK    8  A    between atoms: C_15  and  C_26
REMARK    9  A    between atoms: C_16  and  C_24
REMARK   10  A    between atoms: C_31  and  C_34
REMARK   11  A    between atoms: C_32  and  C_35
REMARK   12  A    between atoms: C_36  and  C_39
REMARK   13  A    between atoms: C_39  and  C_40
REMARK   14  A    between atoms: C_41  and  C_42
REMARK                            x       y       z     vdW  Elec       q    Type
REMARK                         _______ _______ _______ _____ _____    ______ ____
ROOT
ATOM      1  O   UNL     1       1.949 -15.762  13.651  0.00  0.00    +0.000 OA
ATOM      2  O   UNL     1       6.059 -17.958  16.211  0.00  0.00    +0.000 OA
ATOM      3  O   UNL     1       2.651 -11.551  11.775  0.00  0.00    +0.000 OA
ATOM      4  O   UNL     1       6.323  -9.309  14.900  0.00  0.00    +0.000 OA
ATOM      5  N   UNL     1       4.674 -13.019  16.194  0.00  0.00    +0.000 NA
ATOM      6  N   UNL     1       2.609 -14.585  17.575  0.00  0.00    +0.000 NA
ATOM      7  C   UNL     1       3.287 -13.143  15.675  0.00  0.00    +0.000 C 
ATOM      8  C   UNL     1       2.629 -14.530  16.085  0.00  0.00    +0.000 C 
ATOM      9  C   UNL     1       4.009 -14.611  18.071  0.00  0.00    +0.000 C 
ATOM     10  C   UNL     1       4.740 -13.276  17.668  0.00  0.00    +0.000 C 
ATOM     11  C   UNL     1       5.431 -11.810  15.765  0.00  0.00    +0.000 C 
ATOM     12  C   UNL     1       3.251 -12.936  14.146  0.00  0.00    +0.000 C 
ATOM     13  C   UNL     1       4.791 -15.849  17.551  0.00  0.00    +0.000 C 
ATOM     14  C   UNL     1       3.395 -15.706  15.496  0.00  0.00    +0.000 C 
ATOM     15  C   UNL     1       4.399 -16.292  16.164  0.00  0.00    +0.000 C 
ATOM     16  C   UNL     1       4.921 -11.151  14.493  0.00  0.00    +0.000 C 
ATOM     17  C   UNL     1       3.945 -11.672  13.739  0.00  0.00    +0.000 C 
ATOM     18  C   UNL     1       1.767 -15.651  18.110  0.00  0.00    +0.000 C 
ATOM     19  C   UNL     1       2.953 -16.226  14.182  0.00  0.00    +0.000 C 
ATOM     20  C   UNL     1       5.149 -17.427  15.585  0.00  0.00    +0.000 C 
ATOM     21  C   UNL     1       3.509 -11.031  12.479  0.00  0.00    +0.000 C 
ATOM     22  C   UNL     1       5.526  -9.843  14.134  0.00  0.00    +0.000 C 
ATOM     23  C   UNL     1       3.767 -17.314  13.546  0.00  0.00    +0.000 C 
ATOM     24  C   UNL     1       4.777 -17.885  14.221  0.00  0.00    +0.000 C 
ATOM     25  C   UNL     1       4.165  -9.762  12.077  0.00  0.00    +0.000 C 
ATOM     26  C   UNL     1       5.125  -9.208  12.835  0.00  0.00    +0.000 C 
ATOM     27  C   UNL     1       5.609 -19.015  13.687  0.00  0.00    +0.000 C 
ATOM     28  C   UNL     1       3.673  -9.177  10.784  0.00  0.00    +0.000 C 
ENDROOT
BRANCH  23  29
ATOM     29  O   UNL     1       3.450 -17.792  12.280  0.00  0.00    +0.000 OA
ATOM     30  C   UNL     1       2.375 -18.727  12.228  0.00  0.00    +0.000 C 
ENDBRANCH  23  29
BRANCH  26  31
ATOM     31  O   UNL     1       5.694  -8.006  12.429  0.00  0.00    +0.000 OA
ATOM     32  C   UNL     1       5.105  -6.838  12.996  0.00  0.00    +0.000 C 
ENDBRANCH  26  31
BRANCH  10  34
ATOM     33  N   UNL     1       3.753 -11.315  19.158  0.00  0.00    +0.000 NA
ATOM     34  C   UNL     1       4.205 -12.168  18.513  0.00  0.00    +0.000 C 
ENDBRANCH  10  34
BRANCH  11  35
ATOM     35  C   UNL     1       6.920 -12.231  15.585  0.00  0.00    +0.000 C 
BRANCH  35  36
ATOM     36  O   UNL     1       6.991 -13.344  14.669  0.00  0.00    +0.000 OA
BRANCH  36  38
ATOM     37  O   UNL     1       8.947 -14.195  13.836  0.00  0.00    +0.000 OA
ATOM     38  C   UNL     1       8.073 -13.344  13.856  0.00  0.00    +0.000 C 
BRANCH  38  39
ATOM     39  C   UNL     1       7.994 -12.223  12.877  0.00  0.00    +0.000 C 
ATOM     40  C   UNL     1       8.894 -11.069  13.221  0.00  0.00    +0.000 C 
ATOM     41  C   UNL     1       7.198 -12.202  11.789  0.00  0.00    +0.000 C 
ATOM     42  C   UNL     1       6.181 -13.214  11.365  0.00  0.00    +0.000 C 
ENDBRANCH  38  39
ENDBRANCH  36  38
ENDBRANCH  35  36
ENDBRANCH  11  35
TORSDOF 7
ENDMDL
MODEL 9
REMARK VINA RESULT:      -5.4     17.955     21.161
REMARK  Name = 
REMARK  14 active torsions:
REMARK  status: ('A' for Active; 'I' for Inactive)
REMARK    1  A    between atoms: O_1  and  C_24
REMARK    2  A    between atoms: O_1  and  C_36
REMARK    3  A    between atoms: O_4  and  C_30
REMARK    4  A    between atoms: O_4  and  C_37
REMARK    5  A    between atoms: O_7  and  C_33
REMARK    6  A    between atoms: O_7  and  C_38
REMARK    7  A    between atoms: N_10  and  C_23
REMARK    8  A    between atoms: C_15  and  C_26
REMARK    9  A    between atoms: C_16  and  C_24
REMARK   10  A    between atoms: C_31  and  C_34
REMARK   11  A    between atoms: C_32  and  C_35
REMARK   12  A    between atoms: C_36  and  C_39
REMARK   13  A    between atoms: C_39  and  C_40
REMARK   14  A    between atoms: C_41  and  C_42
REMARK                            x       y       z     vdW  Elec       q    Type
REMARK                         _______ _______ _______ _____ _____    ______ ____
ROOT
ATOM      1  O   UNL     1     -21.866  -6.525   5.382  0.00  0.00    +0.000 OA
ATOM      2  O   UNL     1     -22.820  -1.533   6.940  0.00  0.00    +0.000 OA
ATOM      3  O   UNL     1     -24.636  -9.839   7.140  0.00  0.00    +0.000 OA
ATOM      4  O   UNL     1     -26.082  -7.963  11.900  0.00  0.00    +0.000 OA
ATOM      5  N   UNL     1     -23.087  -5.792   9.785  0.00  0.00    +0.000 NA
ATOM      6  N   UNL     1     -20.288  -5.324   9.027  0.00  0.00    +0.000 NA
ATOM      7  C   UNL     1     -22.328  -6.729   8.916  0.00  0.00    +0.000 C 
ATOM      8  C   UNL     1     -21.222  -5.974   8.063  0.00  0.00    +0.000 C 
ATOM      9  C   UNL     1     -21.031  -4.285   9.785  0.00  0.00    +0.000 C 
ATOM     10  C   UNL     1     -22.174  -4.959  10.632  0.00  0.00    +0.000 C 
ATOM     11  C   UNL     1     -24.232  -6.375  10.539  0.00  0.00    +0.000 C 
ATOM     12  C   UNL     1     -23.284  -7.533   8.009  0.00  0.00    +0.000 C 
ATOM     13  C   UNL     1     -21.609  -3.182   8.854  0.00  0.00    +0.000 C 
ATOM     14  C   UNL     1     -21.846  -4.953   7.121  0.00  0.00    +0.000 C 
ATOM     15  C   UNL     1     -22.040  -3.680   7.498  0.00  0.00    +0.000 C 
ATOM     16  C   UNL     1     -24.794  -7.663   9.957  0.00  0.00    +0.000 C 
ATOM     17  C   UNL     1     -24.383  -8.182   8.794  0.00  0.00    +0.000 C 
ATOM     18  C   UNL     1     -19.053  -4.847   8.414  0.00  0.00    +0.000 C 
ATOM     19  C   UNL     1     -22.176  -5.396   5.748  0.00  0.00    +0.000 C 
ATOM     20  C   UNL     1     -22.657  -2.695   6.585  0.00  0.00    +0.000 C 
ATOM     21  C   UNL     1     -24.989  -9.409   8.232  0.00  0.00    +0.000 C 
ATOM     22  C   UNL     1     -25.810  -8.374  10.777  0.00  0.00    +0.000 C 
ATOM     23  C   UNL     1     -22.886  -4.428   4.848  0.00  0.00    +0.000 C 
ATOM     24  C   UNL     1     -23.086  -3.160   5.241  0.00  0.00    +0.000 C 
ATOM     25  C   UNL     1     -26.058 -10.081   9.012  0.00  0.00    +0.000 C 
ATOM     26  C   UNL     1     -26.464  -9.592  10.195  0.00  0.00    +0.000 C 
ATOM     27  C   UNL     1     -23.737  -2.110   4.388  0.00  0.00    +0.000 C 
ATOM     28  C   UNL     1     -26.627 -11.315   8.373  0.00  0.00    +0.000 C 
ENDROOT
BRANCH  23  29
ATOM     29  O   UNL     1     -23.292  -4.807   3.573  0.00  0.00    +0.000 OA
ATOM     30  C   UNL     1     -24.510  -5.546   3.511  0.00  0.00    +0.000 C 
ENDBRANCH  23  29
BRANCH  26  31
ATOM     31  O   UNL     1     -27.453 -10.270  10.900  0.00  0.00    +0.000 OA
ATOM     32  C   UNL     1     -28.767  -9.732  10.764  0.00  0.00    +0.000 C 
ENDBRANCH  26  31
BRANCH  10  34
ATOM     33  N   UNL     1     -21.099  -6.277  12.668  0.00  0.00    +0.000 NA
ATOM     34  C   UNL     1     -21.550  -5.691  11.773  0.00  0.00    +0.000 C 
ENDBRANCH  10  34
BRANCH  11  35
ATOM     35  C   UNL     1     -25.348  -5.290  10.604  0.00  0.00    +0.000 C 
BRANCH  35  36
ATOM     36  O   UNL     1     -25.337  -4.524   9.381  0.00  0.00    +0.000 OA
BRANCH  36  38
ATOM     37  O   UNL     1     -27.260  -3.365   8.928  0.00  0.00    +0.000 OA
ATOM     38  C   UNL     1     -26.551  -4.351   8.808  0.00  0.00    +0.000 C 
BRANCH  38  39
ATOM     39  C   UNL     1     -26.862  -5.479   7.884  0.00  0.00    +0.000 C 
ATOM     40  C   UNL     1     -26.020  -5.476   6.639  0.00  0.00    +0.000 C 
ATOM     41  C   UNL     1     -27.804  -6.417   8.102  0.00  0.00    +0.000 C 
ATOM     42  C   UNL     1     -28.785  -6.504   9.228  0.00  0.00    +0.000 C 
ENDBRANCH  38  39
ENDBRANCH  36  38
ENDBRANCH  35  36
ENDBRANCH  11  35
TORSDOF 7
ENDMDL
