MODEL 1
REMARK VINA RESULT:      -5.6      0.000      0.000
REMARK  Name = Resveratrol.pdbqt.pdb
REMARK  5 active torsions:
REMARK  status: ('A' for Active; 'I' for Inactive)
REMARK    1  A    between atoms: C_1  and  C_11
REMARK    2  A    between atoms: C_4  and  O_7
REMARK    3  A    between atoms: C_5  and  O_9
REMARK    4  A    between atoms: C_12  and  C_13
REMARK    5  A    between atoms: C_18  and  O_19
REMARK                            x       y       z     vdW  Elec       q    Type
REMARK                         _______ _______ _______ _____ _____    ______ ____
ROOT
ATOM      1  C   UNL     1     -12.041  -3.044  22.774  0.00  0.00    +0.000 A 
ATOM      2  C   UNL     1     -12.816  -3.915  23.538  0.00  0.00    +0.000 A 
ATOM      3  C   UNL     1     -11.997  -1.685  23.087  0.00  0.00    +0.000 A 
ATOM      4  C   UNL     1     -12.732  -1.207  24.168  0.00  0.00    +0.000 A 
ATOM      5  C   UNL     1     -13.544  -3.417  24.614  0.00  0.00    +0.000 A 
ATOM      6  C   UNL     1     -13.510  -2.065  24.939  0.00  0.00    +0.000 A 
ENDROOT
BRANCH   4   7
ATOM      7  O   UNL     1     -12.707   0.117  24.498  0.00  0.00    +0.000 OA
ATOM      8  H   UNL     1     -13.538   0.331  24.958  0.00  0.00    +0.000 HD
ENDBRANCH   4   7
BRANCH   5   9
ATOM      9  O   UNL     1     -14.296  -4.288  25.348  0.00  0.00    +0.000 OA
ATOM     10  H   UNL     1     -14.877  -3.767  25.931  0.00  0.00    +0.000 HD
ENDBRANCH   5   9
BRANCH   1  11
ATOM     11  C   UNL     1     -11.291  -3.541  21.668  0.00  0.00    +0.000 C 
ATOM     12  C   UNL     1     -10.659  -3.961  20.736  0.00  0.00    +0.000 C 
BRANCH  12  13
ATOM     13  C   UNL     1      -9.909  -4.460  19.630  0.00  0.00    +0.000 A 
ATOM     14  C   UNL     1      -8.894  -5.392  19.842  0.00  0.00    +0.000 A 
ATOM     15  C   UNL     1     -10.193  -4.013  18.340  0.00  0.00    +0.000 A 
ATOM     16  C   UNL     1      -8.162  -5.881  18.764  0.00  0.00    +0.000 A 
ATOM     17  C   UNL     1      -9.462  -4.499  17.259  0.00  0.00    +0.000 A 
ATOM     18  C   UNL     1      -8.452  -5.429  17.480  0.00  0.00    +0.000 A 
BRANCH  18  19
ATOM     19  O   UNL     1      -7.749  -5.890  16.405  0.00  0.00    +0.000 OA
ATOM     20  H   UNL     1      -7.874  -6.854  16.350  0.00  0.00    +0.000 HD
ENDBRANCH  18  19
ENDBRANCH  12  13
ENDBRANCH   1  11
TORSDOF 5
ENDMDL
MODEL 2
REMARK VINA RESULT:      -5.6      0.482      2.057
REMARK  Name = Resveratrol.pdbqt.pdb
REMARK  5 active torsions:
REMARK  status: ('A' for Active; 'I' for Inactive)
REMARK    1  A    between atoms: C_1  and  C_11
REMARK    2  A    between atoms: C_4  and  O_7
REMARK    3  A    between atoms: C_5  and  O_9
REMARK    4  A    between atoms: C_12  and  C_13
REMARK    5  A    between atoms: C_18  and  O_19
REMARK                            x       y       z     vdW  Elec       q    Type
REMARK                         _______ _______ _______ _____ _____    ______ ____
ROOT
ATOM      1  C   UNL     1     -11.915  -2.577  22.674  0.00  0.00    +0.000 A 
ATOM      2  C   UNL     1     -11.731  -1.224  22.954  0.00  0.00    +0.000 A 
ATOM      3  C   UNL     1     -12.796  -3.339  23.440  0.00  0.00    +0.000 A 
ATOM      4  C   UNL     1     -13.491  -2.737  24.486  0.00  0.00    +0.000 A 
ATOM      5  C   UNL     1     -12.435  -0.641  24.004  0.00  0.00    +0.000 A 
ATOM      6  C   UNL     1     -13.318  -1.388  24.777  0.00  0.00    +0.000 A 
ENDROOT
BRANCH   4   7
ATOM      7  O   UNL     1     -14.360  -3.458  25.252  0.00  0.00    +0.000 OA
ATOM      8  H   UNL     1     -13.998  -4.356  25.359  0.00  0.00    +0.000 HD
ENDBRANCH   4   7
BRANCH   5   9
ATOM      9  O   UNL     1     -12.239   0.686  24.259  0.00  0.00    +0.000 OA
ATOM     10  H   UNL     1     -11.397   0.950  23.848  0.00  0.00    +0.000 HD
ENDBRANCH   5   9
BRANCH   1  11
ATOM     11  C   UNL     1     -11.199  -3.186  21.601  0.00  0.00    +0.000 C 
ATOM     12  C   UNL     1     -10.595  -3.700  20.698  0.00  0.00    +0.000 C 
BRANCH  12  13
ATOM     13  C   UNL     1      -9.880  -4.310  19.626  0.00  0.00    +0.000 A 
ATOM     14  C   UNL     1      -8.919  -5.283  19.897  0.00  0.00    +0.000 A 
ATOM     15  C   UNL     1     -10.143  -3.931  18.310  0.00  0.00    +0.000 A 
ATOM     16  C   UNL     1      -8.220  -5.880  18.852  0.00  0.00    +0.000 A 
ATOM     17  C   UNL     1      -9.445  -4.525  17.262  0.00  0.00    +0.000 A 
ATOM     18  C   UNL     1      -8.488  -5.496  17.542  0.00  0.00    +0.000 A 
BRANCH  18  19
ATOM     19  O   UNL     1      -7.817  -6.064  16.498  0.00  0.00    +0.000 OA
ATOM     20  H   UNL     1      -8.372  -6.773  16.129  0.00  0.00    +0.000 HD
ENDBRANCH  18  19
ENDBRANCH  12  13
ENDBRANCH   1  11
TORSDOF 5
ENDMDL
MODEL 3
REMARK VINA RESULT:      -5.4     13.378     14.649
REMARK  Name = Resveratrol.pdbqt.pdb
REMARK  5 active torsions:
REMARK  status: ('A' for Active; 'I' for Inactive)
REMARK    1  A    between atoms: C_1  and  C_11
REMARK    2  A    between atoms: C_4  and  O_7
REMARK    3  A    between atoms: C_5  and  O_9
REMARK    4  A    between atoms: C_12  and  C_13
REMARK    5  A    between atoms: C_18  and  O_19
REMARK                            x       y       z     vdW  Elec       q    Type
REMARK                         _______ _______ _______ _____ _____    ______ ____
ROOT
ATOM      1  C   UNL     1      -3.238 -14.876  20.967  0.00  0.00    +0.000 A 
ATOM      2  C   UNL     1      -4.350 -14.636  20.161  0.00  0.00    +0.000 A 
ATOM      3  C   UNL     1      -3.292 -15.847  21.966  0.00  0.00    +0.000 A 
ATOM      4  C   UNL     1      -4.465 -16.574  22.151  0.00  0.00    +0.000 A 
ATOM      5  C   UNL     1      -5.512 -15.372  20.362  0.00  0.00    +0.000 A 
ATOM      6  C   UNL     1      -5.582 -16.345  21.355  0.00  0.00    +0.000 A 
ENDROOT
BRANCH   4   7
ATOM      7  O   UNL     1      -4.547 -17.531  23.121  0.00  0.00    +0.000 OA
ATOM      8  H   UNL     1      -5.405 -17.983  23.030  0.00  0.00    +0.000 HD
ENDBRANCH   4   7
BRANCH   5   9
ATOM      9  O   UNL     1      -6.589 -15.120  19.561  0.00  0.00    +0.000 OA
ATOM     10  H   UNL     1      -6.298 -14.525  18.847  0.00  0.00    +0.000 HD
ENDBRANCH   5   9
BRANCH   1  11
ATOM     11  C   UNL     1      -2.040 -14.127  20.771  0.00  0.00    +0.000 C 
ATOM     12  C   UNL     1      -1.031 -13.496  20.606  0.00  0.00    +0.000 C 
BRANCH  12  13
ATOM     13  C   UNL     1       0.167 -12.747  20.409  0.00  0.00    +0.000 A 
ATOM     14  C   UNL     1       0.295 -11.479  20.976  0.00  0.00    +0.000 A 
ATOM     15  C   UNL     1       1.207 -13.285  19.651  0.00  0.00    +0.000 A 
ATOM     16  C   UNL     1       1.463 -10.747  20.786  0.00  0.00    +0.000 A 
ATOM     17  C   UNL     1       2.376 -12.555  19.458  0.00  0.00    +0.000 A 
ATOM     18  C   UNL     1       2.495 -11.291  20.027  0.00  0.00    +0.000 A 
BRANCH  18  19
ATOM     19  O   UNL     1       3.651 -10.595  19.824  0.00  0.00    +0.000 OA
ATOM     20  H   UNL     1       3.420  -9.711  19.491  0.00  0.00    +0.000 HD
ENDBRANCH  18  19
ENDBRANCH  12  13
ENDBRANCH   1  11
TORSDOF 5
ENDMDL
MODEL 4
REMARK VINA RESULT:      -5.4     13.362     14.581
REMARK  Name = Resveratrol.pdbqt.pdb
REMARK  5 active torsions:
REMARK  status: ('A' for Active; 'I' for Inactive)
REMARK    1  A    between atoms: C_1  and  C_11
REMARK    2  A    between atoms: C_4  and  O_7
REMARK    3  A    between atoms: C_5  and  O_9
REMARK    4  A    between atoms: C_12  and  C_13
REMARK    5  A    between atoms: C_18  and  O_19
REMARK                            x       y       z     vdW  Elec       q    Type
REMARK                         _______ _______ _______ _____ _____    ______ ____
ROOT
ATOM      1  C   UNL     1      -3.186 -14.840  20.946  0.00  0.00    +0.000 A 
ATOM      2  C   UNL     1      -3.237 -15.829  21.928  0.00  0.00    +0.000 A 
ATOM      3  C   UNL     1      -4.300 -14.585  20.148  0.00  0.00    +0.000 A 
ATOM      4  C   UNL     1      -5.464 -15.325  20.340  0.00  0.00    +0.000 A 
ATOM      5  C   UNL     1      -4.409 -16.558  22.103  0.00  0.00    +0.000 A 
ATOM      6  C   UNL     1      -5.530 -16.314  21.315  0.00  0.00    +0.000 A 
ENDROOT
BRANCH   4   7
ATOM      7  O   UNL     1      -6.570 -15.097  19.574  0.00  0.00    +0.000 OA
ATOM      8  H   UNL     1      -7.168 -15.859  19.669  0.00  0.00    +0.000 HD
ENDBRANCH   4   7
BRANCH   5   9
ATOM      9  O   UNL     1      -4.437 -17.521  23.071  0.00  0.00    +0.000 OA
ATOM     10  H   UNL     1      -3.587 -17.493  23.546  0.00  0.00    +0.000 HD
ENDBRANCH   5   9
BRANCH   1  11
ATOM     11  C   UNL     1      -1.990 -14.087  20.756  0.00  0.00    +0.000 C 
ATOM     12  C   UNL     1      -0.982 -13.452  20.596  0.00  0.00    +0.000 C 
BRANCH  12  13
ATOM     13  C   UNL     1       0.214 -12.700  20.406  0.00  0.00    +0.000 A 
ATOM     14  C   UNL     1       1.262 -13.238  19.660  0.00  0.00    +0.000 A 
ATOM     15  C   UNL     1       0.332 -11.428  20.966  0.00  0.00    +0.000 A 
ATOM     16  C   UNL     1       2.431 -12.505  19.473  0.00  0.00    +0.000 A 
ATOM     17  C   UNL     1       1.499 -10.692  20.781  0.00  0.00    +0.000 A 
ATOM     18  C   UNL     1       2.540 -11.237  20.036  0.00  0.00    +0.000 A 
BRANCH  18  19
ATOM     19  O   UNL     1       3.674 -10.497  19.869  0.00  0.00    +0.000 OA
ATOM     20  H   UNL     1       4.426 -11.007  20.218  0.00  0.00    +0.000 HD
ENDBRANCH  18  19
ENDBRANCH  12  13
ENDBRANCH   1  11
TORSDOF 5
ENDMDL
MODEL 5
REMARK VINA RESULT:      -5.3     18.881     19.974
REMARK  Name = Resveratrol.pdbqt.pdb
REMARK  5 active torsions:
REMARK  status: ('A' for Active; 'I' for Inactive)
REMARK    1  A    between atoms: C_1  and  C_11
REMARK    2  A    between atoms: C_4  and  O_7
REMARK    3  A    between atoms: C_5  and  O_9
REMARK    4  A    between atoms: C_12  and  C_13
REMARK    5  A    between atoms: C_18  and  O_19
REMARK                            x       y       z     vdW  Elec       q    Type
REMARK                         _______ _______ _______ _____ _____    ______ ____
ROOT
ATOM      1  C   UNL     1       2.650 -15.229  13.428  0.00  0.00    +0.000 A 
ATOM      2  C   UNL     1       2.251 -16.028  12.358  0.00  0.00    +0.000 A 
ATOM      3  C   UNL     1       2.679 -15.751  14.721  0.00  0.00    +0.000 A 
ATOM      4  C   UNL     1       2.308 -17.076  14.933  0.00  0.00    +0.000 A 
ATOM      5  C   UNL     1       1.884 -17.350  12.591  0.00  0.00    +0.000 A 
ATOM      6  C   UNL     1       1.909 -17.885  13.875  0.00  0.00    +0.000 A 
ENDROOT
BRANCH   4   7
ATOM      7  O   UNL     1       2.328 -17.614  16.188  0.00  0.00    +0.000 OA
ATOM      8  H   UNL     1       2.023 -16.933  16.814  0.00  0.00    +0.000 HD
ENDBRANCH   4   7
BRANCH   5   9
ATOM      9  O   UNL     1       1.497 -18.114  11.528  0.00  0.00    +0.000 OA
ATOM     10  H   UNL     1       1.030 -18.895  11.873  0.00  0.00    +0.000 HD
ENDBRANCH   5   9
BRANCH   1  11
ATOM     11  C   UNL     1       3.028 -13.873  13.203  0.00  0.00    +0.000 C 
ATOM     12  C   UNL     1       3.346 -12.730  13.013  0.00  0.00    +0.000 C 
BRANCH  12  13
ATOM     13  C   UNL     1       3.724 -11.373  12.788  0.00  0.00    +0.000 A 
ATOM     14  C   UNL     1       3.114 -10.642  11.769  0.00  0.00    +0.000 A 
ATOM     15  C   UNL     1       4.703 -10.782  13.587  0.00  0.00    +0.000 A 
ATOM     16  C   UNL     1       3.481  -9.317  11.548  0.00  0.00    +0.000 A 
ATOM     17  C   UNL     1       5.073  -9.458  13.368  0.00  0.00    +0.000 A 
ATOM     18  C   UNL     1       4.459  -8.736  12.350  0.00  0.00    +0.000 A 
BRANCH  18  19
ATOM     19  O   UNL     1       4.839  -7.440  12.155  0.00  0.00    +0.000 OA
ATOM     20  H   UNL     1       5.044  -7.320  11.212  0.00  0.00    +0.000 HD
ENDBRANCH  18  19
ENDBRANCH  12  13
ENDBRANCH   1  11
TORSDOF 5
ENDMDL
MODEL 6
REMARK VINA RESULT:      -5.3      5.209      7.593
REMARK  Name = Resveratrol.pdbqt.pdb
REMARK  5 active torsions:
REMARK  status: ('A' for Active; 'I' for Inactive)
REMARK    1  A    between atoms: C_1  and  C_11
REMARK    2  A    between atoms: C_4  and  O_7
REMARK    3  A    between atoms: C_5  and  O_9
REMARK    4  A    between atoms: C_12  and  C_13
REMARK    5  A    between atoms: C_18  and  O_19
REMARK                            x       y       z     vdW  Elec       q    Type
REMARK                         _______ _______ _______ _____ _____    ______ ____
ROOT
ATOM      1  C   UNL     1      -8.840  -1.730  20.824  0.00  0.00    +0.000 A 
ATOM      2  C   UNL     1      -8.143  -2.144  21.958  0.00  0.00    +0.000 A 
ATOM      3  C   UNL     1      -9.283  -2.667  19.892  0.00  0.00    +0.000 A 
ATOM      4  C   UNL     1      -9.025  -4.019  20.104  0.00  0.00    +0.000 A 
ATOM      5  C   UNL     1      -7.895  -3.499  22.152  0.00  0.00    +0.000 A 
ATOM      6  C   UNL     1      -8.332  -4.446  21.232  0.00  0.00    +0.000 A 
ENDROOT
BRANCH   4   7
ATOM      7  O   UNL     1      -9.448  -4.959  19.209  0.00  0.00    +0.000 OA
ATOM      8  H   UNL     1     -10.119  -4.550  18.634  0.00  0.00    +0.000 HD
ENDBRANCH   4   7
BRANCH   5   9
ATOM      9  O   UNL     1      -7.211  -3.881  23.270  0.00  0.00    +0.000 OA
ATOM     10  H   UNL     1      -7.747  -3.641  24.047  0.00  0.00    +0.000 HD
ENDBRANCH   5   9
BRANCH   1  11
ATOM     11  C   UNL     1      -9.099  -0.343  20.614  0.00  0.00    +0.000 C 
ATOM     12  C   UNL     1      -9.317   0.825  20.436  0.00  0.00    +0.000 C 
BRANCH  12  13
ATOM     13  C   UNL     1      -9.576   2.211  20.225  0.00  0.00    +0.000 A 
ATOM     14  C   UNL     1     -10.063   2.994  21.271  0.00  0.00    +0.000 A 
ATOM     15  C   UNL     1      -9.343   2.780  18.973  0.00  0.00    +0.000 A 
ATOM     16  C   UNL     1     -10.316   4.348  21.068  0.00  0.00    +0.000 A 
ATOM     17  C   UNL     1      -9.595   4.133  18.766  0.00  0.00    +0.000 A 
ATOM     18  C   UNL     1     -10.081   4.907  19.815  0.00  0.00    +0.000 A 
BRANCH  18  19
ATOM     19  O   UNL     1     -10.321   6.230  19.587  0.00  0.00    +0.000 OA
ATOM     20  H   UNL     1     -10.560   6.647  20.434  0.00  0.00    +0.000 HD
ENDBRANCH  18  19
ENDBRANCH  12  13
ENDBRANCH   1  11
TORSDOF 5
ENDMDL
MODEL 7
REMARK VINA RESULT:      -5.3      4.935      6.257
REMARK  Name = Resveratrol.pdbqt.pdb
REMARK  5 active torsions:
REMARK  status: ('A' for Active; 'I' for Inactive)
REMARK    1  A    between atoms: C_1  and  C_11
REMARK    2  A    between atoms: C_4  and  O_7
REMARK    3  A    between atoms: C_5  and  O_9
REMARK    4  A    between atoms: C_12  and  C_13
REMARK    5  A    between atoms: C_18  and  O_19
REMARK                            x       y       z     vdW  Elec       q    Type
REMARK                         _______ _______ _______ _____ _____    ______ ____
ROOT
ATOM      1  C   UNL     1      -9.756   2.228  20.478  0.00  0.00    +0.000 A 
ATOM      2  C   UNL     1      -9.350   3.058  19.434  0.00  0.00    +0.000 A 
ATOM      3  C   UNL     1     -10.304   2.774  21.637  0.00  0.00    +0.000 A 
ATOM      4  C   UNL     1     -10.443   4.156  21.743  0.00  0.00    +0.000 A 
ATOM      5  C   UNL     1      -9.497   4.436  19.560  0.00  0.00    +0.000 A 
ATOM      6  C   UNL     1     -10.043   4.997  20.710  0.00  0.00    +0.000 A 
ENDROOT
BRANCH   4   7
ATOM      7  O   UNL     1     -10.978   4.719  22.866  0.00  0.00    +0.000 OA
ATOM      8  H   UNL     1     -10.958   4.054  23.577  0.00  0.00    +0.000 HD
ENDBRANCH   4   7
BRANCH   5   9
ATOM      9  O   UNL     1      -9.093   5.230  18.525  0.00  0.00    +0.000 OA
ATOM     10  H   UNL     1      -8.302   5.720  18.814  0.00  0.00    +0.000 HD
ENDBRANCH   5   9
BRANCH   1  11
ATOM     11  C   UNL     1      -9.609   0.814  20.361  0.00  0.00    +0.000 C 
ATOM     12  C   UNL     1      -9.485  -0.377  20.263  0.00  0.00    +0.000 C 
BRANCH  12  13
ATOM     13  C   UNL     1      -9.337  -1.791  20.147  0.00  0.00    +0.000 A 
ATOM     14  C   UNL     1     -10.038  -2.484  19.160  0.00  0.00    +0.000 A 
ATOM     15  C   UNL     1      -8.494  -2.476  21.020  0.00  0.00    +0.000 A 
ATOM     16  C   UNL     1      -9.895  -3.863  19.044  0.00  0.00    +0.000 A 
ATOM     17  C   UNL     1      -8.349  -3.856  20.908  0.00  0.00    +0.000 A 
ATOM     18  C   UNL     1      -9.052  -4.539  19.921  0.00  0.00    +0.000 A 
BRANCH  18  19
ATOM     19  O   UNL     1      -8.893  -5.892  19.831  0.00  0.00    +0.000 OA
ATOM     20  H   UNL     1      -8.673  -6.112  18.909  0.00  0.00    +0.000 HD
ENDBRANCH  18  19
ENDBRANCH  12  13
ENDBRANCH   1  11
TORSDOF 5
ENDMDL
MODEL 8
REMARK VINA RESULT:      -5.2      3.256      7.301
REMARK  Name = Resveratrol.pdbqt.pdb
REMARK  5 active torsions:
REMARK  status: ('A' for Active; 'I' for Inactive)
REMARK    1  A    between atoms: C_1  and  C_11
REMARK    2  A    between atoms: C_4  and  O_7
REMARK    3  A    between atoms: C_5  and  O_9
REMARK    4  A    between atoms: C_12  and  C_13
REMARK    5  A    between atoms: C_18  and  O_19
REMARK                            x       y       z     vdW  Elec       q    Type
REMARK                         _______ _______ _______ _____ _____    ______ ____
ROOT
ATOM      1  C   UNL     1      -9.846  -4.815  20.288  0.00  0.00    +0.000 A 
ATOM      2  C   UNL     1      -8.919  -5.497  19.502  0.00  0.00    +0.000 A 
ATOM      3  C   UNL     1     -10.612  -3.788  19.737  0.00  0.00    +0.000 A 
ATOM      4  C   UNL     1     -10.443  -3.451  18.396  0.00  0.00    +0.000 A 
ATOM      5  C   UNL     1      -8.765  -5.145  18.165  0.00  0.00    +0.000 A 
ATOM      6  C   UNL     1      -9.522  -4.123  17.600  0.00  0.00    +0.000 A 
ENDROOT
BRANCH   4   7
ATOM      7  O   UNL     1     -11.179  -2.451  17.831  0.00  0.00    +0.000 OA
ATOM      8  H   UNL     1     -11.603  -1.944  18.546  0.00  0.00    +0.000 HD
ENDBRANCH   4   7
BRANCH   5   9
ATOM      9  O   UNL     1      -7.850  -5.827  17.415  0.00  0.00    +0.000 OA
ATOM     10  H   UNL     1      -7.253  -6.296  18.023  0.00  0.00    +0.000 HD
ENDBRANCH   5   9
BRANCH   1  11
ATOM     11  C   UNL     1     -10.013  -5.166  21.660  0.00  0.00    +0.000 C 
ATOM     12  C   UNL     1     -10.153  -5.462  22.816  0.00  0.00    +0.000 C 
BRANCH  12  13
ATOM     13  C   UNL     1     -10.319  -5.813  24.188  0.00  0.00    +0.000 A 
ATOM     14  C   UNL     1      -9.207  -5.880  25.027  0.00  0.00    +0.000 A 
ATOM     15  C   UNL     1     -11.592  -6.089  24.687  0.00  0.00    +0.000 A 
ATOM     16  C   UNL     1      -9.366  -6.222  26.367  0.00  0.00    +0.000 A 
ATOM     17  C   UNL     1     -11.755  -6.432  26.026  0.00  0.00    +0.000 A 
ATOM     18  C   UNL     1     -10.640  -6.496  26.856  0.00  0.00    +0.000 A 
BRANCH  18  19
ATOM     19  O   UNL     1     -10.825  -6.835  28.165  0.00  0.00    +0.000 OA
ATOM     20  H   UNL     1     -10.094  -6.456  28.684  0.00  0.00    +0.000 HD
ENDBRANCH  18  19
ENDBRANCH  12  13
ENDBRANCH   1  11
TORSDOF 5
ENDMDL
MODEL 9
REMARK VINA RESULT:      -5.2      1.923      3.307
REMARK  Name = Resveratrol.pdbqt.pdb
REMARK  5 active torsions:
REMARK  status: ('A' for Active; 'I' for Inactive)
REMARK    1  A    between atoms: C_1  and  C_11
REMARK    2  A    between atoms: C_4  and  O_7
REMARK    3  A    between atoms: C_5  and  O_9
REMARK    4  A    between atoms: C_12  and  C_13
REMARK    5  A    between atoms: C_18  and  O_19
REMARK                            x       y       z     vdW  Elec       q    Type
REMARK                         _______ _______ _______ _____ _____    ______ ____
ROOT
ATOM      1  C   UNL     1     -10.423  -1.237  21.998  0.00  0.00    +0.000 A 
ATOM      2  C   UNL     1     -10.233   0.123  21.752  0.00  0.00    +0.000 A 
ATOM      3  C   UNL     1     -10.950  -1.663  23.216  0.00  0.00    +0.000 A 
ATOM      4  C   UNL     1     -11.285  -0.720  24.185  0.00  0.00    +0.000 A 
ATOM      5  C   UNL     1     -10.573   1.048  22.734  0.00  0.00    +0.000 A 
ATOM      6  C   UNL     1     -11.101   0.639  23.954  0.00  0.00    +0.000 A 
ENDROOT
BRANCH   4   7
ATOM      7  O   UNL     1     -11.803  -1.108  25.386  0.00  0.00    +0.000 OA
ATOM      8  H   UNL     1     -11.178  -1.731  25.799  0.00  0.00    +0.000 HD
ENDBRANCH   4   7
BRANCH   5   9
ATOM      9  O   UNL     1     -10.379   2.374  22.471  0.00  0.00    +0.000 OA
ATOM     10  H   UNL     1     -10.853   2.887  23.149  0.00  0.00    +0.000 HD
ENDBRANCH   5   9
BRANCH   1  11
ATOM     11  C   UNL     1     -10.077  -2.196  21.001  0.00  0.00    +0.000 C 
ATOM     12  C   UNL     1      -9.785  -3.003  20.160  0.00  0.00    +0.000 C 
BRANCH  12  13
ATOM     13  C   UNL     1      -9.439  -3.963  19.164  0.00  0.00    +0.000 A 
ATOM     14  C   UNL     1      -9.935  -3.828  17.867  0.00  0.00    +0.000 A 
ATOM     15  C   UNL     1      -8.605  -5.033  19.488  0.00  0.00    +0.000 A 
ATOM     16  C   UNL     1      -9.598  -4.763  16.893  0.00  0.00    +0.000 A 
ATOM     17  C   UNL     1      -8.266  -5.970  18.517  0.00  0.00    +0.000 A 
ATOM     18  C   UNL     1      -8.766  -5.828  17.226  0.00  0.00    +0.000 A 
BRANCH  18  19
ATOM     19  O   UNL     1      -8.419  -6.759  16.291  0.00  0.00    +0.000 OA
ATOM     20  H   UNL     1      -8.819  -7.610  16.544  0.00  0.00    +0.000 HD
ENDBRANCH  18  19
ENDBRANCH  12  13
ENDBRANCH   1  11
TORSDOF 5
ENDMDL
