MODEL 1
REMARK VINA RESULT:      -6.3      0.000      0.000
REMARK  Name = RetinoicAcid.pdbqt.pdb
REMARK  6 active torsions:
REMARK  status: ('A' for Active; 'I' for Inactive)
REMARK    1  A    between atoms: C_1  and  C_3
REMARK    2  A    between atoms: C_1  and  C_5
REMARK    3  A    between atoms: C_3  and  C_15
REMARK    4  A    between atoms: C_4  and  C_9
REMARK    5  A    between atoms: C_16  and  C_17
REMARK    6  A    between atoms: C_21  and  O_22
REMARK                            x       y       z     vdW  Elec       q    Type
REMARK                         _______ _______ _______ _____ _____    ______ ____
ROOT
ATOM      1  C   UNL     1       5.396  -5.366  12.911  0.00  0.00    +0.000 C 
ATOM      2  C   UNL     1       6.092  -4.723  11.751  0.00  0.00    +0.000 C 
ENDROOT
BRANCH   1   4
ATOM      3  C   UNL     1       4.760  -7.905  12.813  0.00  0.00    +0.000 C 
ATOM      4  C   UNL     1       5.046  -6.737  12.858  0.00  0.00    +0.000 C 
BRANCH   3   8
ATOM      5  C   UNL     1       5.237 -10.331  13.622  0.00  0.00    +0.000 C 
ATOM      6  C   UNL     1       4.679 -11.683  13.384  0.00  0.00    +0.000 C 
ATOM      7  C   UNL     1       3.600 -12.403  12.599  0.00  0.00    +0.000 C 
ATOM      8  C   UNL     1       4.423  -9.307  12.762  0.00  0.00    +0.000 C 
ATOM      9  C   UNL     1       3.099 -11.126  11.960  0.00  0.00    +0.000 C 
ATOM     10  C   UNL     1       3.403  -9.736  11.978  0.00  0.00    +0.000 C 
ATOM     11  C   UNL     1       6.726 -10.290  13.182  0.00  0.00    +0.000 C 
ATOM     12  C   UNL     1       5.085  -9.953  15.123  0.00  0.00    +0.000 C 
ATOM     13  C   UNL     1       2.551  -8.836  11.125  0.00  0.00    +0.000 C 
ENDBRANCH   3   8
ENDBRANCH   1   4
BRANCH   1  14
ATOM     14  C   UNL     1       5.071  -4.654  13.945  0.00  0.00    +0.000 C 
BRANCH  14  15
ATOM     15  C   UNL     1       4.686  -3.811  15.167  0.00  0.00    +0.000 C 
ATOM     16  C   UNL     1       4.383  -3.152  16.123  0.00  0.00    +0.000 C 
BRANCH  16  17
ATOM     17  C   UNL     1       4.024  -2.379  17.254  0.00  0.00    +0.000 C 
ATOM     18  C   UNL     1       3.337  -3.032  18.414  0.00  0.00    +0.000 C 
ATOM     19  C   UNL     1       4.259  -1.110  17.271  0.00  0.00    +0.000 C 
ATOM     20  O   UNL     1       5.621   0.747  17.574  0.00  0.00    +0.000 OA
ATOM     21  C   UNL     1       4.534   0.283  17.283  0.00  0.00    +0.000 C 
BRANCH  21  22
ATOM     22  O   UNL     1       3.492   1.049  16.921  0.00  0.00    +0.000 OA
ATOM     23  H   UNL     1       3.785   1.476  16.089  0.00  0.00    +0.000 HD
ENDBRANCH  21  22
ENDBRANCH  16  17
ENDBRANCH  14  15
ENDBRANCH   1  14
TORSDOF 6
ENDMDL
MODEL 2
REMARK VINA RESULT:      -6.3      1.781      2.251
REMARK  Name = RetinoicAcid.pdbqt.pdb
REMARK  6 active torsions:
REMARK  status: ('A' for Active; 'I' for Inactive)
REMARK    1  A    between atoms: C_1  and  C_3
REMARK    2  A    between atoms: C_1  and  C_5
REMARK    3  A    between atoms: C_3  and  C_15
REMARK    4  A    between atoms: C_4  and  C_9
REMARK    5  A    between atoms: C_16  and  C_17
REMARK    6  A    between atoms: C_21  and  O_22
REMARK                            x       y       z     vdW  Elec       q    Type
REMARK                         _______ _______ _______ _____ _____    ______ ____
ROOT
ATOM      1  C   UNL     1       5.347  -5.229  12.901  0.00  0.00    +0.000 C 
ATOM      2  C   UNL     1       5.984  -4.550  11.728  0.00  0.00    +0.000 C 
ENDROOT
BRANCH   1   4
ATOM      3  C   UNL     1       4.745  -7.775  12.772  0.00  0.00    +0.000 C 
ATOM      4  C   UNL     1       5.016  -6.604  12.831  0.00  0.00    +0.000 C 
BRANCH   3   8
ATOM      5  C   UNL     1       5.242 -10.202  13.565  0.00  0.00    +0.000 C 
ATOM      6  C   UNL     1       4.705 -11.559  13.308  0.00  0.00    +0.000 C 
ATOM      7  C   UNL     1       3.646 -12.285  12.501  0.00  0.00    +0.000 C 
ATOM      8  C   UNL     1       4.426  -9.181  12.703  0.00  0.00    +0.000 C 
ATOM      9  C   UNL     1       3.137 -11.009  11.866  0.00  0.00    +0.000 C 
ATOM     10  C   UNL     1       3.422  -9.615  11.902  0.00  0.00    +0.000 C 
ATOM     11  C   UNL     1       6.736 -10.138  13.146  0.00  0.00    +0.000 C 
ATOM     12  C   UNL     1       5.064  -9.840  15.067  0.00  0.00    +0.000 C 
ATOM     13  C   UNL     1       2.571  -8.719  11.045  0.00  0.00    +0.000 C 
ENDBRANCH   3   8
ENDBRANCH   1   4
BRANCH   1  14
ATOM     14  C   UNL     1       5.055  -4.546  13.963  0.00  0.00    +0.000 C 
BRANCH  14  15
ATOM     15  C   UNL     1       4.709  -3.736  15.219  0.00  0.00    +0.000 C 
ATOM     16  C   UNL     1       4.436  -3.103  16.202  0.00  0.00    +0.000 C 
BRANCH  16  17
ATOM     17  C   UNL     1       4.113  -2.361  17.363  0.00  0.00    +0.000 C 
ATOM     18  C   UNL     1       4.206  -0.866  17.341  0.00  0.00    +0.000 C 
ATOM     19  C   UNL     1       3.771  -2.972  18.447  0.00  0.00    +0.000 C 
ATOM     20  O   UNL     1       2.252  -4.059  19.829  0.00  0.00    +0.000 OA
ATOM     21  C   UNL     1       3.383  -3.656  19.630  0.00  0.00    +0.000 C 
BRANCH  21  22
ATOM     22  O   UNL     1       4.384  -3.841  20.507  0.00  0.00    +0.000 OA
ATOM     23  H   UNL     1       4.851  -2.980  20.523  0.00  0.00    +0.000 HD
ENDBRANCH  21  22
ENDBRANCH  16  17
ENDBRANCH  14  15
ENDBRANCH   1  14
TORSDOF 6
ENDMDL
MODEL 3
REMARK VINA RESULT:      -6.0     14.372     18.230
REMARK  Name = RetinoicAcid.pdbqt.pdb
REMARK  6 active torsions:
REMARK  status: ('A' for Active; 'I' for Inactive)
REMARK    1  A    between atoms: C_1  and  C_3
REMARK    2  A    between atoms: C_1  and  C_5
REMARK    3  A    between atoms: C_3  and  C_15
REMARK    4  A    between atoms: C_4  and  C_9
REMARK    5  A    between atoms: C_16  and  C_17
REMARK    6  A    between atoms: C_21  and  O_22
REMARK                            x       y       z     vdW  Elec       q    Type
REMARK                         _______ _______ _______ _____ _____    ______ ____
ROOT
ATOM      1  C   UNL     1      -8.019   0.689  21.609  0.00  0.00    +0.000 C 
ATOM      2  C   UNL     1      -7.254   0.936  22.873  0.00  0.00    +0.000 C 
ENDROOT
BRANCH   1   4
ATOM      3  C   UNL     1      -8.833   2.713  20.160  0.00  0.00    +0.000 C 
ATOM      4  C   UNL     1      -8.458   1.780  20.821  0.00  0.00    +0.000 C 
BRANCH   3   8
ATOM      5  C   UNL     1      -8.866   3.943  17.868  0.00  0.00    +0.000 C 
ATOM      6  C   UNL     1      -9.465   5.177  17.307  0.00  0.00    +0.000 C 
ATOM      7  C   UNL     1     -10.333   6.359  17.694  0.00  0.00    +0.000 C 
ATOM      8  C   UNL     1      -9.282   3.837  19.373  0.00  0.00    +0.000 C 
ATOM      9  C   UNL     1     -10.490   5.882  19.121  0.00  0.00    +0.000 C 
ATOM     10  C   UNL     1     -10.065   4.793  19.933  0.00  0.00    +0.000 C 
ATOM     11  C   UNL     1      -7.318   4.018  17.775  0.00  0.00    +0.000 C 
ATOM     12  C   UNL     1      -9.414   2.700  17.111  0.00  0.00    +0.000 C 
ATOM     13  C   UNL     1     -10.531   4.780  21.363  0.00  0.00    +0.000 C 
ENDBRANCH   3   8
ENDBRANCH   1   4
BRANCH   1  14
ATOM     14  C   UNL     1      -8.320  -0.523  21.262  0.00  0.00    +0.000 C 
BRANCH  14  15
ATOM     15  C   UNL     1      -8.676  -1.957  20.849  0.00  0.00    +0.000 C 
ATOM     16  C   UNL     1      -8.954  -3.079  20.528  0.00  0.00    +0.000 C 
BRANCH  16  17
ATOM     17  C   UNL     1      -9.285  -4.404  20.154  0.00  0.00    +0.000 C 
ATOM     18  C   UNL     1      -9.866  -5.341  21.168  0.00  0.00    +0.000 C 
ATOM     19  C   UNL     1      -9.056  -4.813  18.951  0.00  0.00    +0.000 C 
ATOM     20  O   UNL     1      -9.567  -5.021  16.695  0.00  0.00    +0.000 OA
ATOM     21  C   UNL     1      -8.811  -5.247  17.622  0.00  0.00    +0.000 C 
BRANCH  21  22
ATOM     22  O   UNL     1      -7.655  -5.913  17.468  0.00  0.00    +0.000 OA
ATOM     23  H   UNL     1      -7.666  -6.581  18.185  0.00  0.00    +0.000 HD
ENDBRANCH  21  22
ENDBRANCH  16  17
ENDBRANCH  14  15
ENDBRANCH   1  14
TORSDOF 6
ENDMDL
MODEL 4
REMARK VINA RESULT:      -5.9     14.780     16.336
REMARK  Name = RetinoicAcid.pdbqt.pdb
REMARK  6 active torsions:
REMARK  status: ('A' for Active; 'I' for Inactive)
REMARK    1  A    between atoms: C_1  and  C_3
REMARK    2  A    between atoms: C_1  and  C_5
REMARK    3  A    between atoms: C_3  and  C_15
REMARK    4  A    between atoms: C_4  and  C_9
REMARK    5  A    between atoms: C_16  and  C_17
REMARK    6  A    between atoms: C_21  and  O_22
REMARK                            x       y       z     vdW  Elec       q    Type
REMARK                         _______ _______ _______ _____ _____    ______ ____
ROOT
ATOM      1  C   UNL     1      -9.595   1.837  20.747  0.00  0.00    +0.000 C 
ATOM      2  C   UNL     1     -10.424   2.442  21.837  0.00  0.00    +0.000 C 
ENDROOT
BRANCH   1   4
ATOM      3  C   UNL     1      -9.439  -0.768  20.521  0.00  0.00    +0.000 C 
ATOM      4  C   UNL     1      -9.509   0.429  20.619  0.00  0.00    +0.000 C 
BRANCH   3   8
ATOM      5  C   UNL     1      -8.737  -3.039  21.578  0.00  0.00    +0.000 C 
ATOM      6  C   UNL     1      -8.789  -4.472  21.203  0.00  0.00    +0.000 C 
ATOM      7  C   UNL     1      -9.235  -5.393  20.084  0.00  0.00    +0.000 C 
ATOM      8  C   UNL     1      -9.360  -2.205  20.409  0.00  0.00    +0.000 C 
ATOM      9  C   UNL     1      -9.737  -4.249  19.232  0.00  0.00    +0.000 C 
ATOM     10  C   UNL     1      -9.829  -2.830  19.300  0.00  0.00    +0.000 C 
ATOM     11  C   UNL     1      -7.262  -2.600  21.781  0.00  0.00    +0.000 C 
ATOM     12  C   UNL     1      -9.577  -2.799  22.864  0.00  0.00    +0.000 C 
ATOM     13  C   UNL     1     -10.457  -2.125  18.129  0.00  0.00    +0.000 C 
ENDBRANCH   3   8
ENDBRANCH   1   4
BRANCH   1  14
ATOM     14  C   UNL     1      -8.917   2.602  19.950  0.00  0.00    +0.000 C 
BRANCH  14  15
ATOM     15  C   UNL     1      -8.116   3.506  19.005  0.00  0.00    +0.000 C 
ATOM     16  C   UNL     1      -7.487   4.213  18.265  0.00  0.00    +0.000 C 
BRANCH  16  17
ATOM     17  C   UNL     1      -6.746   5.042  17.390  0.00  0.00    +0.000 C 
ATOM     18  C   UNL     1      -5.367   4.634  16.967  0.00  0.00    +0.000 C 
ATOM     19  C   UNL     1      -7.243   6.161  16.983  0.00  0.00    +0.000 C 
ATOM     20  O   UNL     1      -8.586   7.458  15.600  0.00  0.00    +0.000 OA
ATOM     21  C   UNL     1      -7.805   7.384  16.531  0.00  0.00    +0.000 C 
BRANCH  21  22
ATOM     22  O   UNL     1      -7.419   8.458  17.239  0.00  0.00    +0.000 OA
ATOM     23  H   UNL     1      -8.252   8.944  17.412  0.00  0.00    +0.000 HD
ENDBRANCH  21  22
ENDBRANCH  16  17
ENDBRANCH  14  15
ENDBRANCH   1  14
TORSDOF 6
ENDMDL
MODEL 5
REMARK VINA RESULT:      -5.9     16.827     19.512
REMARK  Name = RetinoicAcid.pdbqt.pdb
REMARK  6 active torsions:
REMARK  status: ('A' for Active; 'I' for Inactive)
REMARK    1  A    between atoms: C_1  and  C_3
REMARK    2  A    between atoms: C_1  and  C_5
REMARK    3  A    between atoms: C_3  and  C_15
REMARK    4  A    between atoms: C_4  and  C_9
REMARK    5  A    between atoms: C_16  and  C_17
REMARK    6  A    between atoms: C_21  and  O_22
REMARK                            x       y       z     vdW  Elec       q    Type
REMARK                         _______ _______ _______ _____ _____    ______ ____
ROOT
ATOM      1  C   UNL     1     -11.194  -0.741  23.172  0.00  0.00    +0.000 C 
ATOM      2  C   UNL     1     -10.221   0.022  24.017  0.00  0.00    +0.000 C 
ENDROOT
BRANCH   1   4
ATOM      3  C   UNL     1     -10.318  -2.385  21.331  0.00  0.00    +0.000 C 
ATOM      4  C   UNL     1     -10.723  -1.627  22.172  0.00  0.00    +0.000 C 
BRANCH   3   8
ATOM      5  C   UNL     1      -9.083  -4.604  20.764  0.00  0.00    +0.000 C 
ATOM      6  C   UNL     1      -8.702  -5.352  19.543  0.00  0.00    +0.000 C 
ATOM      7  C   UNL     1      -8.788  -5.282  18.031  0.00  0.00    +0.000 C 
ATOM      8  C   UNL     1      -9.829  -3.299  20.326  0.00  0.00    +0.000 C 
ATOM      9  C   UNL     1      -9.528  -3.963  18.052  0.00  0.00    +0.000 C 
ATOM     10  C   UNL     1     -10.022  -3.033  19.010  0.00  0.00    +0.000 C 
ATOM     11  C   UNL     1      -7.810  -4.214  21.563  0.00  0.00    +0.000 C 
ATOM     12  C   UNL     1     -10.047  -5.463  21.630  0.00  0.00    +0.000 C 
ATOM     13  C   UNL     1     -10.735  -1.819  18.484  0.00  0.00    +0.000 C 
ENDBRANCH   3   8
ENDBRANCH   1   4
BRANCH   1  14
ATOM     14  C   UNL     1     -12.468  -0.555  23.324  0.00  0.00    +0.000 C 
BRANCH  14  15
ATOM     15  C   UNL     1     -13.974  -0.332  23.506  0.00  0.00    +0.000 C 
ATOM     16  C   UNL     1     -15.153  -0.157  23.650  0.00  0.00    +0.000 C 
BRANCH  16  17
ATOM     17  C   UNL     1     -16.543   0.055  23.816  0.00  0.00    +0.000 C 
ATOM     18  C   UNL     1     -17.169  -0.137  25.163  0.00  0.00    +0.000 C 
ATOM     19  C   UNL     1     -17.273   0.381  22.803  0.00  0.00    +0.000 C 
ATOM     20  O   UNL     1     -18.153   1.897  21.278  0.00  0.00    +0.000 OA
ATOM     21  C   UNL     1     -18.065   0.753  21.684  0.00  0.00    +0.000 C 
BRANCH  21  22
ATOM     22  O   UNL     1     -18.693  -0.277  21.093  0.00  0.00    +0.000 OA
ATOM     23  H   UNL     1     -18.234  -1.069  21.441  0.00  0.00    +0.000 HD
ENDBRANCH  21  22
ENDBRANCH  16  17
ENDBRANCH  14  15
ENDBRANCH   1  14
TORSDOF 6
ENDMDL
MODEL 6
REMARK VINA RESULT:      -5.9     13.933     15.576
REMARK  Name = RetinoicAcid.pdbqt.pdb
REMARK  6 active torsions:
REMARK  status: ('A' for Active; 'I' for Inactive)
REMARK    1  A    between atoms: C_1  and  C_3
REMARK    2  A    between atoms: C_1  and  C_5
REMARK    3  A    between atoms: C_3  and  C_15
REMARK    4  A    between atoms: C_4  and  C_9
REMARK    5  A    between atoms: C_16  and  C_17
REMARK    6  A    between atoms: C_21  and  O_22
REMARK                            x       y       z     vdW  Elec       q    Type
REMARK                         _______ _______ _______ _____ _____    ______ ____
ROOT
ATOM      1  C   UNL     1      -9.280   2.027  20.692  0.00  0.00    +0.000 C 
ATOM      2  C   UNL     1     -10.304   2.743  21.518  0.00  0.00    +0.000 C 
ENDROOT
BRANCH   1   4
ATOM      3  C   UNL     1      -9.305  -0.589  20.555  0.00  0.00    +0.000 C 
ATOM      4  C   UNL     1      -9.295   0.613  20.612  0.00  0.00    +0.000 C 
BRANCH   3   8
ATOM      5  C   UNL     1      -8.723  -2.861  21.680  0.00  0.00    +0.000 C 
ATOM      6  C   UNL     1      -8.871  -4.300  21.359  0.00  0.00    +0.000 C 
ATOM      7  C   UNL     1      -9.396  -5.230  20.283  0.00  0.00    +0.000 C 
ATOM      8  C   UNL     1      -9.317  -2.031  20.494  0.00  0.00    +0.000 C 
ATOM      9  C   UNL     1      -9.844  -4.087  19.398  0.00  0.00    +0.000 C 
ATOM     10  C   UNL     1      -9.847  -2.663  19.418  0.00  0.00    +0.000 C 
ATOM     11  C   UNL     1      -7.219  -2.509  21.841  0.00  0.00    +0.000 C 
ATOM     12  C   UNL     1      -9.519  -2.524  22.973  0.00  0.00    +0.000 C 
ATOM     13  C   UNL     1     -10.454  -1.963  18.233  0.00  0.00    +0.000 C 
ENDBRANCH   3   8
ENDBRANCH   1   4
BRANCH   1  14
ATOM     14  C   UNL     1      -8.350   2.699  20.090  0.00  0.00    +0.000 C 
BRANCH  14  15
ATOM     15  C   UNL     1      -7.251   3.495  19.374  0.00  0.00    +0.000 C 
ATOM     16  C   UNL     1      -6.389   4.116  18.815  0.00  0.00    +0.000 C 
BRANCH  16  17
ATOM     17  C   UNL     1      -5.371   4.844  18.153  0.00  0.00    +0.000 C 
ATOM     18  C   UNL     1      -5.711   5.672  16.951  0.00  0.00    +0.000 C 
ATOM     19  C   UNL     1      -4.150   4.768  18.563  0.00  0.00    +0.000 C 
ATOM     20  O   UNL     1      -2.388   5.348  19.961  0.00  0.00    +0.000 OA
ATOM     21  C   UNL     1      -2.812   4.686  19.031  0.00  0.00    +0.000 C 
BRANCH  21  22
ATOM     22  O   UNL     1      -2.055   3.794  18.372  0.00  0.00    +0.000 OA
ATOM     23  H   UNL     1      -1.363   3.542  19.019  0.00  0.00    +0.000 HD
ENDBRANCH  21  22
ENDBRANCH  16  17
ENDBRANCH  14  15
ENDBRANCH   1  14
TORSDOF 6
ENDMDL
MODEL 7
REMARK VINA RESULT:      -5.7     12.994     15.954
REMARK  Name = RetinoicAcid.pdbqt.pdb
REMARK  6 active torsions:
REMARK  status: ('A' for Active; 'I' for Inactive)
REMARK    1  A    between atoms: C_1  and  C_3
REMARK    2  A    between atoms: C_1  and  C_5
REMARK    3  A    between atoms: C_3  and  C_15
REMARK    4  A    between atoms: C_4  and  C_9
REMARK    5  A    between atoms: C_16  and  C_17
REMARK    6  A    between atoms: C_21  and  O_22
REMARK                            x       y       z     vdW  Elec       q    Type
REMARK                         _______ _______ _______ _____ _____    ______ ____
ROOT
ATOM      1  C   UNL     1      -7.396   0.841  21.943  0.00  0.00    +0.000 C 
ATOM      2  C   UNL     1      -8.225   2.080  22.089  0.00  0.00    +0.000 C 
ENDROOT
BRANCH   1   4
ATOM      3  C   UNL     1      -4.826   0.903  22.444  0.00  0.00    +0.000 C 
ATOM      4  C   UNL     1      -6.007   0.880  22.215  0.00  0.00    +0.000 C 
BRANCH   3   8
ATOM      5  C   UNL     1      -2.879   0.452  24.109  0.00  0.00    +0.000 C 
ATOM      6  C   UNL     1      -1.402   0.571  24.109  0.00  0.00    +0.000 C 
ATOM      7  C   UNL     1      -0.243   0.992  23.227  0.00  0.00    +0.000 C 
ATOM      8  C   UNL     1      -3.408   0.925  22.714  0.00  0.00    +0.000 C 
ATOM      9  C   UNL     1      -1.148   1.347  22.068  0.00  0.00    +0.000 C 
ATOM     10  C   UNL     1      -2.539   1.346  21.763  0.00  0.00    +0.000 C 
ATOM     11  C   UNL     1      -3.482   1.362  25.214  0.00  0.00    +0.000 C 
ATOM     12  C   UNL     1      -3.289  -1.034  24.320  0.00  0.00    +0.000 C 
ATOM     13  C   UNL     1      -2.940   1.808  20.389  0.00  0.00    +0.000 C 
ENDBRANCH   3   8
ENDBRANCH   1   4
BRANCH   1  14
ATOM     14  C   UNL     1      -7.942  -0.256  21.520  0.00  0.00    +0.000 C 
BRANCH  14  15
ATOM     15  C   UNL     1      -8.588  -1.554  21.018  0.00  0.00    +0.000 C 
ATOM     16  C   UNL     1      -9.096  -2.568  20.626  0.00  0.00    +0.000 C 
BRANCH  16  17
ATOM     17  C   UNL     1      -9.698  -3.762  20.160  0.00  0.00    +0.000 C 
ATOM     18  C   UNL     1     -11.079  -4.125  20.615  0.00  0.00    +0.000 C 
ATOM     19  C   UNL     1      -9.047  -4.550  19.373  0.00  0.00    +0.000 C 
ATOM     20  O   UNL     1      -8.254  -5.221  17.295  0.00  0.00    +0.000 OA
ATOM     21  C   UNL     1      -8.326  -5.404  18.496  0.00  0.00    +0.000 C 
BRANCH  21  22
ATOM     22  O   UNL     1      -7.707  -6.423  19.113  0.00  0.00    +0.000 OA
ATOM     23  H   UNL     1      -8.426  -7.063  19.299  0.00  0.00    +0.000 HD
ENDBRANCH  21  22
ENDBRANCH  16  17
ENDBRANCH  14  15
ENDBRANCH   1  14
TORSDOF 6
ENDMDL
MODEL 8
REMARK VINA RESULT:      -5.6      7.514     10.783
REMARK  Name = RetinoicAcid.pdbqt.pdb
REMARK  6 active torsions:
REMARK  status: ('A' for Active; 'I' for Inactive)
REMARK    1  A    between atoms: C_1  and  C_3
REMARK    2  A    between atoms: C_1  and  C_5
REMARK    3  A    between atoms: C_3  and  C_15
REMARK    4  A    between atoms: C_4  and  C_9
REMARK    5  A    between atoms: C_16  and  C_17
REMARK    6  A    between atoms: C_21  and  O_22
REMARK                            x       y       z     vdW  Elec       q    Type
REMARK                         _______ _______ _______ _____ _____    ______ ____
ROOT
ATOM      1  C   UNL     1       2.716 -13.317  17.939  0.00  0.00    +0.000 C 
ATOM      2  C   UNL     1       3.623 -12.746  18.985  0.00  0.00    +0.000 C 
ENDROOT
BRANCH   1   4
ATOM      3  C   UNL     1       0.643 -14.752  18.649  0.00  0.00    +0.000 C 
ATOM      4  C   UNL     1       1.597 -14.097  18.320  0.00  0.00    +0.000 C 
BRANCH   3   8
ATOM      5  C   UNL     1      -1.769 -14.809  19.623  0.00  0.00    +0.000 C 
ATOM      6  C   UNL     1      -2.787 -15.838  19.939  0.00  0.00    +0.000 C 
ATOM      7  C   UNL     1      -3.017 -17.336  19.895  0.00  0.00    +0.000 C 
ATOM      8  C   UNL     1      -0.505 -15.531  19.047  0.00  0.00    +0.000 C 
ATOM      9  C   UNL     1      -1.647 -17.612  19.317  0.00  0.00    +0.000 C 
ATOM     10  C   UNL     1      -0.492 -16.881  18.917  0.00  0.00    +0.000 C 
ATOM     11  C   UNL     1      -1.371 -14.047  20.916  0.00  0.00    +0.000 C 
ATOM     12  C   UNL     1      -2.321 -13.834  18.545  0.00  0.00    +0.000 C 
ATOM     13  C   UNL     1       0.662 -17.670  18.365  0.00  0.00    +0.000 C 
ENDBRANCH   3   8
ENDBRANCH   1   4
BRANCH   1  14
ATOM     14  C   UNL     1       2.983 -13.137  16.684  0.00  0.00    +0.000 C 
BRANCH  14  15
ATOM     15  C   UNL     1       3.297 -12.926  15.197  0.00  0.00    +0.000 C 
ATOM     16  C   UNL     1       3.541 -12.760  14.034  0.00  0.00    +0.000 C 
BRANCH  16  17
ATOM     17  C   UNL     1       3.827 -12.559  12.662  0.00  0.00    +0.000 C 
ATOM     18  C   UNL     1       4.089 -13.739  11.776  0.00  0.00    +0.000 C 
ATOM     19  C   UNL     1       3.894 -11.363  12.183  0.00  0.00    +0.000 C 
ATOM     20  O   UNL     1       2.967  -9.408  11.336  0.00  0.00    +0.000 OA
ATOM     21  C   UNL     1       3.953 -10.041  11.666  0.00  0.00    +0.000 C 
BRANCH  21  22
ATOM     22  O   UNL     1       5.196  -9.538  11.592  0.00  0.00    +0.000 OA
ATOM     23  H   UNL     1       5.669 -10.153  10.994  0.00  0.00    +0.000 HD
ENDBRANCH  21  22
ENDBRANCH  16  17
ENDBRANCH  14  15
ENDBRANCH   1  14
TORSDOF 6
ENDMDL
MODEL 9
REMARK VINA RESULT:      -5.5     15.850     18.386
REMARK  Name = RetinoicAcid.pdbqt.pdb
REMARK  6 active torsions:
REMARK  status: ('A' for Active; 'I' for Inactive)
REMARK    1  A    between atoms: C_1  and  C_3
REMARK    2  A    between atoms: C_1  and  C_5
REMARK    3  A    between atoms: C_3  and  C_15
REMARK    4  A    between atoms: C_4  and  C_9
REMARK    5  A    between atoms: C_16  and  C_17
REMARK    6  A    between atoms: C_21  and  O_22
REMARK                            x       y       z     vdW  Elec       q    Type
REMARK                         _______ _______ _______ _____ _____    ______ ____
ROOT
ATOM      1  C   UNL     1      -8.341  -3.145  24.640  0.00  0.00    +0.000 C 
ATOM      2  C   UNL     1      -7.486  -2.094  25.279  0.00  0.00    +0.000 C 
ENDROOT
BRANCH   1   4
ATOM      3  C   UNL     1      -9.152  -2.846  22.168  0.00  0.00    +0.000 C 
ATOM      4  C   UNL     1      -8.778  -2.989  23.302  0.00  0.00    +0.000 C 
BRANCH   3   8
ATOM      5  C   UNL     1     -10.041  -3.913  19.968  0.00  0.00    +0.000 C 
ATOM      6  C   UNL     1     -10.457  -3.443  18.625  0.00  0.00    +0.000 C 
ATOM      7  C   UNL     1     -10.598  -2.180  17.798  0.00  0.00    +0.000 C 
ATOM      8  C   UNL     1      -9.601  -2.667  20.808  0.00  0.00    +0.000 C 
ATOM      9  C   UNL     1     -10.101  -1.293  18.919  0.00  0.00    +0.000 C 
ATOM     10  C   UNL     1      -9.648  -1.426  20.262  0.00  0.00    +0.000 C 
ATOM     11  C   UNL     1      -8.837  -4.885  19.838  0.00  0.00    +0.000 C 
ATOM     12  C   UNL     1     -11.241  -4.597  20.683  0.00  0.00    +0.000 C 
ATOM     13  C   UNL     1      -9.261  -0.165  20.984  0.00  0.00    +0.000 C 
ENDBRANCH   3   8
ENDBRANCH   1   4
BRANCH   1  14
ATOM     14  C   UNL     1      -8.722  -4.175  25.329  0.00  0.00    +0.000 C 
BRANCH  14  15
ATOM     15  C   UNL     1      -9.171  -5.393  26.146  0.00  0.00    +0.000 C 
ATOM     16  C   UNL     1      -9.524  -6.345  26.786  0.00  0.00    +0.000 C 
BRANCH  16  17
ATOM     17  C   UNL     1      -9.945  -7.468  27.539  0.00  0.00    +0.000 C 
ATOM     18  C   UNL     1      -9.887  -7.425  29.036  0.00  0.00    +0.000 C 
ATOM     19  C   UNL     1     -10.346  -8.536  26.938  0.00  0.00    +0.000 C 
ATOM     20  O   UNL     1     -11.931  -9.830  25.836  0.00  0.00    +0.000 OA
ATOM     21  C   UNL     1     -10.799  -9.702  26.265  0.00  0.00    +0.000 C 
BRANCH  21  22
ATOM     22  O   UNL     1      -9.858 -10.649  26.119  0.00  0.00    +0.000 OA
ATOM     23  H   UNL     1      -9.785 -10.768  25.149  0.00  0.00    +0.000 HD
ENDBRANCH  21  22
ENDBRANCH  16  17
ENDBRANCH  14  15
ENDBRANCH   1  14
TORSDOF 6
ENDMDL
