MODEL 1
REMARK VINA RESULT:      -7.6      0.000      0.000
REMARK  Name = SB_202190.pdbqt.pdb
REMARK  4 active torsions:
REMARK  status: ('A' for Active; 'I' for Inactive)
REMARK    1  A    between atoms: C_4  and  C_7
REMARK    2  A    between atoms: C_5  and  C_19
REMARK    3  A    between atoms: C_6  and  C_8
REMARK    4  A    between atoms: C_15  and  O_26
REMARK                            x       y       z     vdW  Elec       q    Type
REMARK                         _______ _______ _______ _____ _____    ______ ____
ROOT
ATOM      1  N   UNL     1      -9.917  -3.881  23.232  0.00  0.00    +0.000 N 
ATOM      2  N   UNL     1     -10.227  -5.665  21.985  0.00  0.00    +0.000 NA
ATOM      3  C   UNL     1      -9.525  -3.499  21.964  0.00  0.00    +0.000 A 
ATOM      4  C   UNL     1      -9.704  -4.652  21.212  0.00  0.00    +0.000 A 
ATOM      5  C   UNL     1     -10.348  -5.186  23.205  0.00  0.00    +0.000 A 
ATOM      6  H   UNL     1      -9.925  -3.287  24.049  0.00  0.00    +0.000 HD
ENDROOT
BRANCH   4   7
ATOM      7  C   UNL     1      -9.398  -4.860  19.812  0.00  0.00    +0.000 A 
ATOM      8  C   UNL     1     -10.052  -4.140  18.810  0.00  0.00    +0.000 A 
ATOM      9  C   UNL     1      -9.713  -4.320  17.471  0.00  0.00    +0.000 A 
ATOM     10  C   UNL     1      -8.701  -5.214  17.142  0.00  0.00    +0.000 A 
ATOM     11  F   UNL     1      -8.375  -5.393  15.854  0.00  0.00    +0.000 F 
ATOM     12  C   UNL     1      -8.025  -5.928  18.124  0.00  0.00    +0.000 A 
ATOM     13  C   UNL     1      -8.372  -5.741  19.460  0.00  0.00    +0.000 A 
ENDBRANCH   4   7
BRANCH   3  15
ATOM     14  N   UNL     1      -8.236   0.458  21.030  0.00  0.00    +0.000 NA
ATOM     15  C   UNL     1      -9.093  -2.138  21.661  0.00  0.00    +0.000 A 
ATOM     16  C   UNL     1      -7.928  -1.619  22.222  0.00  0.00    +0.000 A 
ATOM     17  C   UNL     1      -9.819  -1.348  20.770  0.00  0.00    +0.000 A 
ATOM     18  C   UNL     1      -7.549  -0.331  21.882  0.00  0.00    +0.000 A 
ATOM     19  C   UNL     1      -9.357  -0.070  20.497  0.00  0.00    +0.000 A 
ENDBRANCH   3  15
BRANCH   5  20
ATOM     20  C   UNL     1     -10.857  -5.903  24.368  0.00  0.00    +0.000 A 
ATOM     21  C   UNL     1      -9.966  -6.554  25.227  0.00  0.00    +0.000 A 
ATOM     22  C   UNL     1     -12.226  -5.956  24.648  0.00  0.00    +0.000 A 
ATOM     23  C   UNL     1     -10.429  -7.245  26.344  0.00  0.00    +0.000 A 
ATOM     24  C   UNL     1     -12.699  -6.645  25.762  0.00  0.00    +0.000 A 
ATOM     25  C   UNL     1     -11.796  -7.284  26.602  0.00  0.00    +0.000 A 
BRANCH  25  26
ATOM     26  O   UNL     1     -12.280  -7.952  27.689  0.00  0.00    +0.000 OA
ATOM     27  H   UNL     1     -12.045  -8.892  27.597  0.00  0.00    +0.000 HD
ENDBRANCH  25  26
ENDBRANCH   5  20
TORSDOF 4
ENDMDL
MODEL 2
REMARK VINA RESULT:      -7.6      3.438      6.609
REMARK  Name = SB_202190.pdbqt.pdb
REMARK  4 active torsions:
REMARK  status: ('A' for Active; 'I' for Inactive)
REMARK    1  A    between atoms: C_4  and  C_7
REMARK    2  A    between atoms: C_5  and  C_19
REMARK    3  A    between atoms: C_6  and  C_8
REMARK    4  A    between atoms: C_15  and  O_26
REMARK                            x       y       z     vdW  Elec       q    Type
REMARK                         _______ _______ _______ _____ _____    ______ ____
ROOT
ATOM      1  N   UNL     1     -10.345  -1.527  22.004  0.00  0.00    +0.000 N 
ATOM      2  N   UNL     1      -9.543  -1.414  19.961  0.00  0.00    +0.000 NA
ATOM      3  C   UNL     1     -10.200  -2.841  21.608  0.00  0.00    +0.000 A 
ATOM      4  C   UNL     1      -9.723  -2.735  20.309  0.00  0.00    +0.000 A 
ATOM      5  C   UNL     1      -9.926  -0.695  20.994  0.00  0.00    +0.000 A 
ATOM      6  H   UNL     1     -10.671  -1.218  22.909  0.00  0.00    +0.000 HD
ENDROOT
BRANCH   4   7
ATOM      7  C   UNL     1      -9.440  -3.802  19.372  0.00  0.00    +0.000 A 
ATOM      8  C   UNL     1      -9.891  -3.748  18.052  0.00  0.00    +0.000 A 
ATOM      9  C   UNL     1      -9.571  -4.762  17.152  0.00  0.00    +0.000 A 
ATOM     10  C   UNL     1      -8.780  -5.823  17.577  0.00  0.00    +0.000 A 
ATOM     11  F   UNL     1      -8.473  -6.802  16.715  0.00  0.00    +0.000 F 
ATOM     12  C   UNL     1      -8.305  -5.886  18.882  0.00  0.00    +0.000 A 
ATOM     13  C   UNL     1      -8.631  -4.868  19.775  0.00  0.00    +0.000 A 
ENDBRANCH   4   7
BRANCH   3  15
ATOM     14  N   UNL     1     -11.013  -6.142  24.186  0.00  0.00    +0.000 NA
ATOM     15  C   UNL     1     -10.489  -3.959  22.502  0.00  0.00    +0.000 A 
ATOM     16  C   UNL     1     -11.669  -4.689  22.372  0.00  0.00    +0.000 A 
ATOM     17  C   UNL     1      -9.567  -4.342  23.476  0.00  0.00    +0.000 A 
ATOM     18  C   UNL     1     -11.884  -5.755  23.230  0.00  0.00    +0.000 A 
ATOM     19  C   UNL     1      -9.876  -5.423  24.286  0.00  0.00    +0.000 A 
ENDBRANCH   3  15
BRANCH   5  20
ATOM     20  C   UNL     1      -9.918   0.761  21.084  0.00  0.00    +0.000 A 
ATOM     21  C   UNL     1      -9.364   1.517  20.047  0.00  0.00    +0.000 A 
ATOM     22  C   UNL     1     -10.458   1.424  22.190  0.00  0.00    +0.000 A 
ATOM     23  C   UNL     1      -9.345   2.908  20.110  0.00  0.00    +0.000 A 
ATOM     24  C   UNL     1     -10.444   2.815  22.262  0.00  0.00    +0.000 A 
ATOM     25  C   UNL     1      -9.888   3.546  21.220  0.00  0.00    +0.000 A 
BRANCH  25  26
ATOM     26  O   UNL     1      -9.885   4.908  21.312  0.00  0.00    +0.000 OA
ATOM     27  H   UNL     1     -10.778   5.229  21.095  0.00  0.00    +0.000 HD
ENDBRANCH  25  26
ENDBRANCH   5  20
TORSDOF 4
ENDMDL
MODEL 3
REMARK VINA RESULT:      -7.5      2.068      4.173
REMARK  Name = SB_202190.pdbqt.pdb
REMARK  4 active torsions:
REMARK  status: ('A' for Active; 'I' for Inactive)
REMARK    1  A    between atoms: C_4  and  C_7
REMARK    2  A    between atoms: C_5  and  C_19
REMARK    3  A    between atoms: C_6  and  C_8
REMARK    4  A    between atoms: C_15  and  O_26
REMARK                            x       y       z     vdW  Elec       q    Type
REMARK                         _______ _______ _______ _____ _____    ______ ____
ROOT
ATOM      1  N   UNL     1     -10.141  -5.572  21.887  0.00  0.00    +0.000 N 
ATOM      2  N   UNL     1      -9.799  -3.884  23.253  0.00  0.00    +0.000 NA
ATOM      3  C   UNL     1      -9.615  -4.574  21.092  0.00  0.00    +0.000 A 
ATOM      4  C   UNL     1      -9.440  -3.517  21.975  0.00  0.00    +0.000 A 
ATOM      5  C   UNL     1     -10.224  -5.128  23.185  0.00  0.00    +0.000 A 
ATOM      6  H   UNL     1     -10.392  -6.500  21.578  0.00  0.00    +0.000 HD
ENDROOT
BRANCH   4   7
ATOM      7  C   UNL     1      -8.968  -2.180  21.684  0.00  0.00    +0.000 A 
ATOM      8  C   UNL     1      -9.713  -1.302  20.893  0.00  0.00    +0.000 A 
ATOM      9  C   UNL     1      -9.267  -0.004  20.662  0.00  0.00    +0.000 A 
ATOM     10  C   UNL     1      -8.076   0.418  21.242  0.00  0.00    +0.000 A 
ATOM     11  F   UNL     1      -7.641   1.665  21.017  0.00  0.00    +0.000 F 
ATOM     12  C   UNL     1      -7.329  -0.433  22.047  0.00  0.00    +0.000 A 
ATOM     13  C   UNL     1      -7.783  -1.730  22.272  0.00  0.00    +0.000 A 
ENDBRANCH   4   7
BRANCH   3  15
ATOM     14  N   UNL     1      -8.833  -5.202  16.946  0.00  0.00    +0.000 NA
ATOM     15  C   UNL     1      -9.332  -4.777  19.674  0.00  0.00    +0.000 A 
ATOM     16  C   UNL     1      -8.388  -5.715  19.263  0.00  0.00    +0.000 A 
ATOM     17  C   UNL     1     -10.034  -4.062  18.704  0.00  0.00    +0.000 A 
ATOM     18  C   UNL     1      -8.175  -5.886  17.905  0.00  0.00    +0.000 A 
ATOM     19  C   UNL     1      -9.746  -4.304  17.370  0.00  0.00    +0.000 A 
ENDBRANCH   3  15
BRANCH   5  20
ATOM     20  C   UNL     1     -10.712  -5.937  24.297  0.00  0.00    +0.000 A 
ATOM     21  C   UNL     1      -9.803  -6.507  25.192  0.00  0.00    +0.000 A 
ATOM     22  C   UNL     1     -12.079  -6.155  24.491  0.00  0.00    +0.000 A 
ATOM     23  C   UNL     1     -10.246  -7.283  26.261  0.00  0.00    +0.000 A 
ATOM     24  C   UNL     1     -12.533  -6.929  25.557  0.00  0.00    +0.000 A 
ATOM     25  C   UNL     1     -11.611  -7.486  26.434  0.00  0.00    +0.000 A 
BRANCH  25  26
ATOM     26  O   UNL     1     -12.076  -8.241  27.471  0.00  0.00    +0.000 OA
ATOM     27  H   UNL     1     -12.889  -8.690  27.180  0.00  0.00    +0.000 HD
ENDBRANCH  25  26
ENDBRANCH   5  20
TORSDOF 4
ENDMDL
MODEL 4
REMARK VINA RESULT:      -7.2      4.322      7.541
REMARK  Name = SB_202190.pdbqt.pdb
REMARK  4 active torsions:
REMARK  status: ('A' for Active; 'I' for Inactive)
REMARK    1  A    between atoms: C_4  and  C_7
REMARK    2  A    between atoms: C_5  and  C_19
REMARK    3  A    between atoms: C_6  and  C_8
REMARK    4  A    between atoms: C_15  and  O_26
REMARK                            x       y       z     vdW  Elec       q    Type
REMARK                         _______ _______ _______ _____ _____    ______ ____
ROOT
ATOM      1  N   UNL     1     -10.446  -5.069  21.878  0.00  0.00    +0.000 N 
ATOM      2  N   UNL     1     -11.046  -3.139  21.013  0.00  0.00    +0.000 NA
ATOM      3  C   UNL     1     -11.161  -4.440  22.878  0.00  0.00    +0.000 A 
ATOM      4  C   UNL     1     -11.497  -3.218  22.312  0.00  0.00    +0.000 A 
ATOM      5  C   UNL     1     -10.410  -4.265  20.764  0.00  0.00    +0.000 A 
ATOM      6  H   UNL     1     -10.044  -5.994  21.935  0.00  0.00    +0.000 HD
ENDROOT
BRANCH   4   7
ATOM      7  C   UNL     1     -12.205  -2.114  22.928  0.00  0.00    +0.000 A 
ATOM      8  C   UNL     1     -13.525  -2.250  23.363  0.00  0.00    +0.000 A 
ATOM      9  C   UNL     1     -14.175  -1.193  23.994  0.00  0.00    +0.000 A 
ATOM     10  C   UNL     1     -13.490  -0.002  24.203  0.00  0.00    +0.000 A 
ATOM     11  F   UNL     1     -14.113   1.020  24.805  0.00  0.00    +0.000 F 
ATOM     12  C   UNL     1     -12.170   0.148  23.794  0.00  0.00    +0.000 A 
ATOM     13  C   UNL     1     -11.528  -0.915  23.163  0.00  0.00    +0.000 A 
ENDBRANCH   4   7
BRANCH   3  15
ATOM     14  N   UNL     1     -11.928  -6.354  26.612  0.00  0.00    +0.000 NA
ATOM     15  C   UNL     1     -11.439  -5.084  24.158  0.00  0.00    +0.000 A 
ATOM     16  C   UNL     1     -12.340  -6.144  24.242  0.00  0.00    +0.000 A 
ATOM     17  C   UNL     1     -10.776  -4.674  25.315  0.00  0.00    +0.000 A 
ATOM     18  C   UNL     1     -12.550  -6.736  25.476  0.00  0.00    +0.000 A 
ATOM     19  C   UNL     1     -11.058  -5.330  26.502  0.00  0.00    +0.000 A 
ENDBRANCH   3  15
BRANCH   5  20
ATOM     20  C   UNL     1      -9.758  -4.630  19.512  0.00  0.00    +0.000 A 
ATOM     21  C   UNL     1      -8.710  -5.554  19.519  0.00  0.00    +0.000 A 
ATOM     22  C   UNL     1     -10.161  -4.074  18.294  0.00  0.00    +0.000 A 
ATOM     23  C   UNL     1      -8.072  -5.918  18.335  0.00  0.00    +0.000 A 
ATOM     24  C   UNL     1      -9.530  -4.432  17.105  0.00  0.00    +0.000 A 
ATOM     25  C   UNL     1      -8.490  -5.352  17.136  0.00  0.00    +0.000 A 
BRANCH  25  26
ATOM     26  O   UNL     1      -7.886  -5.689  15.959  0.00  0.00    +0.000 OA
ATOM     27  H   UNL     1      -8.434  -6.361  15.518  0.00  0.00    +0.000 HD
ENDBRANCH  25  26
ENDBRANCH   5  20
TORSDOF 4
ENDMDL
MODEL 5
REMARK VINA RESULT:      -7.2      4.179      6.954
REMARK  Name = SB_202190.pdbqt.pdb
REMARK  4 active torsions:
REMARK  status: ('A' for Active; 'I' for Inactive)
REMARK    1  A    between atoms: C_4  and  C_7
REMARK    2  A    between atoms: C_5  and  C_19
REMARK    3  A    between atoms: C_6  and  C_8
REMARK    4  A    between atoms: C_15  and  O_26
REMARK                            x       y       z     vdW  Elec       q    Type
REMARK                         _______ _______ _______ _____ _____    ______ ____
ROOT
ATOM      1  N   UNL     1     -10.914  -3.408  20.950  0.00  0.00    +0.000 N 
ATOM      2  N   UNL     1     -10.243  -5.357  21.713  0.00  0.00    +0.000 NA
ATOM      3  C   UNL     1     -11.359  -3.449  22.256  0.00  0.00    +0.000 A 
ATOM      4  C   UNL     1     -10.947  -4.699  22.697  0.00  0.00    +0.000 A 
ATOM      5  C   UNL     1     -10.233  -4.566  20.661  0.00  0.00    +0.000 A 
ATOM      6  H   UNL     1     -11.032  -2.634  20.312  0.00  0.00    +0.000 HD
ENDROOT
BRANCH   4   7
ATOM      7  C   UNL     1     -11.190  -5.316  23.984  0.00  0.00    +0.000 A 
ATOM      8  C   UNL     1     -12.391  -5.974  24.260  0.00  0.00    +0.000 A 
ATOM      9  C   UNL     1     -12.590  -6.602  25.487  0.00  0.00    +0.000 A 
ATOM     10  C   UNL     1     -11.571  -6.582  26.433  0.00  0.00    +0.000 A 
ATOM     11  F   UNL     1     -11.760  -7.181  27.616  0.00  0.00    +0.000 F 
ATOM     12  C   UNL     1     -10.362  -5.949  26.172  0.00  0.00    +0.000 A 
ATOM     13  C   UNL     1     -10.173  -5.323  24.942  0.00  0.00    +0.000 A 
ENDBRANCH   4   7
BRANCH   3  15
ATOM     14  N   UNL     1     -13.401  -0.147  24.024  0.00  0.00    +0.000 NA
ATOM     15  C   UNL     1     -12.050  -2.324  22.879  0.00  0.00    +0.000 A 
ATOM     16  C   UNL     1     -11.412  -1.095  23.035  0.00  0.00    +0.000 A 
ATOM     17  C   UNL     1     -13.376  -2.448  23.291  0.00  0.00    +0.000 A 
ATOM     18  C   UNL     1     -12.120  -0.052  23.610  0.00  0.00    +0.000 A 
ATOM     19  C   UNL     1     -13.996  -1.346  23.857  0.00  0.00    +0.000 A 
ENDBRANCH   3  15
BRANCH   5  20
ATOM     20  C   UNL     1      -9.604  -4.847  19.375  0.00  0.00    +0.000 A 
ATOM     21  C   UNL     1      -8.529  -5.737  19.308  0.00  0.00    +0.000 A 
ATOM     22  C   UNL     1     -10.056  -4.242  18.198  0.00  0.00    +0.000 A 
ATOM     23  C   UNL     1      -7.913  -6.021  18.092  0.00  0.00    +0.000 A 
ATOM     24  C   UNL     1      -9.447  -4.519  16.977  0.00  0.00    +0.000 A 
ATOM     25  C   UNL     1      -8.380  -5.407  16.933  0.00  0.00    +0.000 A 
BRANCH  25  26
ATOM     26  O   UNL     1      -7.798  -5.665  15.726  0.00  0.00    +0.000 OA
ATOM     27  H   UNL     1      -8.467  -6.066  15.145  0.00  0.00    +0.000 HD
ENDBRANCH  25  26
ENDBRANCH   5  20
TORSDOF 4
ENDMDL
MODEL 6
REMARK VINA RESULT:      -6.6      4.217      7.240
REMARK  Name = SB_202190.pdbqt.pdb
REMARK  4 active torsions:
REMARK  status: ('A' for Active; 'I' for Inactive)
REMARK    1  A    between atoms: C_4  and  C_7
REMARK    2  A    between atoms: C_5  and  C_19
REMARK    3  A    between atoms: C_6  and  C_8
REMARK    4  A    between atoms: C_15  and  O_26
REMARK                            x       y       z     vdW  Elec       q    Type
REMARK                         _______ _______ _______ _____ _____    ______ ____
ROOT
ATOM      1  N   UNL     1     -10.862  -3.399  21.438  0.00  0.00    +0.000 N 
ATOM      2  N   UNL     1      -9.460  -1.874  20.701  0.00  0.00    +0.000 NA
ATOM      3  C   UNL     1     -11.033  -2.322  22.285  0.00  0.00    +0.000 A 
ATOM      4  C   UNL     1     -10.116  -1.393  21.813  0.00  0.00    +0.000 A 
ATOM      5  C   UNL     1      -9.919  -3.089  20.487  0.00  0.00    +0.000 A 
ATOM      6  H   UNL     1     -11.375  -4.268  21.481  0.00  0.00    +0.000 HD
ENDROOT
BRANCH   4   7
ATOM      7  C   UNL     1      -9.812  -0.085  22.355  0.00  0.00    +0.000 A 
ATOM      8  C   UNL     1      -9.115   0.059  23.556  0.00  0.00    +0.000 A 
ATOM      9  C   UNL     1      -8.790   1.324  24.040  0.00  0.00    +0.000 A 
ATOM     10  C   UNL     1      -9.152   2.446  23.303  0.00  0.00    +0.000 A 
ATOM     11  F   UNL     1      -8.845   3.665  23.767  0.00  0.00    +0.000 F 
ATOM     12  C   UNL     1      -9.830   2.324  22.096  0.00  0.00    +0.000 A 
ATOM     13  C   UNL     1     -10.151   1.055  21.621  0.00  0.00    +0.000 A 
ENDBRANCH   4   7
BRANCH   3  15
ATOM     14  N   UNL     1     -13.918  -2.281  25.427  0.00  0.00    +0.000 NA
ATOM     15  C   UNL     1     -12.030  -2.322  23.351  0.00  0.00    +0.000 A 
ATOM     16  C   UNL     1     -11.951  -3.235  24.401  0.00  0.00    +0.000 A 
ATOM     17  C   UNL     1     -13.058  -1.379  23.358  0.00  0.00    +0.000 A 
ATOM     18  C   UNL     1     -12.909  -3.177  25.400  0.00  0.00    +0.000 A 
ATOM     19  C   UNL     1     -13.968  -1.405  24.403  0.00  0.00    +0.000 A 
ENDBRANCH   3  15
BRANCH   5  20
ATOM     20  C   UNL     1      -9.510  -3.991  19.416  0.00  0.00    +0.000 A 
ATOM     21  C   UNL     1      -9.968  -3.774  18.114  0.00  0.00    +0.000 A 
ATOM     22  C   UNL     1      -8.663  -5.076  19.663  0.00  0.00    +0.000 A 
ATOM     23  C   UNL     1      -9.590  -4.621  17.075  0.00  0.00    +0.000 A 
ATOM     24  C   UNL     1      -8.280  -5.929  18.632  0.00  0.00    +0.000 A 
ATOM     25  C   UNL     1      -8.747  -5.694  17.345  0.00  0.00    +0.000 A 
BRANCH  25  26
ATOM     26  O   UNL     1      -8.359  -6.542  16.348  0.00  0.00    +0.000 OA
ATOM     27  H   UNL     1      -7.718  -7.174  16.719  0.00  0.00    +0.000 HD
ENDBRANCH  25  26
ENDBRANCH   5  20
TORSDOF 4
ENDMDL
MODEL 7
REMARK VINA RESULT:      -6.1      2.608      3.267
REMARK  Name = SB_202190.pdbqt.pdb
REMARK  4 active torsions:
REMARK  status: ('A' for Active; 'I' for Inactive)
REMARK    1  A    between atoms: C_4  and  C_7
REMARK    2  A    between atoms: C_5  and  C_19
REMARK    3  A    between atoms: C_6  and  C_8
REMARK    4  A    between atoms: C_15  and  O_26
REMARK                            x       y       z     vdW  Elec       q    Type
REMARK                         _______ _______ _______ _____ _____    ______ ____
ROOT
ATOM      1  N   UNL     1     -10.377  -2.141  24.046  0.00  0.00    +0.000 N 
ATOM      2  N   UNL     1     -11.587  -3.346  22.662  0.00  0.00    +0.000 NA
ATOM      3  C   UNL     1      -9.594  -2.275  22.917  0.00  0.00    +0.000 A 
ATOM      4  C   UNL     1     -10.371  -3.063  22.079  0.00  0.00    +0.000 A 
ATOM      5  C   UNL     1     -11.576  -2.784  23.853  0.00  0.00    +0.000 A 
ATOM      6  H   UNL     1     -10.130  -1.618  24.875  0.00  0.00    +0.000 HD
ENDROOT
BRANCH   4   7
ATOM      7  C   UNL     1     -10.031  -3.578  20.769  0.00  0.00    +0.000 A 
ATOM      8  C   UNL     1     -10.458  -2.938  19.604  0.00  0.00    +0.000 A 
ATOM      9  C   UNL     1     -10.084  -3.420  18.352  0.00  0.00    +0.000 A 
ATOM     10  C   UNL     1      -9.262  -4.539  18.274  0.00  0.00    +0.000 A 
ATOM     11  F   UNL     1      -8.903  -5.009  17.072  0.00  0.00    +0.000 F 
ATOM     12  C   UNL     1      -8.810  -5.180  19.422  0.00  0.00    +0.000 A 
ATOM     13  C   UNL     1      -9.192  -4.690  20.669  0.00  0.00    +0.000 A 
ENDBRANCH   4   7
BRANCH   3  15
ATOM     14  N   UNL     1      -5.790  -0.370  22.608  0.00  0.00    +0.000 NA
ATOM     15  C   UNL     1      -8.291  -1.629  22.793  0.00  0.00    +0.000 A 
ATOM     16  C   UNL     1      -8.183  -0.334  22.290  0.00  0.00    +0.000 A 
ATOM     17  C   UNL     1      -7.134  -2.283  23.214  0.00  0.00    +0.000 A 
ATOM     18  C   UNL     1      -6.926   0.243  22.215  0.00  0.00    +0.000 A 
ATOM     19  C   UNL     1      -5.923  -1.621  23.096  0.00  0.00    +0.000 A 
ENDBRANCH   3  15
BRANCH   5  20
ATOM     20  C   UNL     1     -12.653  -2.821  24.835  0.00  0.00    +0.000 A 
ATOM     21  C   UNL     1     -13.398  -1.667  25.092  0.00  0.00    +0.000 A 
ATOM     22  C   UNL     1     -12.962  -3.994  25.531  0.00  0.00    +0.000 A 
ATOM     23  C   UNL     1     -14.431  -1.678  26.026  0.00  0.00    +0.000 A 
ATOM     24  C   UNL     1     -13.993  -4.016  26.467  0.00  0.00    +0.000 A 
ATOM     25  C   UNL     1     -14.720  -2.856  26.707  0.00  0.00    +0.000 A 
BRANCH  25  26
ATOM     26  O   UNL     1     -15.726  -2.900  27.627  0.00  0.00    +0.000 OA
ATOM     27  H   UNL     1     -15.498  -3.569  28.296  0.00  0.00    +0.000 HD
ENDBRANCH  25  26
ENDBRANCH   5  20
TORSDOF 4
ENDMDL
MODEL 8
REMARK VINA RESULT:      -6.1     16.389     18.337
REMARK  Name = SB_202190.pdbqt.pdb
REMARK  4 active torsions:
REMARK  status: ('A' for Active; 'I' for Inactive)
REMARK    1  A    between atoms: C_4  and  C_7
REMARK    2  A    between atoms: C_5  and  C_19
REMARK    3  A    between atoms: C_6  and  C_8
REMARK    4  A    between atoms: C_15  and  O_26
REMARK                            x       y       z     vdW  Elec       q    Type
REMARK                         _______ _______ _______ _____ _____    ______ ____
ROOT
ATOM      1  N   UNL     1     -22.281  -2.486  11.025  0.00  0.00    +0.000 N 
ATOM      2  N   UNL     1     -21.640  -1.935   8.995  0.00  0.00    +0.000 NA
ATOM      3  C   UNL     1     -22.314  -3.667  10.310  0.00  0.00    +0.000 A 
ATOM      4  C   UNL     1     -21.935  -3.280   9.032  0.00  0.00    +0.000 A 
ATOM      5  C   UNL     1     -21.856  -1.467  10.207  0.00  0.00    +0.000 A 
ATOM      6  H   UNL     1     -22.496  -2.387  12.007  0.00  0.00    +0.000 HD
ENDROOT
BRANCH   4   7
ATOM      7  C   UNL     1     -21.849  -4.099   7.841  0.00  0.00    +0.000 A 
ATOM      8  C   UNL     1     -20.806  -5.010   7.659  0.00  0.00    +0.000 A 
ATOM      9  C   UNL     1     -20.764  -5.822   6.528  0.00  0.00    +0.000 A 
ATOM     10  C   UNL     1     -21.783  -5.728   5.587  0.00  0.00    +0.000 A 
ATOM     11  F   UNL     1     -21.743  -6.505   4.495  0.00  0.00    +0.000 F 
ATOM     12  C   UNL     1     -22.839  -4.842   5.757  0.00  0.00    +0.000 A 
ATOM     13  C   UNL     1     -22.872  -4.033   6.891  0.00  0.00    +0.000 A 
ENDBRANCH   4   7
BRANCH   3  15
ATOM     14  N   UNL     1     -23.347  -7.375  12.150  0.00  0.00    +0.000 NA
ATOM     15  C   UNL     1     -22.651  -4.944  10.933  0.00  0.00    +0.000 A 
ATOM     16  C   UNL     1     -22.118  -5.296  12.171  0.00  0.00    +0.000 A 
ATOM     17  C   UNL     1     -23.547  -5.817  10.316  0.00  0.00    +0.000 A 
ATOM     18  C   UNL     1     -22.489  -6.508  12.729  0.00  0.00    +0.000 A 
ATOM     19  C   UNL     1     -23.852  -7.008  10.955  0.00  0.00    +0.000 A 
ENDBRANCH   3  15
BRANCH   5  20
ATOM     20  C   UNL     1     -21.680  -0.087  10.643  0.00  0.00    +0.000 A 
ATOM     21  C   UNL     1     -21.903   0.252  11.981  0.00  0.00    +0.000 A 
ATOM     22  C   UNL     1     -21.289   0.914   9.749  0.00  0.00    +0.000 A 
ATOM     23  C   UNL     1     -21.741   1.563  12.421  0.00  0.00    +0.000 A 
ATOM     24  C   UNL     1     -21.125   2.229  10.179  0.00  0.00    +0.000 A 
ATOM     25  C   UNL     1     -21.352   2.542  11.513  0.00  0.00    +0.000 A 
BRANCH  25  26
ATOM     26  O   UNL     1     -21.185   3.836  11.913  0.00  0.00    +0.000 OA
ATOM     27  H   UNL     1     -20.973   3.836  12.863  0.00  0.00    +0.000 HD
ENDBRANCH  25  26
ENDBRANCH   5  20
TORSDOF 4
ENDMDL
MODEL 9
REMARK VINA RESULT:      -6.1      5.163      8.894
REMARK  Name = SB_202190.pdbqt.pdb
REMARK  4 active torsions:
REMARK  status: ('A' for Active; 'I' for Inactive)
REMARK    1  A    between atoms: C_4  and  C_7
REMARK    2  A    between atoms: C_5  and  C_19
REMARK    3  A    between atoms: C_6  and  C_8
REMARK    4  A    between atoms: C_15  and  O_26
REMARK                            x       y       z     vdW  Elec       q    Type
REMARK                         _______ _______ _______ _____ _____    ______ ____
ROOT
ATOM      1  N   UNL     1      -9.533  -0.001  19.962  0.00  0.00    +0.000 N 
ATOM      2  N   UNL     1      -8.273   1.261  21.248  0.00  0.00    +0.000 NA
ATOM      3  C   UNL     1      -9.023  -0.862  20.914  0.00  0.00    +0.000 A 
ATOM      4  C   UNL     1      -8.212  -0.043  21.687  0.00  0.00    +0.000 A 
ATOM      5  C   UNL     1      -9.073   1.271  20.202  0.00  0.00    +0.000 A 
ATOM      6  H   UNL     1     -10.175  -0.253  19.225  0.00  0.00    +0.000 HD
ENDROOT
BRANCH   4   7
ATOM      7  C   UNL     1      -7.373  -0.418  22.806  0.00  0.00    +0.000 A 
ATOM      8  C   UNL     1      -7.883  -0.495  24.104  0.00  0.00    +0.000 A 
ATOM      9  C   UNL     1      -7.073  -0.901  25.161  0.00  0.00    +0.000 A 
ATOM     10  C   UNL     1      -5.751  -1.248  24.909  0.00  0.00    +0.000 A 
ATOM     11  F   UNL     1      -4.967  -1.635  25.924  0.00  0.00    +0.000 F 
ATOM     12  C   UNL     1      -5.228  -1.196  23.622  0.00  0.00    +0.000 A 
ATOM     13  C   UNL     1      -6.046  -0.787  22.571  0.00  0.00    +0.000 A 
ENDBRANCH   4   7
BRANCH   3  15
ATOM     14  N   UNL     1     -10.118  -4.984  21.014  0.00  0.00    +0.000 NA
ATOM     15  C   UNL     1      -9.398  -2.272  20.968  0.00  0.00    +0.000 A 
ATOM     16  C   UNL     1     -10.731  -2.650  21.116  0.00  0.00    +0.000 A 
ATOM     17  C   UNL     1      -8.430  -3.267  20.830  0.00  0.00    +0.000 A 
ATOM     18  C   UNL     1     -11.035  -4.001  21.137  0.00  0.00    +0.000 A 
ATOM     19  C   UNL     1      -8.836  -4.591  20.866  0.00  0.00    +0.000 A 
ENDBRANCH   3  15
BRANCH   5  20
ATOM     20  C   UNL     1      -9.435   2.436  19.403  0.00  0.00    +0.000 A 
ATOM     21  C   UNL     1      -9.505   2.328  18.011  0.00  0.00    +0.000 A 
ATOM     22  C   UNL     1      -9.716   3.669  19.999  0.00  0.00    +0.000 A 
ATOM     23  C   UNL     1      -9.849   3.426  17.227  0.00  0.00    +0.000 A 
ATOM     24  C   UNL     1     -10.060   4.774  19.224  0.00  0.00    +0.000 A 
ATOM     25  C   UNL     1     -10.124   4.643  17.843  0.00  0.00    +0.000 A 
BRANCH  25  26
ATOM     26  O   UNL     1     -10.464   5.737  17.102  0.00  0.00    +0.000 OA
ATOM     27  H   UNL     1     -11.433   5.821  17.110  0.00  0.00    +0.000 HD
ENDBRANCH  25  26
ENDBRANCH   5  20
TORSDOF 4
ENDMDL
