MODEL 1
REMARK VINA RESULT:      -6.5      0.000      0.000
REMARK  Name = Simvastatin.pdbqt.pdb
REMARK  7 active torsions:
REMARK  status: ('A' for Active; 'I' for Inactive)
REMARK    1  A    between atoms: C_2  and  C_13
REMARK    2  A    between atoms: C_3  and  O_24
REMARK    3  A    between atoms: C_14  and  C_15
REMARK    4  A    between atoms: C_20  and  O_22
REMARK    5  A    between atoms: O_24  and  C_25
REMARK    6  A    between atoms: C_25  and  C_27
REMARK    7  A    between atoms: C_27  and  C_30
REMARK                            x       y       z     vdW  Elec       q    Type
REMARK                         _______ _______ _______ _____ _____    ______ ____
ROOT
ATOM      1  C   UNL     1      -7.898  -1.837  21.551  0.00  0.00    +0.000 A 
ATOM      2  C   UNL     1      -7.281  -0.515  21.953  0.00  0.00    +0.000 A 
ATOM      3  C   UNL     1      -7.493  -3.187  22.082  0.00  0.00    +0.000 A 
ATOM      4  C   UNL     1      -7.956   0.759  21.587  0.00  0.00    +0.000 A 
ATOM      5  C   UNL     1      -9.094  -1.777  20.575  0.00  0.00    +0.000 A 
ATOM      6  C   UNL     1      -8.344  -4.232  21.582  0.00  0.00    +0.000 A 
ATOM      7  C   UNL     1      -9.496  -4.254  20.733  0.00  0.00    +0.000 A 
ATOM      8  C   UNL     1      -9.708  -2.898  20.339  0.00  0.00    +0.000 A 
ATOM      9  C   UNL     1      -9.110   0.545  20.780  0.00  0.00    +0.000 A 
ATOM     10  C   UNL     1      -9.587  -0.472  20.360  0.00  0.00    +0.000 A 
ATOM     11  C   UNL     1      -7.498   2.143  21.931  0.00  0.00    +0.000 C 
ATOM     12  C   UNL     1     -10.657  -5.131  21.076  0.00  0.00    +0.000 C 
ENDROOT
BRANCH   2  13
ATOM     13  C   UNL     1      -5.957  -0.501  22.484  0.00  0.00    +0.000 C 
ATOM     14  C   UNL     1      -4.518  -0.541  23.011  0.00  0.00    +0.000 C 
BRANCH  14  15
ATOM     15  C   UNL     1      -3.172  -0.610  23.444  0.00  0.00    +0.000 C 
ATOM     16  O   UNL     1      -2.885  -1.382  24.629  0.00  0.00    +0.000 OA
ATOM     17  C   UNL     1      -1.583  -1.445  25.136  0.00  0.00    +0.000 C 
ATOM     18  O   UNL     1      -1.267  -2.077  26.132  0.00  0.00    +0.000 OA
ATOM     19  C   UNL     1      -0.621  -0.682  24.381  0.00  0.00    +0.000 C 
ATOM     20  C   UNL     1      -0.715   0.127  23.228  0.00  0.00    +0.000 C 
ATOM     21  C   UNL     1      -2.076   0.074  22.855  0.00  0.00    +0.000 C 
BRANCH  20  22
ATOM     22  O   UNL     1       0.053   1.245  23.079  0.00  0.00    +0.000 OA
ATOM     23  H   UNL     1       0.011   1.834  23.856  0.00  0.00    +0.000 HD
ENDBRANCH  20  22
ENDBRANCH  14  15
ENDBRANCH   2  13
BRANCH   3  24
ATOM     24  O   UNL     1      -7.144  -3.210  23.435  0.00  0.00    +0.000 OA
BRANCH  24  25
ATOM     25  C   UNL     1      -8.063  -3.897  24.207  0.00  0.00    +0.000 C 
ATOM     26  O   UNL     1      -8.172  -5.125  24.206  0.00  0.00    +0.000 OA
BRANCH  25  27
ATOM     27  C   UNL     1      -8.943  -2.905  25.046  0.00  0.00    +0.000 C 
ATOM     28  C   UNL     1      -8.122  -1.592  25.330  0.00  0.00    +0.000 C 
ATOM     29  C   UNL     1      -9.362  -3.550  26.428  0.00  0.00    +0.000 C 
BRANCH  27  30
ATOM     30  C   UNL     1     -10.164  -2.612  24.244  0.00  0.00    +0.000 C 
ATOM     31  C   UNL     1     -11.465  -2.298  23.448  0.00  0.00    +0.000 C 
ENDBRANCH  27  30
ENDBRANCH  25  27
ENDBRANCH  24  25
ENDBRANCH   3  24
TORSDOF 7
ENDMDL
MODEL 2
REMARK VINA RESULT:      -6.3      4.672      7.024
REMARK  Name = Simvastatin.pdbqt.pdb
REMARK  7 active torsions:
REMARK  status: ('A' for Active; 'I' for Inactive)
REMARK    1  A    between atoms: C_2  and  C_13
REMARK    2  A    between atoms: C_3  and  O_24
REMARK    3  A    between atoms: C_14  and  C_15
REMARK    4  A    between atoms: C_20  and  O_22
REMARK    5  A    between atoms: O_24  and  C_25
REMARK    6  A    between atoms: C_25  and  C_27
REMARK    7  A    between atoms: C_27  and  C_30
REMARK                            x       y       z     vdW  Elec       q    Type
REMARK                         _______ _______ _______ _____ _____    ______ ____
ROOT
ATOM      1  C   UNL     1     -10.502  -0.550  22.640  0.00  0.00    +0.000 A 
ATOM      2  C   UNL     1     -11.198  -1.152  23.841  0.00  0.00    +0.000 A 
ATOM      3  C   UNL     1      -9.890  -1.329  21.505  0.00  0.00    +0.000 A 
ATOM      4  C   UNL     1     -12.011  -0.285  24.736  0.00  0.00    +0.000 A 
ATOM      5  C   UNL     1     -10.494   0.991  22.541  0.00  0.00    +0.000 A 
ATOM      6  C   UNL     1      -9.402  -0.461  20.467  0.00  0.00    +0.000 A 
ATOM      7  C   UNL     1      -9.409   0.956  20.273  0.00  0.00    +0.000 A 
ATOM      8  C   UNL     1     -10.018   1.501  21.444  0.00  0.00    +0.000 A 
ATOM      9  C   UNL     1     -11.940   1.089  24.367  0.00  0.00    +0.000 A 
ATOM     10  C   UNL     1     -11.332   1.625  23.483  0.00  0.00    +0.000 A 
ATOM     11  C   UNL     1     -12.785  -0.724  25.942  0.00  0.00    +0.000 C 
ATOM     12  C   UNL     1      -9.726   1.521  18.926  0.00  0.00    +0.000 C 
ENDROOT
BRANCH   2  13
ATOM     13  C   UNL     1     -10.891  -2.492  24.222  0.00  0.00    +0.000 C 
ATOM     14  C   UNL     1     -10.490  -3.915  24.627  0.00  0.00    +0.000 C 
BRANCH  14  15
ATOM     15  C   UNL     1     -10.062  -5.206  25.018  0.00  0.00    +0.000 C 
ATOM     16  O   UNL     1     -11.065  -6.139  25.475  0.00  0.00    +0.000 OA
ATOM     17  C   UNL     1     -10.697  -7.411  25.924  0.00  0.00    +0.000 C 
ATOM     18  O   UNL     1     -11.489  -8.250  26.324  0.00  0.00    +0.000 OA
ATOM     19  C   UNL     1      -9.277  -7.660  25.885  0.00  0.00    +0.000 C 
ATOM     20  C   UNL     1      -8.167  -6.884  25.489  0.00  0.00    +0.000 C 
ATOM     21  C   UNL     1      -8.715  -5.652  25.068  0.00  0.00    +0.000 C 
BRANCH  20  22
ATOM     22  O   UNL     1      -6.966  -6.982  26.129  0.00  0.00    +0.000 OA
ATOM     23  H   UNL     1      -6.820  -6.254  26.763  0.00  0.00    +0.000 HD
ENDBRANCH  20  22
ENDBRANCH  14  15
ENDBRANCH   2  13
BRANCH   3  24
ATOM     24  O   UNL     1     -10.592  -2.478  21.129  0.00  0.00    +0.000 OA
BRANCH  24  25
ATOM     25  C   UNL     1     -10.022  -3.114  20.042  0.00  0.00    +0.000 C 
ATOM     26  O   UNL     1     -10.141  -2.717  18.881  0.00  0.00    +0.000 OA
BRANCH  25  27
ATOM     27  C   UNL     1      -9.239  -4.397  20.490  0.00  0.00    +0.000 C 
ATOM     28  C   UNL     1     -10.194  -5.325  21.330  0.00  0.00    +0.000 C 
ATOM     29  C   UNL     1      -7.990  -4.015  21.384  0.00  0.00    +0.000 C 
BRANCH  27  30
ATOM     30  C   UNL     1      -8.772  -5.084  19.253  0.00  0.00    +0.000 C 
ATOM     31  C   UNL     1      -8.240  -5.784  17.968  0.00  0.00    +0.000 C 
ENDBRANCH  27  30
ENDBRANCH  25  27
ENDBRANCH  24  25
ENDBRANCH   3  24
TORSDOF 7
ENDMDL
MODEL 3
REMARK VINA RESULT:      -6.2      4.149      6.993
REMARK  Name = Simvastatin.pdbqt.pdb
REMARK  7 active torsions:
REMARK  status: ('A' for Active; 'I' for Inactive)
REMARK    1  A    between atoms: C_2  and  C_13
REMARK    2  A    between atoms: C_3  and  O_24
REMARK    3  A    between atoms: C_14  and  C_15
REMARK    4  A    between atoms: C_20  and  O_22
REMARK    5  A    between atoms: O_24  and  C_25
REMARK    6  A    between atoms: C_25  and  C_27
REMARK    7  A    between atoms: C_27  and  C_30
REMARK                            x       y       z     vdW  Elec       q    Type
REMARK                         _______ _______ _______ _____ _____    ______ ____
ROOT
ATOM      1  C   UNL     1     -10.474  -0.274  22.479  0.00  0.00    +0.000 A 
ATOM      2  C   UNL     1     -11.162  -0.837  23.704  0.00  0.00    +0.000 A 
ATOM      3  C   UNL     1      -9.905  -1.089  21.347  0.00  0.00    +0.000 A 
ATOM      4  C   UNL     1     -11.935   0.067  24.599  0.00  0.00    +0.000 A 
ATOM      5  C   UNL     1     -10.428   1.263  22.352  0.00  0.00    +0.000 A 
ATOM      6  C   UNL     1      -9.415  -0.253  20.285  0.00  0.00    +0.000 A 
ATOM      7  C   UNL     1      -9.390   1.160  20.065  0.00  0.00    +0.000 A 
ATOM      8  C   UNL     1      -9.961   1.741  21.237  0.00  0.00    +0.000 A 
ATOM      9  C   UNL     1     -11.836   1.432  24.204  0.00  0.00    +0.000 A 
ATOM     10  C   UNL     1     -11.232   1.936  23.299  0.00  0.00    +0.000 A 
ATOM     11  C   UNL     1     -12.696  -0.330  25.827  0.00  0.00    +0.000 C 
ATOM     12  C   UNL     1      -9.718   1.709  18.714  0.00  0.00    +0.000 C 
ENDROOT
BRANCH   2  13
ATOM     13  C   UNL     1     -10.883  -2.177  24.104  0.00  0.00    +0.000 C 
ATOM     14  C   UNL     1     -10.513  -3.597  24.548  0.00  0.00    +0.000 C 
BRANCH  14  15
ATOM     15  C   UNL     1     -10.121  -4.884  24.988  0.00  0.00    +0.000 C 
ATOM     16  O   UNL     1      -8.713  -5.198  24.982  0.00  0.00    +0.000 OA
ATOM     17  C   UNL     1      -8.269  -6.470  25.356  0.00  0.00    +0.000 C 
ATOM     18  O   UNL     1      -7.095  -6.807  25.375  0.00  0.00    +0.000 OA
ATOM     19  C   UNL     1      -9.328  -7.379  25.718  0.00  0.00    +0.000 C 
ATOM     20  C   UNL     1     -10.733  -7.258  25.773  0.00  0.00    +0.000 C 
ATOM     21  C   UNL     1     -11.001  -5.930  25.374  0.00  0.00    +0.000 C 
BRANCH  20  22
ATOM     22  O   UNL     1     -11.549  -8.306  25.462  0.00  0.00    +0.000 OA
ATOM     23  H   UNL     1     -11.918  -8.238  24.561  0.00  0.00    +0.000 HD
ENDBRANCH  20  22
ENDBRANCH  14  15
ENDBRANCH   2  13
BRANCH   3  24
ATOM     24  O   UNL     1     -10.644  -2.226  21.006  0.00  0.00    +0.000 OA
BRANCH  24  25
ATOM     25  C   UNL     1     -10.089  -2.918  19.945  0.00  0.00    +0.000 C 
ATOM     26  O   UNL     1     -10.208  -2.570  18.768  0.00  0.00    +0.000 OA
BRANCH  25  27
ATOM     27  C   UNL     1      -9.324  -4.192  20.446  0.00  0.00    +0.000 C 
ATOM     28  C   UNL     1      -8.751  -4.977  19.207  0.00  0.00    +0.000 C 
ATOM     29  C   UNL     1     -10.288  -5.153  21.252  0.00  0.00    +0.000 C 
BRANCH  27  30
ATOM     30  C   UNL     1      -8.227  -3.725  21.340  0.00  0.00    +0.000 C 
ATOM     31  C   UNL     1      -7.087  -3.278  22.302  0.00  0.00    +0.000 C 
ENDBRANCH  27  30
ENDBRANCH  25  27
ENDBRANCH  24  25
ENDBRANCH   3  24
TORSDOF 7
ENDMDL
MODEL 4
REMARK VINA RESULT:      -5.7     17.122     19.641
REMARK  Name = Simvastatin.pdbqt.pdb
REMARK  7 active torsions:
REMARK  status: ('A' for Active; 'I' for Inactive)
REMARK    1  A    between atoms: C_2  and  C_13
REMARK    2  A    between atoms: C_3  and  O_24
REMARK    3  A    between atoms: C_14  and  C_15
REMARK    4  A    between atoms: C_20  and  O_22
REMARK    5  A    between atoms: O_24  and  C_25
REMARK    6  A    between atoms: C_25  and  C_27
REMARK    7  A    between atoms: C_27  and  C_30
REMARK                            x       y       z     vdW  Elec       q    Type
REMARK                         _______ _______ _______ _____ _____    ______ ____
ROOT
ATOM      1  C   UNL     1       5.062 -10.277  13.910  0.00  0.00    +0.000 A 
ATOM      2  C   UNL     1       4.069 -10.862  12.929  0.00  0.00    +0.000 A 
ATOM      3  C   UNL     1       6.058 -11.067  14.717  0.00  0.00    +0.000 A 
ATOM      4  C   UNL     1       3.348  -9.967  11.984  0.00  0.00    +0.000 A 
ATOM      5  C   UNL     1       5.102  -8.738  14.024  0.00  0.00    +0.000 A 
ATOM      6  C   UNL     1       6.929 -10.208  15.474  0.00  0.00    +0.000 A 
ATOM      7  C   UNL     1       7.071  -8.789  15.587  0.00  0.00    +0.000 A 
ATOM      8  C   UNL     1       6.047  -8.234  14.762  0.00  0.00    +0.000 A 
ATOM      9  C   UNL     1       3.643  -8.592  12.211  0.00  0.00    +0.000 A 
ATOM     10  C   UNL     1       4.350  -8.074  13.031  0.00  0.00    +0.000 A 
ATOM     11  C   UNL     1       2.362 -10.383  10.936  0.00  0.00    +0.000 C 
ATOM     12  C   UNL     1       8.434  -8.177  15.614  0.00  0.00    +0.000 C 
ENDROOT
BRANCH   2  13
ATOM     13  C   UNL     1       3.676 -12.225  13.068  0.00  0.00    +0.000 C 
ATOM     14  C   UNL     1       3.187 -13.673  13.197  0.00  0.00    +0.000 C 
BRANCH  14  15
ATOM     15  C   UNL     1       2.686 -14.994  13.276  0.00  0.00    +0.000 C 
ATOM     16  O   UNL     1       2.545 -15.583  14.586  0.00  0.00    +0.000 OA
ATOM     17  C   UNL     1       2.106 -16.904  14.726  0.00  0.00    +0.000 C 
ATOM     18  O   UNL     1       1.964 -17.467  15.800  0.00  0.00    +0.000 OA
ATOM     19  C   UNL     1       1.836 -17.568  13.475  0.00  0.00    +0.000 C 
ATOM     20  C   UNL     1       1.924 -17.167  12.125  0.00  0.00    +0.000 C 
ATOM     21  C   UNL     1       2.371 -15.828  12.171  0.00  0.00    +0.000 C 
BRANCH  20  22
ATOM     22  O   UNL     1       2.296 -18.041  11.146  0.00  0.00    +0.000 OA
ATOM     23  H   UNL     1       2.255 -17.645  10.255  0.00  0.00    +0.000 HD
ENDBRANCH  20  22
ENDBRANCH  14  15
ENDBRANCH   2  13
BRANCH   3  24
ATOM     24  O   UNL     1       6.621 -12.162  14.056  0.00  0.00    +0.000 OA
BRANCH  24  25
ATOM     25  C   UNL     1       6.487 -13.338  14.772  0.00  0.00    +0.000 C 
ATOM     26  O   UNL     1       5.780 -13.447  15.776  0.00  0.00    +0.000 OA
BRANCH  25  27
ATOM     27  C   UNL     1       7.364 -14.478  14.147  0.00  0.00    +0.000 C 
ATOM     28  C   UNL     1       8.691 -14.632  14.979  0.00  0.00    +0.000 C 
ATOM     29  C   UNL     1       7.742 -14.145  12.647  0.00  0.00    +0.000 C 
BRANCH  27  30
ATOM     30  C   UNL     1       6.555 -15.729  14.188  0.00  0.00    +0.000 C 
ATOM     31  C   UNL     1       5.709 -17.036  14.182  0.00  0.00    +0.000 C 
ENDBRANCH  27  30
ENDBRANCH  25  27
ENDBRANCH  24  25
ENDBRANCH   3  24
TORSDOF 7
ENDMDL
MODEL 5
REMARK VINA RESULT:      -5.6     15.280     16.846
REMARK  Name = Simvastatin.pdbqt.pdb
REMARK  7 active torsions:
REMARK  status: ('A' for Active; 'I' for Inactive)
REMARK    1  A    between atoms: C_2  and  C_13
REMARK    2  A    between atoms: C_3  and  O_24
REMARK    3  A    between atoms: C_14  and  C_15
REMARK    4  A    between atoms: C_20  and  O_22
REMARK    5  A    between atoms: O_24  and  C_25
REMARK    6  A    between atoms: C_25  and  C_27
REMARK    7  A    between atoms: C_27  and  C_30
REMARK                            x       y       z     vdW  Elec       q    Type
REMARK                         _______ _______ _______ _____ _____    ______ ____
ROOT
ATOM      1  C   UNL     1       0.405 -13.833  19.174  0.00  0.00    +0.000 A 
ATOM      2  C   UNL     1       1.724 -13.210  18.772  0.00  0.00    +0.000 A 
ATOM      3  C   UNL     1      -0.221 -15.042  18.530  0.00  0.00    +0.000 A 
ATOM      4  C   UNL     1       2.371 -12.210  19.664  0.00  0.00    +0.000 A 
ATOM      5  C   UNL     1      -0.311 -13.219  20.397  0.00  0.00    +0.000 A 
ATOM      6  C   UNL     1      -1.420 -15.447  19.211  0.00  0.00    +0.000 A 
ATOM      7  C   UNL     1      -2.110 -14.975  20.373  0.00  0.00    +0.000 A 
ATOM      8  C   UNL     1      -1.370 -13.840  20.823  0.00  0.00    +0.000 A 
ATOM      9  C   UNL     1       1.565 -11.893  20.795  0.00  0.00    +0.000 A 
ATOM     10  C   UNL     1       0.478 -12.290  21.110  0.00  0.00    +0.000 A 
ATOM     11  C   UNL     1       3.683 -11.525  19.433  0.00  0.00    +0.000 C 
ATOM     12  C   UNL     1      -2.665 -15.954  21.357  0.00  0.00    +0.000 C 
ENDROOT
BRANCH   2  13
ATOM     13  C   UNL     1       2.218 -13.422  17.452  0.00  0.00    +0.000 C 
ATOM     14  C   UNL     1       2.718 -13.588  16.012  0.00  0.00    +0.000 C 
BRANCH  14  15
ATOM     15  C   UNL     1       3.169 -13.679  14.673  0.00  0.00    +0.000 C 
ATOM     16  O   UNL     1       3.910 -12.563  14.136  0.00  0.00    +0.000 OA
ATOM     17  C   UNL     1       4.336 -12.571  12.804  0.00  0.00    +0.000 C 
ATOM     18  O   UNL     1       4.965 -11.664  12.281  0.00  0.00    +0.000 OA
ATOM     19  C   UNL     1       3.960 -13.756  12.074  0.00  0.00    +0.000 C 
ATOM     20  C   UNL     1       3.242 -14.921  12.420  0.00  0.00    +0.000 C 
ATOM     21  C   UNL     1       2.898 -14.748  13.779  0.00  0.00    +0.000 C 
BRANCH  20  22
ATOM     22  O   UNL     1       2.429 -15.548  11.522  0.00  0.00    +0.000 OA
ATOM     23  H   UNL     1       2.342 -16.505  11.700  0.00  0.00    +0.000 HD
ENDBRANCH  20  22
ENDBRANCH  14  15
ENDBRANCH   2  13
BRANCH   3  24
ATOM     24  O   UNL     1       0.681 -16.035  18.133  0.00  0.00    +0.000 OA
BRANCH  24  25
ATOM     25  C   UNL     1       0.611 -17.162  18.931  0.00  0.00    +0.000 C 
ATOM     26  O   UNL     1      -0.333 -17.954  18.910  0.00  0.00    +0.000 OA
BRANCH  25  27
ATOM     27  C   UNL     1       1.869 -17.268  19.862  0.00  0.00    +0.000 C 
ATOM     28  C   UNL     1       3.092 -16.555  19.170  0.00  0.00    +0.000 C 
ATOM     29  C   UNL     1       2.251 -18.780  20.129  0.00  0.00    +0.000 C 
BRANCH  27  30
ATOM     30  C   UNL     1       1.522 -16.608  21.151  0.00  0.00    +0.000 C 
ATOM     31  C   UNL     1       1.190 -15.882  22.488  0.00  0.00    +0.000 C 
ENDBRANCH  27  30
ENDBRANCH  25  27
ENDBRANCH  24  25
ENDBRANCH   3  24
TORSDOF 7
ENDMDL
MODEL 6
REMARK VINA RESULT:      -5.5     16.959     19.680
REMARK  Name = Simvastatin.pdbqt.pdb
REMARK  7 active torsions:
REMARK  status: ('A' for Active; 'I' for Inactive)
REMARK    1  A    between atoms: C_2  and  C_13
REMARK    2  A    between atoms: C_3  and  O_24
REMARK    3  A    between atoms: C_14  and  C_15
REMARK    4  A    between atoms: C_20  and  O_22
REMARK    5  A    between atoms: O_24  and  C_25
REMARK    6  A    between atoms: C_25  and  C_27
REMARK    7  A    between atoms: C_27  and  C_30
REMARK                            x       y       z     vdW  Elec       q    Type
REMARK                         _______ _______ _______ _____ _____    ______ ____
ROOT
ATOM      1  C   UNL     1       5.552  -9.582  13.657  0.00  0.00    +0.000 A 
ATOM      2  C   UNL     1       4.443 -10.138  12.790  0.00  0.00    +0.000 A 
ATOM      3  C   UNL     1       6.632 -10.395  14.320  0.00  0.00    +0.000 A 
ATOM      4  C   UNL     1       3.621  -9.218  11.960  0.00  0.00    +0.000 A 
ATOM      5  C   UNL     1       5.617  -8.046  13.801  0.00  0.00    +0.000 A 
ATOM      6  C   UNL     1       7.595  -9.559  14.985  0.00  0.00    +0.000 A 
ATOM      7  C   UNL     1       7.759  -8.143  15.114  0.00  0.00    +0.000 A 
ATOM      8  C   UNL     1       6.647  -7.564  14.431  0.00  0.00    +0.000 A 
ATOM      9  C   UNL     1       3.951  -7.850  12.181  0.00  0.00    +0.000 A 
ATOM     10  C   UNL     1       4.755  -7.355  12.921  0.00  0.00    +0.000 A 
ATOM     11  C   UNL     1       2.512  -9.605  11.029  0.00  0.00    +0.000 C 
ATOM     12  C   UNL     1       9.121  -7.538  14.990  0.00  0.00    +0.000 C 
ENDROOT
BRANCH   2  13
ATOM     13  C   UNL     1       4.060 -11.503  12.945  0.00  0.00    +0.000 C 
ATOM     14  C   UNL     1       3.608 -12.951  13.168  0.00  0.00    +0.000 C 
BRANCH  14  15
ATOM     15  C   UNL     1       3.140 -14.265  13.409  0.00  0.00    +0.000 C 
ATOM     16  O   UNL     1       2.734 -15.054  12.271  0.00  0.00    +0.000 OA
ATOM     17  C   UNL     1       2.213 -16.340  12.450  0.00  0.00    +0.000 C 
ATOM     18  O   UNL     1       1.849 -17.064  11.536  0.00  0.00    +0.000 OA
ATOM     19  C   UNL     1       2.129 -16.753  13.829  0.00  0.00    +0.000 C 
ATOM     20  C   UNL     1       2.460 -16.128  15.050  0.00  0.00    +0.000 C 
ATOM     21  C   UNL     1       2.966 -14.861  14.686  0.00  0.00    +0.000 C 
BRANCH  20  22
ATOM     22  O   UNL     1       1.723 -16.337  16.179  0.00  0.00    +0.000 OA
ATOM     23  H   UNL     1       0.797 -16.578  15.981  0.00  0.00    +0.000 HD
ENDBRANCH  20  22
ENDBRANCH  14  15
ENDBRANCH   2  13
BRANCH   3  24
ATOM     24  O   UNL     1       7.103 -11.477  13.571  0.00  0.00    +0.000 OA
BRANCH  24  25
ATOM     25  C   UNL     1       7.063 -12.666  14.276  0.00  0.00    +0.000 C 
ATOM     26  O   UNL     1       6.836 -12.732  15.486  0.00  0.00    +0.000 OA
BRANCH  25  27
ATOM     27  C   UNL     1       7.365 -13.885  13.337  0.00  0.00    +0.000 C 
ATOM     28  C   UNL     1       6.835 -13.572  11.888  0.00  0.00    +0.000 C 
ATOM     29  C   UNL     1       6.652 -15.196  13.864  0.00  0.00    +0.000 C 
BRANCH  27  30
ATOM     30  C   UNL     1       8.841 -14.089  13.338  0.00  0.00    +0.000 C 
ATOM     31  C   UNL     1      10.388 -14.258  13.361  0.00  0.00    +0.000 C 
ENDBRANCH  27  30
ENDBRANCH  25  27
ENDBRANCH  24  25
ENDBRANCH   3  24
TORSDOF 7
ENDMDL
MODEL 7
REMARK VINA RESULT:      -5.4     19.281     20.915
REMARK  Name = Simvastatin.pdbqt.pdb
REMARK  7 active torsions:
REMARK  status: ('A' for Active; 'I' for Inactive)
REMARK    1  A    between atoms: C_2  and  C_13
REMARK    2  A    between atoms: C_3  and  O_24
REMARK    3  A    between atoms: C_14  and  C_15
REMARK    4  A    between atoms: C_20  and  O_22
REMARK    5  A    between atoms: O_24  and  C_25
REMARK    6  A    between atoms: C_25  and  C_27
REMARK    7  A    between atoms: C_27  and  C_30
REMARK                            x       y       z     vdW  Elec       q    Type
REMARK                         _______ _______ _______ _____ _____    ______ ____
ROOT
ATOM      1  C   UNL     1      -1.777  -3.867   2.256  0.00  0.00    +0.000 A 
ATOM      2  C   UNL     1      -0.545  -3.018   2.483  0.00  0.00    +0.000 A 
ATOM      3  C   UNL     1      -3.198  -3.420   2.479  0.00  0.00    +0.000 A 
ATOM      4  C   UNL     1       0.770  -3.467   1.952  0.00  0.00    +0.000 A 
ATOM      5  C   UNL     1      -1.551  -5.279   1.673  0.00  0.00    +0.000 A 
ATOM      6  C   UNL     1      -4.142  -4.424   2.071  0.00  0.00    +0.000 A 
ATOM      7  C   UNL     1      -4.019  -5.718   1.472  0.00  0.00    +0.000 A 
ATOM      8  C   UNL     1      -2.616  -5.953   1.352  0.00  0.00    +0.000 A 
ATOM      9  C   UNL     1       0.698  -4.756   1.349  0.00  0.00    +0.000 A 
ATOM     10  C   UNL     1      -0.231  -5.505   1.226  0.00  0.00    +0.000 A 
ATOM     11  C   UNL     1       2.073  -2.736   2.061  0.00  0.00    +0.000 C 
ATOM     12  C   UNL     1      -4.949  -6.123   0.374  0.00  0.00    +0.000 C 
ENDROOT
BRANCH   2  13
ATOM     13  C   UNL     1      -0.618  -1.915   3.383  0.00  0.00    +0.000 C 
ATOM     14  C   UNL     1      -0.707  -0.685   4.295  0.00  0.00    +0.000 C 
BRANCH  14  15
ATOM     15  C   UNL     1      -0.819   0.482   5.088  0.00  0.00    +0.000 C 
ATOM     16  O   UNL     1      -0.378   1.730   4.514  0.00  0.00    +0.000 OA
ATOM     17  C   UNL     1      -0.413   2.908   5.268  0.00  0.00    +0.000 C 
ATOM     18  O   UNL     1      -0.057   3.999   4.849  0.00  0.00    +0.000 OA
ATOM     19  C   UNL     1      -0.907   2.732   6.611  0.00  0.00    +0.000 C 
ATOM     20  C   UNL     1      -1.363   1.611   7.337  0.00  0.00    +0.000 C 
ATOM     21  C   UNL     1      -1.264   0.527   6.435  0.00  0.00    +0.000 C 
BRANCH  20  22
ATOM     22  O   UNL     1      -1.130   1.487   8.675  0.00  0.00    +0.000 OA
ATOM     23  H   UNL     1      -0.318   0.979   8.867  0.00  0.00    +0.000 HD
ENDBRANCH  20  22
ENDBRANCH  14  15
ENDBRANCH   2  13
BRANCH   3  24
ATOM     24  O   UNL     1      -3.460  -2.090   2.140  0.00  0.00    +0.000 OA
BRANCH  24  25
ATOM     25  C   UNL     1      -4.592  -1.598   2.764  0.00  0.00    +0.000 C 
ATOM     26  O   UNL     1      -4.929  -1.911   3.908  0.00  0.00    +0.000 OA
BRANCH  25  27
ATOM     27  C   UNL     1      -5.376  -0.624   1.817  0.00  0.00    +0.000 C 
ATOM     28  C   UNL     1      -4.432   0.563   1.392  0.00  0.00    +0.000 C 
ATOM     29  C   UNL     1      -6.646  -0.024   2.547  0.00  0.00    +0.000 C 
BRANCH  27  30
ATOM     30  C   UNL     1      -5.812  -1.415   0.632  0.00  0.00    +0.000 C 
ATOM     31  C   UNL     1      -6.220  -2.253  -0.614  0.00  0.00    +0.000 C 
ENDBRANCH  27  30
ENDBRANCH  25  27
ENDBRANCH  24  25
ENDBRANCH   3  24
TORSDOF 7
ENDMDL
MODEL 8
REMARK VINA RESULT:      -5.4     17.979     20.695
REMARK  Name = Simvastatin.pdbqt.pdb
REMARK  7 active torsions:
REMARK  status: ('A' for Active; 'I' for Inactive)
REMARK    1  A    between atoms: C_2  and  C_13
REMARK    2  A    between atoms: C_3  and  O_24
REMARK    3  A    between atoms: C_14  and  C_15
REMARK    4  A    between atoms: C_20  and  O_22
REMARK    5  A    between atoms: O_24  and  C_25
REMARK    6  A    between atoms: C_25  and  C_27
REMARK    7  A    between atoms: C_27  and  C_30
REMARK                            x       y       z     vdW  Elec       q    Type
REMARK                         _______ _______ _______ _____ _____    ______ ____
ROOT
ATOM      1  C   UNL     1     -21.840  -2.985   8.631  0.00  0.00    +0.000 A 
ATOM      2  C   UNL     1     -22.147  -1.519   8.412  0.00  0.00    +0.000 A 
ATOM      3  C   UNL     1     -21.627  -3.641   9.970  0.00  0.00    +0.000 A 
ATOM      4  C   UNL     1     -22.624  -1.055   7.082  0.00  0.00    +0.000 A 
ATOM      5  C   UNL     1     -21.826  -3.887   7.379  0.00  0.00    +0.000 A 
ATOM      6  C   UNL     1     -21.461  -5.064   9.845  0.00  0.00    +0.000 A 
ATOM      7  C   UNL     1     -21.494  -5.974   8.741  0.00  0.00    +0.000 A 
ATOM      8  C   UNL     1     -21.699  -5.165   7.583  0.00  0.00    +0.000 A 
ATOM      9  C   UNL     1     -22.637  -2.102   6.116  0.00  0.00    +0.000 A 
ATOM     10  C   UNL     1     -22.318  -3.254   6.216  0.00  0.00    +0.000 A 
ATOM     11  C   UNL     1     -22.999   0.347   6.707  0.00  0.00    +0.000 C 
ATOM     12  C   UNL     1     -22.197  -7.286   8.880  0.00  0.00    +0.000 C 
ENDROOT
BRANCH   2  13
ATOM     13  C   UNL     1     -21.771  -0.575   9.411  0.00  0.00    +0.000 C 
ATOM     14  C   UNL     1     -21.431   0.472  10.479  0.00  0.00    +0.000 C 
BRANCH  14  15
ATOM     15  C   UNL     1     -21.181   1.449  11.473  0.00  0.00    +0.000 C 
ATOM     16  O   UNL     1     -22.229   1.724  12.425  0.00  0.00    +0.000 OA
ATOM     17  C   UNL     1     -22.061   2.716  13.397  0.00  0.00    +0.000 C 
ATOM     18  O   UNL     1     -22.904   3.003  14.234  0.00  0.00    +0.000 OA
ATOM     19  C   UNL     1     -20.792   3.396  13.329  0.00  0.00    +0.000 C 
ATOM     20  C   UNL     1     -19.671   3.274  12.480  0.00  0.00    +0.000 C 
ATOM     21  C   UNL     1     -20.007   2.241  11.577  0.00  0.00    +0.000 C 
BRANCH  20  22
ATOM     22  O   UNL     1     -18.930   4.362  12.121  0.00  0.00    +0.000 OA
ATOM     23  H   UNL     1     -19.364   4.899  11.430  0.00  0.00    +0.000 HD
ENDBRANCH  20  22
ENDBRANCH  14  15
ENDBRANCH   2  13
BRANCH   3  24
ATOM     24  O   UNL     1     -22.438  -3.159  11.002  0.00  0.00    +0.000 OA
BRANCH  24  25
ATOM     25  C   UNL     1     -23.400  -4.074  11.390  0.00  0.00    +0.000 C 
ATOM     26  O   UNL     1     -23.145  -5.106  12.013  0.00  0.00    +0.000 OA
BRANCH  25  27
ATOM     27  C   UNL     1     -24.825  -3.626  10.912  0.00  0.00    +0.000 C 
ATOM     28  C   UNL     1     -24.864  -2.057  10.783  0.00  0.00    +0.000 C 
ATOM     29  C   UNL     1     -25.937  -4.076  11.943  0.00  0.00    +0.000 C 
BRANCH  27  30
ATOM     30  C   UNL     1     -25.075  -4.279   9.596  0.00  0.00    +0.000 C 
ATOM     31  C   UNL     1     -25.297  -4.938   8.203  0.00  0.00    +0.000 C 
ENDBRANCH  27  30
ENDBRANCH  25  27
ENDBRANCH  24  25
ENDBRANCH   3  24
TORSDOF 7
ENDMDL
MODEL 9
REMARK VINA RESULT:      -5.4     16.315     18.855
REMARK  Name = Simvastatin.pdbqt.pdb
REMARK  7 active torsions:
REMARK  status: ('A' for Active; 'I' for Inactive)
REMARK    1  A    between atoms: C_2  and  C_13
REMARK    2  A    between atoms: C_3  and  O_24
REMARK    3  A    between atoms: C_14  and  C_15
REMARK    4  A    between atoms: C_20  and  O_22
REMARK    5  A    between atoms: O_24  and  C_25
REMARK    6  A    between atoms: C_25  and  C_27
REMARK    7  A    between atoms: C_27  and  C_30
REMARK                            x       y       z     vdW  Elec       q    Type
REMARK                         _______ _______ _______ _____ _____    ______ ____
ROOT
ATOM      1  C   UNL     1       4.071 -12.191  17.407  0.00  0.00    +0.000 A 
ATOM      2  C   UNL     1       2.907 -13.159  17.408  0.00  0.00    +0.000 A 
ATOM      3  C   UNL     1       4.878 -11.799  16.198  0.00  0.00    +0.000 A 
ATOM      4  C   UNL     1       2.012 -13.238  18.593  0.00  0.00    +0.000 A 
ATOM      5  C   UNL     1       4.396 -11.493  18.746  0.00  0.00    +0.000 A 
ATOM      6  C   UNL     1       5.843 -10.780  16.510  0.00  0.00    +0.000 A 
ATOM      7  C   UNL     1       6.164 -10.046  17.696  0.00  0.00    +0.000 A 
ATOM      8  C   UNL     1       5.303 -10.563  18.712  0.00  0.00    +0.000 A 
ATOM      9  C   UNL     1       2.456 -12.408  19.662  0.00  0.00    +0.000 A 
ATOM     10  C   UNL     1       3.417 -11.695  19.744  0.00  0.00    +0.000 A 
ATOM     11  C   UNL     1       0.806 -14.114  18.745  0.00  0.00    +0.000 C 
ATOM     12  C   UNL     1       6.437  -8.579  17.613  0.00  0.00    +0.000 C 
ENDROOT
BRANCH   2  13
ATOM     13  C   UNL     1       2.813 -14.132  16.370  0.00  0.00    +0.000 C 
ATOM     14  C   UNL     1       2.784 -15.186  15.257  0.00  0.00    +0.000 C 
BRANCH  14  15
ATOM     15  C   UNL     1       2.815 -16.180  14.250  0.00  0.00    +0.000 C 
ATOM     16  O   UNL     1       3.769 -17.253  14.392  0.00  0.00    +0.000 OA
ATOM     17  C   UNL     1       3.884 -18.235  13.403  0.00  0.00    +0.000 C 
ATOM     18  O   UNL     1       4.668 -19.171  13.456  0.00  0.00    +0.000 OA
ATOM     19  C   UNL     1       2.991 -18.051  12.286  0.00  0.00    +0.000 C 
ATOM     20  C   UNL     1       2.018 -17.079  11.973  0.00  0.00    +0.000 C 
ATOM     21  C   UNL     1       2.034 -16.182  13.064  0.00  0.00    +0.000 C 
BRANCH  20  22
ATOM     22  O   UNL     1       1.801 -16.679  10.687  0.00  0.00    +0.000 OA
ATOM     23  H   UNL     1       2.252 -17.250  10.036  0.00  0.00    +0.000 HD
ENDBRANCH  20  22
ENDBRANCH  14  15
ENDBRANCH   2  13
BRANCH   3  24
ATOM     24  O   UNL     1       4.148 -11.676  15.012  0.00  0.00    +0.000 OA
BRANCH  24  25
ATOM     25  C   UNL     1       4.828 -12.180  13.918  0.00  0.00    +0.000 C 
ATOM     26  O   UNL     1       5.464 -13.236  13.939  0.00  0.00    +0.000 OA
BRANCH  25  27
ATOM     27  C   UNL     1       4.693 -11.222  12.684  0.00  0.00    +0.000 C 
ATOM     28  C   UNL     1       3.319 -11.489  11.963  0.00  0.00    +0.000 C 
ATOM     29  C   UNL     1       5.864 -11.464  11.648  0.00  0.00    +0.000 C 
BRANCH  27  30
ATOM     30  C   UNL     1       4.767  -9.826  13.199  0.00  0.00    +0.000 C 
ATOM     31  C   UNL     1       4.803  -8.356  13.711  0.00  0.00    +0.000 C 
ENDBRANCH  27  30
ENDBRANCH  25  27
ENDBRANCH  24  25
ENDBRANCH   3  24
TORSDOF 7
ENDMDL
