MODEL 1
REMARK VINA RESULT:      -7.9      0.000      0.000
REMARK  Name = Staurosporine.pdbqt.pdb
REMARK  2 active torsions:
REMARK  status: ('A' for Active; 'I' for Inactive)
REMARK    1  A    between atoms: C_3  and  O_11
REMARK    2  A    between atoms: C_5  and  N_8
REMARK                            x       y       z     vdW  Elec       q    Type
REMARK                         _______ _______ _______ _____ _____    ______ ____
ROOT
ATOM      1  O   UNL     1      -7.447  -4.253  21.965  0.00  0.00    +0.000 OA
ATOM      2  C   UNL     1      -8.696  -4.358  21.229  0.00  0.00    +0.000 C 
ATOM      3  C   UNL     1      -9.860  -4.997  22.013  0.00  0.00    +0.000 C 
ATOM      4  C   UNL     1      -7.597  -3.694  23.224  0.00  0.00    +0.000 C 
ATOM      5  C   UNL     1      -9.817  -4.971  23.473  0.00  0.00    +0.000 C 
ATOM      6  C   UNL     1      -8.643  -4.337  23.918  0.00  0.00    +0.000 C 
ATOM      7  C   UNL     1      -8.342  -5.338  20.061  0.00  0.00    +0.000 C 
ATOM      8  N   UNL     1      -9.028  -3.005  20.727  0.00  0.00    +0.000 N 
ATOM      9  C   UNL     1      -8.672  -1.756  21.172  0.00  0.00    +0.000 A 
ATOM     10  C   UNL     1      -7.972  -1.429  22.338  0.00  0.00    +0.000 A 
ATOM     11  C   UNL     1      -9.094  -0.634  20.447  0.00  0.00    +0.000 A 
ATOM     12  N   UNL     1      -7.549  -2.317  23.280  0.00  0.00    +0.000 N 
ATOM     13  C   UNL     1      -7.848  -0.055  22.593  0.00  0.00    +0.000 A 
ATOM     14  C   UNL     1      -7.178  -1.432  24.312  0.00  0.00    +0.000 A 
ATOM     15  C   UNL     1      -7.315  -0.055  23.900  0.00  0.00    +0.000 A 
ATOM     16  C   UNL     1      -6.695  -1.753  25.591  0.00  0.00    +0.000 A 
ATOM     17  C   UNL     1      -6.962   0.948  24.825  0.00  0.00    +0.000 A 
ATOM     18  C   UNL     1      -6.485   0.609  26.089  0.00  0.00    +0.000 A 
ATOM     19  C   UNL     1      -6.356  -0.720  26.464  0.00  0.00    +0.000 A 
ATOM     20  C   UNL     1      -8.259   1.079  21.865  0.00  0.00    +0.000 A 
ATOM     21  C   UNL     1      -8.945   0.742  20.665  0.00  0.00    +0.000 A 
ATOM     22  C   UNL     1      -8.205   2.513  22.032  0.00  0.00    +0.000 C 
ATOM     23  C   UNL     1      -9.350   2.024  20.029  0.00  0.00    +0.000 C 
ATOM     24  N   UNL     1      -8.882   2.957  20.887  0.00  0.00    +0.000 N 
ATOM     25  H   UNL     1      -9.000   3.947  20.724  0.00  0.00    +0.000 HD
ATOM     26  O   UNL     1      -7.734   3.251  22.883  0.00  0.00    +0.000 OA
ATOM     27  C   UNL     1      -9.844  -1.212  19.409  0.00  0.00    +0.000 A 
ATOM     28  C   UNL     1      -9.812  -2.643  19.598  0.00  0.00    +0.000 A 
ATOM     29  C   UNL     1     -10.580  -0.692  18.325  0.00  0.00    +0.000 A 
ATOM     30  C   UNL     1     -10.505  -3.477  18.703  0.00  0.00    +0.000 A 
ATOM     31  C   UNL     1     -11.217  -2.916  17.643  0.00  0.00    +0.000 A 
ATOM     32  C   UNL     1     -11.255  -1.544  17.454  0.00  0.00    +0.000 A 
ENDROOT
BRANCH   5  33
ATOM     33  N   UNL     1     -10.909  -5.334  24.310  0.00  0.00    +0.000 N 
ATOM     34  C   UNL     1     -11.041  -4.551  25.519  0.00  0.00    +0.000 C 
ATOM     35  H   UNL     1     -11.058  -6.340  24.413  0.00  0.00    +0.000 HD
ENDBRANCH   5  33
BRANCH   3  36
ATOM     36  O   UNL     1     -11.067  -5.056  21.350  0.00  0.00    +0.000 OA
ATOM     37  C   UNL     1     -12.049  -4.277  21.980  0.00  0.00    +0.000 C 
ENDBRANCH   3  36
TORSDOF 2
ENDMDL
MODEL 2
REMARK VINA RESULT:      -7.4     17.277     18.775
REMARK  Name = Staurosporine.pdbqt.pdb
REMARK  2 active torsions:
REMARK  status: ('A' for Active; 'I' for Inactive)
REMARK    1  A    between atoms: C_3  and  O_11
REMARK    2  A    between atoms: C_5  and  N_8
REMARK                            x       y       z     vdW  Elec       q    Type
REMARK                         _______ _______ _______ _____ _____    ______ ____
ROOT
ATOM      1  O   UNL     1     -20.529  -5.338   9.510  0.00  0.00    +0.000 OA
ATOM      2  C   UNL     1     -21.160  -4.795   8.318  0.00  0.00    +0.000 C 
ATOM      3  C   UNL     1     -22.061  -5.784   7.552  0.00  0.00    +0.000 C 
ATOM      4  C   UNL     1     -21.415  -5.994  10.349  0.00  0.00    +0.000 C 
ATOM      5  C   UNL     1     -22.615  -6.928   8.273  0.00  0.00    +0.000 C 
ATOM      6  C   UNL     1     -22.188  -6.916   9.613  0.00  0.00    +0.000 C 
ATOM      7  C   UNL     1     -19.944  -4.472   7.386  0.00  0.00    +0.000 C 
ATOM      8  N   UNL     1     -21.882  -3.567   8.721  0.00  0.00    +0.000 N 
ATOM      9  C   UNL     1     -22.392  -3.167   9.931  0.00  0.00    +0.000 A 
ATOM     10  C   UNL     1     -22.467  -3.905  11.116  0.00  0.00    +0.000 A 
ATOM     11  C   UNL     1     -22.983  -1.900  10.029  0.00  0.00    +0.000 A 
ATOM     12  N   UNL     1     -22.074  -5.200  11.265  0.00  0.00    +0.000 N 
ATOM     13  C   UNL     1     -23.143  -3.273  12.170  0.00  0.00    +0.000 A 
ATOM     14  C   UNL     1     -22.626  -5.487  12.530  0.00  0.00    +0.000 A 
ATOM     15  C   UNL     1     -23.244  -4.320  13.112  0.00  0.00    +0.000 A 
ATOM     16  C   UNL     1     -22.596  -6.706  13.227  0.00  0.00    +0.000 A 
ATOM     17  C   UNL     1     -23.825  -4.449  14.389  0.00  0.00    +0.000 A 
ATOM     18  C   UNL     1     -23.786  -5.667  15.065  0.00  0.00    +0.000 A 
ATOM     19  C   UNL     1     -23.183  -6.776  14.489  0.00  0.00    +0.000 A 
ATOM     20  C   UNL     1     -23.732  -1.998  12.281  0.00  0.00    +0.000 A 
ATOM     21  C   UNL     1     -23.627  -1.238  11.083  0.00  0.00    +0.000 A 
ATOM     22  C   UNL     1     -24.458  -1.258  13.288  0.00  0.00    +0.000 C 
ATOM     23  C   UNL     1     -24.320   0.054  11.334  0.00  0.00    +0.000 C 
ATOM     24  N   UNL     1     -24.750  -0.067  12.608  0.00  0.00    +0.000 N 
ATOM     25  H   UNL     1     -25.263   0.666  13.077  0.00  0.00    +0.000 HD
ATOM     26  O   UNL     1     -24.788  -1.492  14.441  0.00  0.00    +0.000 OA
ATOM     27  C   UNL     1     -22.875  -1.416   8.715  0.00  0.00    +0.000 A 
ATOM     28  C   UNL     1     -22.224  -2.437   7.930  0.00  0.00    +0.000 A 
ATOM     29  C   UNL     1     -23.276  -0.225   8.074  0.00  0.00    +0.000 A 
ATOM     30  C   UNL     1     -22.002  -2.222   6.558  0.00  0.00    +0.000 A 
ATOM     31  C   UNL     1     -22.414  -1.026   5.969  0.00  0.00    +0.000 A 
ATOM     32  C   UNL     1     -23.040  -0.041   6.713  0.00  0.00    +0.000 A 
ENDROOT
BRANCH   5  33
ATOM     33  N   UNL     1     -23.616  -7.791   7.750  0.00  0.00    +0.000 N 
ATOM     34  C   UNL     1     -23.531  -9.167   8.190  0.00  0.00    +0.000 C 
ATOM     35  H   UNL     1     -23.830  -7.653   6.759  0.00  0.00    +0.000 HD
ENDBRANCH   5  33
BRANCH   3  36
ATOM     36  O   UNL     1     -22.709  -5.272   6.449  0.00  0.00    +0.000 OA
ATOM     37  C   UNL     1     -22.263  -5.865   5.259  0.00  0.00    +0.000 C 
ENDBRANCH   3  36
TORSDOF 2
ENDMDL
MODEL 3
REMARK VINA RESULT:      -7.3      1.849      2.320
REMARK  Name = Staurosporine.pdbqt.pdb
REMARK  2 active torsions:
REMARK  status: ('A' for Active; 'I' for Inactive)
REMARK    1  A    between atoms: C_3  and  O_11
REMARK    2  A    between atoms: C_5  and  N_8
REMARK                            x       y       z     vdW  Elec       q    Type
REMARK                         _______ _______ _______ _____ _____    ______ ____
ROOT
ATOM      1  O   UNL     1      -8.164  -2.458  23.818  0.00  0.00    +0.000 OA
ATOM      2  C   UNL     1      -9.133  -3.080  22.930  0.00  0.00    +0.000 C 
ATOM      3  C   UNL     1     -10.444  -3.525  23.608  0.00  0.00    +0.000 C 
ATOM      4  C   UNL     1      -8.708  -1.459  24.609  0.00  0.00    +0.000 C 
ATOM      5  C   UNL     1     -10.837  -2.883  24.860  0.00  0.00    +0.000 C 
ATOM      6  C   UNL     1      -9.880  -1.925  25.241  0.00  0.00    +0.000 C 
ATOM      7  C   UNL     1      -8.401  -4.381  22.457  0.00  0.00    +0.000 C 
ATOM      8  N   UNL     1      -9.367  -2.144  21.807  0.00  0.00    +0.000 N 
ATOM      9  C   UNL     1      -9.221  -0.783  21.711  0.00  0.00    +0.000 A 
ATOM     10  C   UNL     1      -8.915   0.121  22.733  0.00  0.00    +0.000 A 
ATOM     11  C   UNL     1      -9.464  -0.162  20.478  0.00  0.00    +0.000 A 
ATOM     12  N   UNL     1      -8.747  -0.201  24.046  0.00  0.00    +0.000 N 
ATOM     13  C   UNL     1      -8.940   1.473  22.361  0.00  0.00    +0.000 A 
ATOM     14  C   UNL     1      -8.743   1.086  24.621  0.00  0.00    +0.000 A 
ATOM     15  C   UNL     1      -8.819   2.115  23.612  0.00  0.00    +0.000 A 
ATOM     16  C   UNL     1      -8.645   1.421  25.982  0.00  0.00    +0.000 A 
ATOM     17  C   UNL     1      -8.806   3.458  24.038  0.00  0.00    +0.000 A 
ATOM     18  C   UNL     1      -8.709   3.771  25.392  0.00  0.00    +0.000 A 
ATOM     19  C   UNL     1      -8.632   2.767  26.346  0.00  0.00    +0.000 A 
ATOM     20  C   UNL     1      -9.172   2.105  21.123  0.00  0.00    +0.000 A 
ATOM     21  C   UNL     1      -9.454   1.181  20.079  0.00  0.00    +0.000 A 
ATOM     22  C   UNL     1      -9.241   3.461  20.631  0.00  0.00    +0.000 C 
ATOM     23  C   UNL     1      -9.716   1.985  18.855  0.00  0.00    +0.000 C 
ATOM     24  N   UNL     1      -9.569   3.258  19.283  0.00  0.00    +0.000 N 
ATOM     25  H   UNL     1      -9.682   4.050  18.668  0.00  0.00    +0.000 HD
ATOM     26  O   UNL     1      -9.080   4.559  21.142  0.00  0.00    +0.000 OA
ATOM     27  C   UNL     1      -9.844  -1.244  19.667  0.00  0.00    +0.000 A 
ATOM     28  C   UNL     1      -9.799  -2.434  20.483  0.00  0.00    +0.000 A 
ATOM     29  C   UNL     1     -10.250  -1.365  18.322  0.00  0.00    +0.000 A 
ATOM     30  C   UNL     1     -10.153  -3.674  19.924  0.00  0.00    +0.000 A 
ATOM     31  C   UNL     1     -10.546  -3.744  18.587  0.00  0.00    +0.000 A 
ATOM     32  C   UNL     1     -10.593  -2.609  17.796  0.00  0.00    +0.000 A 
ENDROOT
BRANCH   5  33
ATOM     33  N   UNL     1     -12.108  -3.048  25.476  0.00  0.00    +0.000 N 
ATOM     34  C   UNL     1     -13.046  -1.971  25.244  0.00  0.00    +0.000 C 
ATOM     35  H   UNL     1     -12.081  -3.416  26.429  0.00  0.00    +0.000 HD
ENDBRANCH   5  33
BRANCH   3  36
ATOM     36  O   UNL     1     -11.396  -4.070  22.772  0.00  0.00    +0.000 OA
ATOM     37  C   UNL     1     -11.603  -5.432  23.034  0.00  0.00    +0.000 C 
ENDBRANCH   3  36
TORSDOF 2
ENDMDL
MODEL 4
REMARK VINA RESULT:      -7.3     17.815     20.146
REMARK  Name = Staurosporine.pdbqt.pdb
REMARK  2 active torsions:
REMARK  status: ('A' for Active; 'I' for Inactive)
REMARK    1  A    between atoms: C_3  and  O_11
REMARK    2  A    between atoms: C_5  and  N_8
REMARK                            x       y       z     vdW  Elec       q    Type
REMARK                         _______ _______ _______ _____ _____    ______ ____
ROOT
ATOM      1  O   UNL     1     -21.364  -6.676   8.092  0.00  0.00    +0.000 OA
ATOM      2  C   UNL     1     -21.728  -5.297   7.812  0.00  0.00    +0.000 C 
ATOM      3  C   UNL     1     -22.738  -5.112   6.661  0.00  0.00    +0.000 C 
ATOM      4  C   UNL     1     -22.457  -7.518   8.216  0.00  0.00    +0.000 C 
ATOM      5  C   UNL     1     -23.604  -6.232   6.303  0.00  0.00    +0.000 C 
ATOM      6  C   UNL     1     -23.330  -7.344   7.121  0.00  0.00    +0.000 C 
ATOM      7  C   UNL     1     -20.378  -4.659   7.341  0.00  0.00    +0.000 C 
ATOM      8  N   UNL     1     -22.202  -4.700   9.082  0.00  0.00    +0.000 N 
ATOM      9  C   UNL     1     -22.738  -5.268  10.210  0.00  0.00    +0.000 A 
ATOM     10  C   UNL     1     -23.100  -6.604  10.408  0.00  0.00    +0.000 A 
ATOM     11  C   UNL     1     -23.044  -4.444  11.302  0.00  0.00    +0.000 A 
ATOM     12  N   UNL     1     -23.020  -7.590   9.473  0.00  0.00    +0.000 N 
ATOM     13  C   UNL     1     -23.731  -6.875  11.631  0.00  0.00    +0.000 A 
ATOM     14  C   UNL     1     -23.754  -8.607  10.115  0.00  0.00    +0.000 A 
ATOM     15  C   UNL     1     -24.159  -8.208  11.442  0.00  0.00    +0.000 A 
ATOM     16  C   UNL     1     -24.068  -9.885   9.624  0.00  0.00    +0.000 A 
ATOM     17  C   UNL     1     -24.888  -9.132  12.216  0.00  0.00    +0.000 A 
ATOM     18  C   UNL     1     -25.191 -10.395  11.710  0.00  0.00    +0.000 A 
ATOM     19  C   UNL     1     -24.788 -10.762  10.435  0.00  0.00    +0.000 A 
ATOM     20  C   UNL     1     -24.033  -6.057  12.738  0.00  0.00    +0.000 A 
ATOM     21  C   UNL     1     -23.636  -4.705  12.545  0.00  0.00    +0.000 A 
ATOM     22  C   UNL     1     -24.682  -6.216  14.018  0.00  0.00    +0.000 C 
ATOM     23  C   UNL     1     -24.051  -3.959  13.763  0.00  0.00    +0.000 C 
ATOM     24  N   UNL     1     -24.632  -4.910  14.526  0.00  0.00    +0.000 N 
ATOM     25  H   UNL     1     -25.018  -4.709  15.437  0.00  0.00    +0.000 HD
ATOM     26  O   UNL     1     -25.178  -7.165  14.607  0.00  0.00    +0.000 OA
ATOM     27  C   UNL     1     -22.692  -3.171  10.825  0.00  0.00    +0.000 A 
ATOM     28  C   UNL     1     -22.201  -3.334   9.477  0.00  0.00    +0.000 A 
ATOM     29  C   UNL     1     -22.750  -1.871  11.367  0.00  0.00    +0.000 A 
ATOM     30  C   UNL     1     -21.791  -2.206   8.746  0.00  0.00    +0.000 A 
ATOM     31  C   UNL     1     -21.864  -0.940   9.326  0.00  0.00    +0.000 A 
ATOM     32  C   UNL     1     -22.334  -0.772  10.618  0.00  0.00    +0.000 A 
ENDROOT
BRANCH   5  33
ATOM     33  N   UNL     1     -24.708  -6.134   5.413  0.00  0.00    +0.000 N 
ATOM     34  C   UNL     1     -24.585  -6.907   4.196  0.00  0.00    +0.000 C 
ATOM     35  H   UNL     1     -25.093  -5.193   5.305  0.00  0.00    +0.000 HD
ENDBRANCH   5  33
BRANCH   3  36
ATOM     36  O   UNL     1     -23.135  -3.815   6.417  0.00  0.00    +0.000 OA
ATOM     37  C   UNL     1     -22.891  -3.435   5.089  0.00  0.00    +0.000 C 
ENDBRANCH   3  36
TORSDOF 2
ENDMDL
MODEL 5
REMARK VINA RESULT:      -7.1     14.447     18.218
REMARK  Name = Staurosporine.pdbqt.pdb
REMARK  2 active torsions:
REMARK  status: ('A' for Active; 'I' for Inactive)
REMARK    1  A    between atoms: C_3  and  O_11
REMARK    2  A    between atoms: C_5  and  N_8
REMARK                            x       y       z     vdW  Elec       q    Type
REMARK                         _______ _______ _______ _____ _____    ______ ____
ROOT
ATOM      1  O   UNL     1       2.363 -17.337  18.798  0.00  0.00    +0.000 OA
ATOM      2  C   UNL     1       2.495 -15.907  18.570  0.00  0.00    +0.000 C 
ATOM      3  C   UNL     1       2.697 -15.500  17.097  0.00  0.00    +0.000 C 
ATOM      4  C   UNL     1       1.443 -17.944  17.957  0.00  0.00    +0.000 C 
ATOM      5  C   UNL     1       2.250 -16.416  16.050  0.00  0.00    +0.000 C 
ATOM      6  C   UNL     1       1.692 -17.576  16.618  0.00  0.00    +0.000 C 
ATOM      7  C   UNL     1       3.816 -15.545  19.328  0.00  0.00    +0.000 C 
ATOM      8  N   UNL     1       1.316 -15.253  19.181  0.00  0.00    +0.000 N 
ATOM      9  C   UNL     1       0.058 -15.723  19.465  0.00  0.00    +0.000 A 
ATOM     10  C   UNL     1      -0.491 -16.963  19.121  0.00  0.00    +0.000 A 
ATOM     11  C   UNL     1      -0.850 -14.876  20.114  0.00  0.00    +0.000 A 
ATOM     12  N   UNL     1       0.133 -17.926  18.388  0.00  0.00    +0.000 N 
ATOM     13  C   UNL     1      -1.845 -17.126  19.448  0.00  0.00    +0.000 A 
ATOM     14  C   UNL     1      -0.952 -18.787  18.128  0.00  0.00    +0.000 A 
ATOM     15  C   UNL     1      -2.151 -18.340  18.796  0.00  0.00    +0.000 A 
ATOM     16  C   UNL     1      -0.953 -19.965  17.364  0.00  0.00    +0.000 A 
ATOM     17  C   UNL     1      -3.319 -19.114  18.643  0.00  0.00    +0.000 A 
ATOM     18  C   UNL     1      -3.300 -20.280  17.880  0.00  0.00    +0.000 A 
ATOM     19  C   UNL     1      -2.136 -20.695  17.251  0.00  0.00    +0.000 A 
ATOM     20  C   UNL     1      -2.762 -16.286  20.109  0.00  0.00    +0.000 A 
ATOM     21  C   UNL     1      -2.192 -15.037  20.484  0.00  0.00    +0.000 A 
ATOM     22  C   UNL     1      -4.158 -16.336  20.479  0.00  0.00    +0.000 C 
ATOM     23  C   UNL     1      -3.276 -14.247  21.127  0.00  0.00    +0.000 C 
ATOM     24  N   UNL     1      -4.340 -15.078  21.070  0.00  0.00    +0.000 N 
ATOM     25  H   UNL     1      -5.245 -14.821  21.439  0.00  0.00    +0.000 HD
ATOM     26  O   UNL     1      -5.037 -17.177  20.366  0.00  0.00    +0.000 OA
ATOM     27  C   UNL     1      -0.110 -13.691  20.252  0.00  0.00    +0.000 A 
ATOM     28  C   UNL     1       1.191 -13.923  19.670  0.00  0.00    +0.000 A 
ATOM     29  C   UNL     1      -0.390 -12.417  20.787  0.00  0.00    +0.000 A 
ATOM     30  C   UNL     1       2.140 -12.887  19.655  0.00  0.00    +0.000 A 
ATOM     31  C   UNL     1       1.817 -11.643  20.199  0.00  0.00    +0.000 A 
ATOM     32  C   UNL     1       0.572 -11.410  20.758  0.00  0.00    +0.000 A 
ENDROOT
BRANCH   5  33
ATOM     33  N   UNL     1       2.186 -16.079  14.670  0.00  0.00    +0.000 N 
ATOM     34  C   UNL     1       2.099 -17.206  13.767  0.00  0.00    +0.000 C 
ATOM     35  H   UNL     1       2.813 -15.325  14.380  0.00  0.00    +0.000 HD
ENDBRANCH   5  33
BRANCH   3  36
ATOM     36  O   UNL     1       2.771 -14.145  16.856  0.00  0.00    +0.000 OA
ATOM     37  C   UNL     1       4.028 -13.771  16.357  0.00  0.00    +0.000 C 
ENDBRANCH   3  36
TORSDOF 2
ENDMDL
MODEL 6
REMARK VINA RESULT:      -7.1     14.943     17.597
REMARK  Name = Staurosporine.pdbqt.pdb
REMARK  2 active torsions:
REMARK  status: ('A' for Active; 'I' for Inactive)
REMARK    1  A    between atoms: C_3  and  O_11
REMARK    2  A    between atoms: C_5  and  N_8
REMARK                            x       y       z     vdW  Elec       q    Type
REMARK                         _______ _______ _______ _____ _____    ______ ____
ROOT
ATOM      1  O   UNL     1       6.669  -8.695  18.297  0.00  0.00    +0.000 OA
ATOM      2  C   UNL     1       5.688  -9.620  18.842  0.00  0.00    +0.000 C 
ATOM      3  C   UNL     1       4.528  -8.957  19.612  0.00  0.00    +0.000 C 
ATOM      4  C   UNL     1       6.102  -7.650  17.588  0.00  0.00    +0.000 C 
ATOM      5  C   UNL     1       4.205  -7.561  19.326  0.00  0.00    +0.000 C 
ATOM      6  C   UNL     1       5.075  -7.048  18.346  0.00  0.00    +0.000 C 
ATOM      7  C   UNL     1       6.515 -10.444  19.886  0.00  0.00    +0.000 C 
ATOM      8  N   UNL     1       5.214 -10.469  17.726  0.00  0.00    +0.000 N 
ATOM      9  C   UNL     1       5.181 -10.256  16.371  0.00  0.00    +0.000 A 
ATOM     10  C   UNL     1       5.490  -9.079  15.680  0.00  0.00    +0.000 A 
ATOM     11  C   UNL     1       4.724 -11.284  15.536  0.00  0.00    +0.000 A 
ATOM     12  N   UNL     1       5.845  -7.897  16.255  0.00  0.00    +0.000 N 
ATOM     13  C   UNL     1       5.257  -9.122  14.298  0.00  0.00    +0.000 A 
ATOM     14  C   UNL     1       5.758  -7.039  15.141  0.00  0.00    +0.000 A 
ATOM     15  C   UNL     1       5.441  -7.769  13.936  0.00  0.00    +0.000 A 
ATOM     16  C   UNL     1       5.969  -5.651  15.103  0.00  0.00    +0.000 A 
ATOM     17  C   UNL     1       5.339  -7.044  12.733  0.00  0.00    +0.000 A 
ATOM     18  C   UNL     1       5.552  -5.666  12.716  0.00  0.00    +0.000 A 
ATOM     19  C   UNL     1       5.860  -4.984  13.884  0.00  0.00    +0.000 A 
ATOM     20  C   UNL     1       4.809 -10.153  13.449  0.00  0.00    +0.000 A 
ATOM     21  C   UNL     1       4.524 -11.357  14.150  0.00  0.00    +0.000 A 
ATOM     22  C   UNL     1       4.518 -10.306  12.042  0.00  0.00    +0.000 C 
ATOM     23  C   UNL     1       4.027 -12.332  13.143  0.00  0.00    +0.000 C 
ATOM     24  N   UNL     1       4.066 -11.632  11.989  0.00  0.00    +0.000 N 
ATOM     25  H   UNL     1       3.786 -12.033  11.105  0.00  0.00    +0.000 HD
ATOM     26  O   UNL     1       4.602  -9.567  11.072  0.00  0.00    +0.000 OA
ATOM     27  C   UNL     1       4.389 -12.291  16.455  0.00  0.00    +0.000 A 
ATOM     28  C   UNL     1       4.672 -11.783  17.776  0.00  0.00    +0.000 A 
ATOM     29  C   UNL     1       3.849 -13.588  16.335  0.00  0.00    +0.000 A 
ATOM     30  C   UNL     1       4.411 -12.585  18.900  0.00  0.00    +0.000 A 
ATOM     31  C   UNL     1       3.878 -13.863  18.730  0.00  0.00    +0.000 A 
ATOM     32  C   UNL     1       3.602 -14.360  17.468  0.00  0.00    +0.000 A 
ENDROOT
BRANCH   5  33
ATOM     33  N   UNL     1       3.043  -6.897  19.805  0.00  0.00    +0.000 N 
ATOM     34  C   UNL     1       3.296  -5.764  20.668  0.00  0.00    +0.000 C 
ATOM     35  H   UNL     1       2.281  -7.514  20.093  0.00  0.00    +0.000 HD
ENDBRANCH   5  33
BRANCH   3  36
ATOM     36  O   UNL     1       3.560  -9.814  20.091  0.00  0.00    +0.000 OA
ATOM     37  C   UNL     1       3.476  -9.778  21.490  0.00  0.00    +0.000 C 
ENDBRANCH   3  36
TORSDOF 2
ENDMDL
MODEL 7
REMARK VINA RESULT:      -7.0      2.940      3.733
REMARK  Name = Staurosporine.pdbqt.pdb
REMARK  2 active torsions:
REMARK  status: ('A' for Active; 'I' for Inactive)
REMARK    1  A    between atoms: C_3  and  O_11
REMARK    2  A    between atoms: C_5  and  N_8
REMARK                            x       y       z     vdW  Elec       q    Type
REMARK                         _______ _______ _______ _____ _____    ______ ____
ROOT
ATOM      1  O   UNL     1     -10.044  -2.809  25.703  0.00  0.00    +0.000 OA
ATOM      2  C   UNL     1     -10.425  -3.690  24.610  0.00  0.00    +0.000 C 
ATOM      3  C   UNL     1     -11.849  -4.272  24.711  0.00  0.00    +0.000 C 
ATOM      4  C   UNL     1     -10.989  -1.833  25.974  0.00  0.00    +0.000 C 
ATOM      5  C   UNL     1     -12.839  -3.564  25.519  0.00  0.00    +0.000 C 
ATOM      6  C   UNL     1     -12.268  -2.416  26.098  0.00  0.00    +0.000 C 
ATOM      7  C   UNL     1      -9.430  -4.891  24.757  0.00  0.00    +0.000 C 
ATOM      8  N   UNL     1     -10.204  -2.948  23.348  0.00  0.00    +0.000 N 
ATOM      9  C   UNL     1     -10.167  -1.603  23.077  0.00  0.00    +0.000 A 
ATOM     10  C   UNL     1     -10.461  -0.546  23.944  0.00  0.00    +0.000 A 
ATOM     11  C   UNL     1      -9.872  -1.184  21.773  0.00  0.00    +0.000 A 
ATOM     12  N   UNL     1     -10.889  -0.675  25.230  0.00  0.00    +0.000 N 
ATOM     13  C   UNL     1     -10.446   0.728  23.357  0.00  0.00    +0.000 A 
ATOM     14  C   UNL     1     -11.280   0.651  25.501  0.00  0.00    +0.000 A 
ATOM     15  C   UNL     1     -10.983   1.525  24.391  0.00  0.00    +0.000 A 
ATOM     16  C   UNL     1     -11.857   1.157  26.677  0.00  0.00    +0.000 A 
ATOM     17  C   UNL     1     -11.303   2.891  24.523  0.00  0.00    +0.000 A 
ATOM     18  C   UNL     1     -11.876   3.374  25.698  0.00  0.00    +0.000 A 
ATOM     19  C   UNL     1     -12.149   2.518  26.755  0.00  0.00    +0.000 A 
ATOM     20  C   UNL     1     -10.141   1.160  22.051  0.00  0.00    +0.000 A 
ATOM     21  C   UNL     1      -9.814   0.084  21.179  0.00  0.00    +0.000 A 
ATOM     22  C   UNL     1     -10.110   2.416  21.338  0.00  0.00    +0.000 C 
ATOM     23  C   UNL     1      -9.558   0.680  19.841  0.00  0.00    +0.000 C 
ATOM     24  N   UNL     1      -9.754   2.001  20.047  0.00  0.00    +0.000 N 
ATOM     25  H   UNL     1      -9.648   2.683  19.310  0.00  0.00    +0.000 HD
ATOM     26  O   UNL     1     -10.314   3.578  21.656  0.00  0.00    +0.000 OA
ATOM     27  C   UNL     1      -9.723  -2.403  21.092  0.00  0.00    +0.000 A 
ATOM     28  C   UNL     1      -9.942  -3.462  22.048  0.00  0.00    +0.000 A 
ATOM     29  C   UNL     1      -9.447  -2.751  19.754  0.00  0.00    +0.000 A 
ATOM     30  C   UNL     1      -9.872  -4.802  21.629  0.00  0.00    +0.000 A 
ATOM     31  C   UNL     1      -9.592  -5.097  20.295  0.00  0.00    +0.000 A 
ATOM     32  C   UNL     1      -9.381  -4.088  19.369  0.00  0.00    +0.000 A 
ENDROOT
BRANCH   5  33
ATOM     33  N   UNL     1     -14.226  -3.872  25.530  0.00  0.00    +0.000 N 
ATOM     34  C   UNL     1     -14.734  -4.370  26.789  0.00  0.00    +0.000 C 
ATOM     35  H   UNL     1     -14.570  -4.348  24.693  0.00  0.00    +0.000 HD
ENDBRANCH   5  33
BRANCH   3  36
ATOM     36  O   UNL     1     -12.245  -5.067  23.657  0.00  0.00    +0.000 OA
ATOM     37  C   UNL     1     -12.511  -6.382  24.066  0.00  0.00    +0.000 C 
ENDBRANCH   3  36
TORSDOF 2
ENDMDL
MODEL 8
REMARK VINA RESULT:      -7.0     17.329     19.547
REMARK  Name = Staurosporine.pdbqt.pdb
REMARK  2 active torsions:
REMARK  status: ('A' for Active; 'I' for Inactive)
REMARK    1  A    between atoms: C_3  and  O_11
REMARK    2  A    between atoms: C_5  and  N_8
REMARK                            x       y       z     vdW  Elec       q    Type
REMARK                         _______ _______ _______ _____ _____    ______ ____
ROOT
ATOM      1  O   UNL     1     -22.522  -6.815  10.593  0.00  0.00    +0.000 OA
ATOM      2  C   UNL     1     -23.182  -7.124   9.335  0.00  0.00    +0.000 C 
ATOM      3  C   UNL     1     -24.661  -7.540   9.461  0.00  0.00    +0.000 C 
ATOM      4  C   UNL     1     -23.244  -5.942  11.390  0.00  0.00    +0.000 C 
ATOM      5  C   UNL     1     -25.406  -7.126  10.647  0.00  0.00    +0.000 C 
ATOM      6  C   UNL     1     -24.578  -6.385  11.511  0.00  0.00    +0.000 C 
ATOM      7  C   UNL     1     -22.398  -8.378   8.819  0.00  0.00    +0.000 C 
ATOM      8  N   UNL     1     -22.997  -5.957   8.442  0.00  0.00    +0.000 N 
ATOM      9  C   UNL     1     -22.763  -4.633   8.712  0.00  0.00    +0.000 A 
ATOM     10  C   UNL     1     -22.760  -4.000   9.959  0.00  0.00    +0.000 A 
ATOM     11  C   UNL     1     -22.566  -3.749   7.642  0.00  0.00    +0.000 A 
ATOM     12  N   UNL     1     -23.040  -4.599  11.149  0.00  0.00    +0.000 N 
ATOM     13  C   UNL     1     -22.600  -2.607   9.920  0.00  0.00    +0.000 A 
ATOM     14  C   UNL     1     -23.161  -3.467  11.980  0.00  0.00    +0.000 A 
ATOM     15  C   UNL     1     -22.858  -2.252  11.262  0.00  0.00    +0.000 A 
ATOM     16  C   UNL     1     -23.491  -3.431  13.344  0.00  0.00    +0.000 A 
ATOM     17  C   UNL     1     -22.920  -1.035  11.970  0.00  0.00    +0.000 A 
ATOM     18  C   UNL     1     -23.250  -1.020  13.324  0.00  0.00    +0.000 A 
ATOM     19  C   UNL     1     -23.532  -2.200  13.996  0.00  0.00    +0.000 A 
ATOM     20  C   UNL     1     -22.391  -1.712   8.852  0.00  0.00    +0.000 A 
ATOM     21  C   UNL     1     -22.364  -2.363   7.587  0.00  0.00    +0.000 A 
ATOM     22  C   UNL     1     -22.233  -0.285   8.689  0.00  0.00    +0.000 C 
ATOM     23  C   UNL     1     -22.179  -1.301   6.562  0.00  0.00    +0.000 C 
ATOM     24  N   UNL     1     -22.118  -0.169   7.297  0.00  0.00    +0.000 N 
ATOM     25  H   UNL     1     -21.989   0.740   6.877  0.00  0.00    +0.000 HD
ATOM     26  O   UNL     1     -22.193   0.658   9.465  0.00  0.00    +0.000 OA
ATOM     27  C   UNL     1     -22.714  -4.590   6.527  0.00  0.00    +0.000 A 
ATOM     28  C   UNL     1     -22.991  -5.918   7.020  0.00  0.00    +0.000 A 
ATOM     29  C   UNL     1     -22.671  -4.385   5.133  0.00  0.00    +0.000 A 
ATOM     30  C   UNL     1     -23.205  -6.967   6.109  0.00  0.00    +0.000 A 
ATOM     31  C   UNL     1     -23.149  -6.715   4.738  0.00  0.00    +0.000 A 
ATOM     32  C   UNL     1     -22.885  -5.445   4.255  0.00  0.00    +0.000 A 
ENDROOT
BRANCH   5  33
ATOM     33  N   UNL     1     -26.814  -7.261  10.793  0.00  0.00    +0.000 N 
ATOM     34  C   UNL     1     -27.357  -6.728  12.023  0.00  0.00    +0.000 C 
ATOM     35  H   UNL     1     -27.194  -8.160  10.491  0.00  0.00    +0.000 HD
ENDBRANCH   5  33
BRANCH   3  36
ATOM     36  O   UNL     1     -25.317  -7.786   8.274  0.00  0.00    +0.000 OA
ATOM     37  C   UNL     1     -25.720  -9.125   8.166  0.00  0.00    +0.000 C 
ENDBRANCH   3  36
TORSDOF 2
ENDMDL
MODEL 9
REMARK VINA RESULT:      -7.0      3.455      6.147
REMARK  Name = Staurosporine.pdbqt.pdb
REMARK  2 active torsions:
REMARK  status: ('A' for Active; 'I' for Inactive)
REMARK    1  A    between atoms: C_3  and  O_11
REMARK    2  A    between atoms: C_5  and  N_8
REMARK                            x       y       z     vdW  Elec       q    Type
REMARK                         _______ _______ _______ _____ _____    ______ ____
ROOT
ATOM      1  O   UNL     1     -11.404  -5.865  23.208  0.00  0.00    +0.000 OA
ATOM      2  C   UNL     1     -11.799  -6.118  24.584  0.00  0.00    +0.000 C 
ATOM      3  C   UNL     1     -10.644  -6.492  25.535  0.00  0.00    +0.000 C 
ATOM      4  C   UNL     1     -10.333  -4.992  23.097  0.00  0.00    +0.000 C 
ATOM      5  C   UNL     1      -9.286  -6.088  25.178  0.00  0.00    +0.000 C 
ATOM      6  C   UNL     1      -9.286  -5.397  23.952  0.00  0.00    +0.000 C 
ATOM      7  C   UNL     1     -12.718  -7.380  24.466  0.00  0.00    +0.000 C 
ATOM      8  N   UNL     1     -12.555  -4.933  25.051  0.00  0.00    +0.000 N 
ATOM      9  C   UNL     1     -12.540  -3.624  24.639  0.00  0.00    +0.000 A 
ATOM     10  C   UNL     1     -11.679  -3.026  23.713  0.00  0.00    +0.000 A 
ATOM     11  C   UNL     1     -13.425  -2.717  25.237  0.00  0.00    +0.000 A 
ATOM     12  N   UNL     1     -10.651  -3.651  23.074  0.00  0.00    +0.000 N 
ATOM     13  C   UNL     1     -11.826  -1.639  23.572  0.00  0.00    +0.000 A 
ATOM     14  C   UNL     1      -9.992  -2.539  22.512  0.00  0.00    +0.000 A 
ATOM     15  C   UNL     1     -10.710  -1.314  22.769  0.00  0.00    +0.000 A 
ATOM     16  C   UNL     1      -8.808  -2.531  21.756  0.00  0.00    +0.000 A 
ATOM     17  C   UNL     1     -10.179  -0.116  22.251  0.00  0.00    +0.000 A 
ATOM     18  C   UNL     1      -9.003  -0.129  21.504  0.00  0.00    +0.000 A 
ATOM     19  C   UNL     1      -8.330  -1.318  21.263  0.00  0.00    +0.000 A 
ATOM     20  C   UNL     1     -12.719  -0.721  24.160  0.00  0.00    +0.000 A 
ATOM     21  C   UNL     1     -13.612  -1.337  25.080  0.00  0.00    +0.000 A 
ATOM     22  C   UNL     1     -12.949   0.704  24.108  0.00  0.00    +0.000 C 
ATOM     23  C   UNL     1     -14.459  -0.253  25.646  0.00  0.00    +0.000 C 
ATOM     24  N   UNL     1     -13.997   0.856  25.027  0.00  0.00    +0.000 N 
ATOM     25  H   UNL     1     -14.384   1.772  25.203  0.00  0.00    +0.000 HD
ATOM     26  O   UNL     1     -12.443   1.624  23.483  0.00  0.00    +0.000 OA
ATOM     27  C   UNL     1     -14.088  -3.521  26.178  0.00  0.00    +0.000 A 
ATOM     28  C   UNL     1     -13.544  -4.853  26.070  0.00  0.00    +0.000 A 
ATOM     29  C   UNL     1     -15.086  -3.278  27.144  0.00  0.00    +0.000 A 
ATOM     30  C   UNL     1     -14.018  -5.869  26.917  0.00  0.00    +0.000 A 
ATOM     31  C   UNL     1     -15.009  -5.581  27.856  0.00  0.00    +0.000 A 
ATOM     32  C   UNL     1     -15.538  -4.306  27.969  0.00  0.00    +0.000 A 
ENDROOT
BRANCH   5  33
ATOM     33  N   UNL     1      -8.170  -6.184  26.053  0.00  0.00    +0.000 N 
ATOM     34  C   UNL     1      -8.128  -5.191  27.104  0.00  0.00    +0.000 C 
ATOM     35  H   UNL     1      -7.279  -6.384  25.595  0.00  0.00    +0.000 HD
ENDBRANCH   5  33
BRANCH   3  36
ATOM     36  O   UNL     1     -10.993  -6.683  26.854  0.00  0.00    +0.000 OA
ATOM     37  C   UNL     1     -10.799  -8.012  27.258  0.00  0.00    +0.000 C 
ENDBRANCH   3  36
TORSDOF 2
ENDMDL
