MODEL 1
REMARK VINA RESULT:      -7.7      0.000      0.000
REMARK  Name = Testosterone.pdbqt.pdb
REMARK  1 active torsions:
REMARK  status: ('A' for Active; 'I' for Inactive)
REMARK    1  A    between atoms: C_9  and  O_21
REMARK                            x       y       z     vdW  Elec       q    Type
REMARK                         _______ _______ _______ _____ _____    ______ ____
ROOT
ATOM      1  O   UNL     1      -8.608  -5.909  17.145  0.00  0.00    +0.000 OA
ATOM      2  C   UNL     1      -7.371  -0.562  22.482  0.00  0.00    +0.000 C 
ATOM      3  C   UNL     1      -8.037   0.893  22.396  0.00  0.00    +0.000 C 
ATOM      4  C   UNL     1      -8.009  -1.741  21.863  0.00  0.00    +0.000 C 
ATOM      5  C   UNL     1      -9.122  -1.717  20.852  0.00  0.00    +0.000 C 
ATOM      6  C   UNL     1      -9.815  -2.983  20.302  0.00  0.00    +0.000 C 
ATOM      7  C   UNL     1      -8.984   0.833  21.281  0.00  0.00    +0.000 C 
ATOM      8  C   UNL     1      -9.522  -0.382  20.566  0.00  0.00    +0.000 C 
ATOM      9  C   UNL     1      -6.838   1.825  22.096  0.00  0.00    +0.000 C 
ATOM     10  C   UNL     1      -5.956  -0.373  22.353  0.00  0.00    +0.000 C 
ATOM     11  C   UNL     1      -7.496  -3.042  22.074  0.00  0.00    +0.000 C 
ATOM     12  C   UNL     1      -5.632   1.072  22.063  0.00  0.00    +0.000 C 
ATOM     13  C   UNL     1      -8.953  -4.387  20.468  0.00  0.00    +0.000 C 
ATOM     14  C   UNL     1      -7.916  -4.329  21.431  0.00  0.00    +0.000 C 
ATOM     15  C   UNL     1      -8.696   1.264  23.748  0.00  0.00    +0.000 C 
ATOM     16  C   UNL     1      -9.995  -2.875  18.816  0.00  0.00    +0.000 C 
ATOM     17  C   UNL     1     -11.171  -3.195  21.030  0.00  0.00    +0.000 C 
ATOM     18  C   UNL     1      -9.641  -3.823  17.647  0.00  0.00    +0.000 C 
ATOM     19  C   UNL     1      -8.752  -5.112  19.387  0.00  0.00    +0.000 C 
ATOM     20  C   UNL     1      -8.968  -5.071  17.948  0.00  0.00    +0.000 C 
ENDROOT
BRANCH   9  21
ATOM     21  O   UNL     1      -6.819   3.151  22.488  0.00  0.00    +0.000 OA
ATOM     22  H   UNL     1      -6.154   3.306  23.187  0.00  0.00    +0.000 HD
ENDBRANCH   9  21
TORSDOF 1
ENDMDL
MODEL 2
REMARK VINA RESULT:      -7.6      0.999      6.398
REMARK  Name = Testosterone.pdbqt.pdb
REMARK  1 active torsions:
REMARK  status: ('A' for Active; 'I' for Inactive)
REMARK    1  A    between atoms: C_9  and  O_21
REMARK                            x       y       z     vdW  Elec       q    Type
REMARK                         _______ _______ _______ _____ _____    ______ ____
ROOT
ATOM      1  O   UNL     1      -5.765   3.431  20.932  0.00  0.00    +0.000 OA
ATOM      2  C   UNL     1      -9.605  -3.117  19.936  0.00  0.00    +0.000 C 
ATOM      3  C   UNL     1      -9.080  -4.508  20.535  0.00  0.00    +0.000 C 
ATOM      4  C   UNL     1      -9.261  -1.826  20.566  0.00  0.00    +0.000 C 
ATOM      5  C   UNL     1      -8.182  -1.600  21.589  0.00  0.00    +0.000 C 
ATOM      6  C   UNL     1      -7.923  -0.245  22.283  0.00  0.00    +0.000 C 
ATOM      7  C   UNL     1      -7.939  -4.170  21.388  0.00  0.00    +0.000 C 
ATOM      8  C   UNL     1      -7.521  -2.818  21.911  0.00  0.00    +0.000 C 
ATOM      9  C   UNL     1      -8.657  -5.308  19.280  0.00  0.00    +0.000 C 
ATOM     10  C   UNL     1      -9.559  -3.243  18.510  0.00  0.00    +0.000 C 
ATOM     11  C   UNL     1      -9.850  -0.619  20.124  0.00  0.00    +0.000 C 
ATOM     12  C   UNL     1      -8.932  -4.554  18.106  0.00  0.00    +0.000 C 
ATOM     13  C   UNL     1      -8.527   1.079  21.493  0.00  0.00    +0.000 C 
ATOM     14  C   UNL     1      -9.532   0.785  20.539  0.00  0.00    +0.000 C 
ATOM     15  C   UNL     1     -10.222  -5.233  21.290  0.00  0.00    +0.000 C 
ATOM     16  C   UNL     1      -6.450   0.042  22.334  0.00  0.00    +0.000 C 
ATOM     17  C   UNL     1      -8.554  -0.253  23.702  0.00  0.00    +0.000 C 
ATOM     18  C   UNL     1      -5.607   1.270  21.921  0.00  0.00    +0.000 C 
ATOM     19  C   UNL     1      -7.697   2.067  21.231  0.00  0.00    +0.000 C 
ATOM     20  C   UNL     1      -6.284   2.404  21.324  0.00  0.00    +0.000 C 
ENDROOT
BRANCH   9  21
ATOM     21  O   UNL     1      -8.688  -6.690  19.243  0.00  0.00    +0.000 OA
ATOM     22  H   UNL     1      -8.577  -7.073  20.135  0.00  0.00    +0.000 HD
ENDBRANCH   9  21
TORSDOF 1
ENDMDL
MODEL 3
REMARK VINA RESULT:      -6.9      1.861      6.363
REMARK  Name = Testosterone.pdbqt.pdb
REMARK  1 active torsions:
REMARK  status: ('A' for Active; 'I' for Inactive)
REMARK    1  A    between atoms: C_9  and  O_21
REMARK                            x       y       z     vdW  Elec       q    Type
REMARK                         _______ _______ _______ _____ _____    ______ ____
ROOT
ATOM      1  O   UNL     1      -2.304   1.861  21.123  0.00  0.00    +0.000 OA
ATOM      2  C   UNL     1      -9.193  -1.477  21.210  0.00  0.00    +0.000 C 
ATOM      3  C   UNL     1      -9.374  -3.041  21.510  0.00  0.00    +0.000 C 
ATOM      4  C   UNL     1      -8.045  -0.717  21.744  0.00  0.00    +0.000 C 
ATOM      5  C   UNL     1      -6.789  -1.302  22.329  0.00  0.00    +0.000 C 
ATOM      6  C   UNL     1      -5.656  -0.461  22.956  0.00  0.00    +0.000 C 
ATOM      7  C   UNL     1      -8.054  -3.524  21.919  0.00  0.00    +0.000 C 
ATOM      8  C   UNL     1      -6.843  -2.724  22.331  0.00  0.00    +0.000 C 
ATOM      9  C   UNL     1      -9.815  -3.624  20.146  0.00  0.00    +0.000 C 
ATOM     10  C   UNL     1      -9.611  -1.269  19.856  0.00  0.00    +0.000 C 
ATOM     11  C   UNL     1      -7.973   0.689  21.604  0.00  0.00    +0.000 C 
ATOM     12  C   UNL     1      -9.938  -2.582  19.188  0.00  0.00    +0.000 C 
ATOM     13  C   UNL     1      -5.626   1.131  22.503  0.00  0.00    +0.000 C 
ATOM     14  C   UNL     1      -6.842   1.607  21.953  0.00  0.00    +0.000 C 
ATOM     15  C   UNL     1     -10.471  -3.259  22.581  0.00  0.00    +0.000 C 
ATOM     16  C   UNL     1      -4.318  -0.963  22.496  0.00  0.00    +0.000 C 
ATOM     17  C   UNL     1      -5.778  -0.489  24.504  0.00  0.00    +0.000 C 
ATOM     18  C   UNL     1      -3.091  -0.256  21.877  0.00  0.00    +0.000 C 
ATOM     19  C   UNL     1      -4.500   1.608  22.016  0.00  0.00    +0.000 C 
ATOM     20  C   UNL     1      -3.170   1.168  21.620  0.00  0.00    +0.000 C 
ENDROOT
BRANCH   9  21
ATOM     21  O   UNL     1     -10.604  -4.756  20.049  0.00  0.00    +0.000 OA
ATOM     22  H   UNL     1     -11.083  -4.784  19.198  0.00  0.00    +0.000 HD
ENDBRANCH   9  21
TORSDOF 1
ENDMDL
MODEL 4
REMARK VINA RESULT:      -5.8     16.481     18.176
REMARK  Name = Testosterone.pdbqt.pdb
REMARK  1 active torsions:
REMARK  status: ('A' for Active; 'I' for Inactive)
REMARK    1  A    between atoms: C_9  and  O_21
REMARK                            x       y       z     vdW  Elec       q    Type
REMARK                         _______ _______ _______ _____ _____    ______ ____
ROOT
ATOM      1  O   UNL     1       1.407 -16.760  16.754  0.00  0.00    +0.000 OA
ATOM      2  C   UNL     1       4.108 -11.179  12.263  0.00  0.00    +0.000 C 
ATOM      3  C   UNL     1       4.790  -9.860  12.865  0.00  0.00    +0.000 C 
ATOM      4  C   UNL     1       4.125 -12.461  12.995  0.00  0.00    +0.000 C 
ATOM      5  C   UNL     1       4.464 -12.645  14.449  0.00  0.00    +0.000 C 
ATOM      6  C   UNL     1       4.554 -14.021  15.145  0.00  0.00    +0.000 C 
ATOM      7  C   UNL     1       4.924 -10.101  14.303  0.00  0.00    +0.000 C 
ATOM      8  C   UNL     1       4.801 -11.404  15.056  0.00  0.00    +0.000 C 
ATOM      9  C   UNL     1       3.764  -8.744  12.552  0.00  0.00    +0.000 C 
ATOM     10  C   UNL     1       2.907 -10.755  11.607  0.00  0.00    +0.000 C 
ATOM     11  C   UNL     1       3.658 -13.652  12.392  0.00  0.00    +0.000 C 
ATOM     12  C   UNL     1       2.666  -9.282  11.827  0.00  0.00    +0.000 C 
ATOM     13  C   UNL     1       3.764 -15.255  14.375  0.00  0.00    +0.000 C 
ATOM     14  C   UNL     1       3.471 -15.003  13.012  0.00  0.00    +0.000 C 
ATOM     15  C   UNL     1       6.139  -9.581  12.157  0.00  0.00    +0.000 C 
ATOM     16  C   UNL     1       3.874 -13.974  16.483  0.00  0.00    +0.000 C 
ATOM     17  C   UNL     1       6.043 -14.447  15.273  0.00  0.00    +0.000 C 
ATOM     18  C   UNL     1       2.803 -14.870  17.145  0.00  0.00    +0.000 C 
ATOM     19  C   UNL     1       2.895 -15.956  15.073  0.00  0.00    +0.000 C 
ATOM     20  C   UNL     1       2.263 -15.979  16.384  0.00  0.00    +0.000 C 
ENDROOT
BRANCH   9  21
ATOM     21  O   UNL     1       4.142  -7.427  12.366  0.00  0.00    +0.000 OA
ATOM     22  H   UNL     1       5.114  -7.330  12.387  0.00  0.00    +0.000 HD
ENDBRANCH   9  21
TORSDOF 1
ENDMDL
MODEL 5
REMARK VINA RESULT:      -5.7      3.568      6.838
REMARK  Name = Testosterone.pdbqt.pdb
REMARK  1 active torsions:
REMARK  status: ('A' for Active; 'I' for Inactive)
REMARK    1  A    between atoms: C_9  and  O_21
REMARK                            x       y       z     vdW  Elec       q    Type
REMARK                         _______ _______ _______ _____ _____    ______ ____
ROOT
ATOM      1  O   UNL     1     -12.010  -1.112  28.395  0.00  0.00    +0.000 OA
ATOM      2  C   UNL     1      -9.815  -2.648  21.224  0.00  0.00    +0.000 C 
ATOM      3  C   UNL     1     -10.320  -3.953  20.443  0.00  0.00    +0.000 C 
ATOM      4  C   UNL     1     -10.622  -2.028  22.294  0.00  0.00    +0.000 C 
ATOM      5  C   UNL     1     -11.794  -2.657  22.996  0.00  0.00    +0.000 C 
ATOM      6  C   UNL     1     -12.660  -1.929  24.048  0.00  0.00    +0.000 C 
ATOM      7  C   UNL     1     -11.344  -4.558  21.296  0.00  0.00    +0.000 C 
ATOM      8  C   UNL     1     -12.062  -3.954  22.479  0.00  0.00    +0.000 C 
ATOM      9  C   UNL     1      -9.049  -4.831  20.342  0.00  0.00    +0.000 C 
ATOM     10  C   UNL     1      -8.401  -2.799  21.400  0.00  0.00    +0.000 C 
ATOM     11  C   UNL     1     -10.243  -0.794  22.871  0.00  0.00    +0.000 C 
ATOM     12  C   UNL     1      -7.940  -4.150  20.914  0.00  0.00    +0.000 C 
ATOM     13  C   UNL     1     -11.950  -0.613  24.759  0.00  0.00    +0.000 C 
ATOM     14  C   UNL     1     -10.848  -0.084  24.043  0.00  0.00    +0.000 C 
ATOM     15  C   UNL     1     -10.837  -3.571  19.034  0.00  0.00    +0.000 C 
ATOM     16  C   UNL     1     -12.931  -2.833  25.215  0.00  0.00    +0.000 C 
ATOM     17  C   UNL     1     -13.977  -1.433  23.389  0.00  0.00    +0.000 C 
ATOM     18  C   UNL     1     -12.768  -2.649  26.742  0.00  0.00    +0.000 C 
ATOM     19  C   UNL     1     -11.907  -0.577  26.074  0.00  0.00    +0.000 C 
ATOM     20  C   UNL     1     -12.218  -1.402  27.233  0.00  0.00    +0.000 C 
ENDROOT
BRANCH   9  21
ATOM     21  O   UNL     1      -8.856  -5.732  19.310  0.00  0.00    +0.000 OA
ATOM     22  H   UNL     1      -9.548  -6.422  19.306  0.00  0.00    +0.000 HD
ENDBRANCH   9  21
TORSDOF 1
ENDMDL
MODEL 6
REMARK VINA RESULT:      -5.7     17.810     19.789
REMARK  Name = Testosterone.pdbqt.pdb
REMARK  1 active torsions:
REMARK  status: ('A' for Active; 'I' for Inactive)
REMARK    1  A    between atoms: C_9  and  O_21
REMARK                            x       y       z     vdW  Elec       q    Type
REMARK                         _______ _______ _______ _____ _____    ______ ____
ROOT
ATOM      1  O   UNL     1       3.053 -19.779  12.044  0.00  0.00    +0.000 OA
ATOM      2  C   UNL     1       5.932 -12.784  13.224  0.00  0.00    +0.000 C 
ATOM      3  C   UNL     1       5.031 -11.464  13.104  0.00  0.00    +0.000 C 
ATOM      4  C   UNL     1       5.345 -14.090  13.585  0.00  0.00    +0.000 C 
ATOM      5  C   UNL     1       3.882 -14.436  13.576  0.00  0.00    +0.000 C 
ATOM      6  C   UNL     1       3.313 -15.791  14.050  0.00  0.00    +0.000 C 
ATOM      7  C   UNL     1       3.654 -11.934  12.946  0.00  0.00    +0.000 C 
ATOM      8  C   UNL     1       3.096 -13.316  13.188  0.00  0.00    +0.000 C 
ATOM      9  C   UNL     1       5.565 -10.773  11.827  0.00  0.00    +0.000 C 
ATOM     10  C   UNL     1       6.905 -12.711  12.173  0.00  0.00    +0.000 C 
ATOM     11  C   UNL     1       6.166 -15.213  13.837  0.00  0.00    +0.000 C 
ATOM     12  C   UNL     1       6.650 -11.517  11.288  0.00  0.00    +0.000 C 
ATOM     13  C   UNL     1       4.401 -17.040  14.083  0.00  0.00    +0.000 C 
ATOM     14  C   UNL     1       5.758 -16.635  14.080  0.00  0.00    +0.000 C 
ATOM     15  C   UNL     1       5.236 -10.560  14.345  0.00  0.00    +0.000 C 
ATOM     16  C   UNL     1       2.271 -16.284  13.089  0.00  0.00    +0.000 C 
ATOM     17  C   UNL     1       2.745 -15.647  15.488  0.00  0.00    +0.000 C 
ATOM     18  C   UNL     1       2.071 -17.633  12.361  0.00  0.00    +0.000 C 
ATOM     19  C   UNL     1       4.085 -18.144  13.439  0.00  0.00    +0.000 C 
ATOM     20  C   UNL     1       3.057 -18.677  12.557  0.00  0.00    +0.000 C 
ENDROOT
BRANCH   9  21
ATOM     21  O   UNL     1       5.505  -9.403  11.650  0.00  0.00    +0.000 OA
ATOM     22  H   UNL     1       4.614  -9.057  11.852  0.00  0.00    +0.000 HD
ENDBRANCH   9  21
TORSDOF 1
ENDMDL
MODEL 7
REMARK VINA RESULT:      -5.6     18.470     21.409
REMARK  Name = Testosterone.pdbqt.pdb
REMARK  1 active torsions:
REMARK  status: ('A' for Active; 'I' for Inactive)
REMARK    1  A    between atoms: C_9  and  O_21
REMARK                            x       y       z     vdW  Elec       q    Type
REMARK                         _______ _______ _______ _____ _____    ______ ____
ROOT
ATOM      1  O   UNL     1      -8.028 -23.263  14.958  0.00  0.00    +0.000 OA
ATOM      2  C   UNL     1     -11.041 -18.540   9.740  0.00  0.00    +0.000 C 
ATOM      3  C   UNL     1     -10.136 -17.792   8.649  0.00  0.00    +0.000 C 
ATOM      4  C   UNL     1     -10.633 -19.831  10.328  0.00  0.00    +0.000 C 
ATOM      5  C   UNL     1      -9.261 -20.443  10.256  0.00  0.00    +0.000 C 
ATOM      6  C   UNL     1      -8.910 -21.841  10.811  0.00  0.00    +0.000 C 
ATOM      7  C   UNL     1      -8.795 -18.365   8.783  0.00  0.00    +0.000 C 
ATOM      8  C   UNL     1      -8.374 -19.619   9.509  0.00  0.00    +0.000 C 
ATOM      9  C   UNL     1     -10.186 -16.309   9.088  0.00  0.00    +0.000 C 
ATOM     10  C   UNL     1     -11.590 -17.520  10.584  0.00  0.00    +0.000 C 
ATOM     11  C   UNL     1     -11.506 -20.556  11.172  0.00  0.00    +0.000 C 
ATOM     12  C   UNL     1     -11.029 -16.166  10.225  0.00  0.00    +0.000 C 
ATOM     13  C   UNL     1      -9.959 -22.432  11.948  0.00  0.00    +0.000 C 
ATOM     14  C   UNL     1     -11.226 -21.799  11.962  0.00  0.00    +0.000 C 
ATOM     15  C   UNL     1     -10.744 -17.967   7.235  0.00  0.00    +0.000 C 
ATOM     16  C   UNL     1      -7.606 -21.794  11.554  0.00  0.00    +0.000 C 
ATOM     17  C   UNL     1      -8.872 -22.872   9.650  0.00  0.00    +0.000 C 
ATOM     18  C   UNL     1      -7.186 -22.270  12.964  0.00  0.00    +0.000 C 
ATOM     19  C   UNL     1      -9.455 -22.830  13.098  0.00  0.00    +0.000 C 
ATOM     20  C   UNL     1      -8.194 -22.859  13.823  0.00  0.00    +0.000 C 
ENDROOT
BRANCH   9  21
ATOM     21  O   UNL     1     -10.050 -15.269   8.187  0.00  0.00    +0.000 OA
ATOM     22  H   UNL     1      -9.122 -15.168   7.898  0.00  0.00    +0.000 HD
ENDBRANCH   9  21
TORSDOF 1
ENDMDL
MODEL 8
REMARK VINA RESULT:      -5.5     17.751     21.046
REMARK  Name = Testosterone.pdbqt.pdb
REMARK  1 active torsions:
REMARK  status: ('A' for Active; 'I' for Inactive)
REMARK    1  A    between atoms: C_9  and  O_21
REMARK                            x       y       z     vdW  Elec       q    Type
REMARK                         _______ _______ _______ _____ _____    ______ ____
ROOT
ATOM      1  O   UNL     1     -27.152  -5.564   2.888  0.00  0.00    +0.000 OA
ATOM      2  C   UNL     1     -21.430  -3.792   7.656  0.00  0.00    +0.000 C 
ATOM      3  C   UNL     1     -20.682  -4.904   8.534  0.00  0.00    +0.000 C 
ATOM      4  C   UNL     1     -22.071  -4.126   6.369  0.00  0.00    +0.000 C 
ATOM      5  C   UNL     1     -22.389  -5.510   5.871  0.00  0.00    +0.000 C 
ATOM      6  C   UNL     1     -22.979  -5.810   4.475  0.00  0.00    +0.000 C 
ATOM      7  C   UNL     1     -21.190  -6.193   8.062  0.00  0.00    +0.000 C 
ATOM      8  C   UNL     1     -21.967  -6.497   6.804  0.00  0.00    +0.000 C 
ATOM      9  C   UNL     1     -21.134  -4.591   9.981  0.00  0.00    +0.000 C 
ATOM     10  C   UNL     1     -22.106  -2.928   8.579  0.00  0.00    +0.000 C 
ATOM     11  C   UNL     1     -22.594  -3.115   5.530  0.00  0.00    +0.000 C 
ATOM     12  C   UNL     1     -21.973  -3.443   9.991  0.00  0.00    +0.000 C 
ATOM     13  C   UNL     1     -23.733  -4.532   3.739  0.00  0.00    +0.000 C 
ATOM     14  C   UNL     1     -23.390  -3.264   4.269  0.00  0.00    +0.000 C 
ATOM     15  C   UNL     1     -19.147  -4.756   8.394  0.00  0.00    +0.000 C 
ATOM     16  C   UNL     1     -24.077  -6.828   4.581  0.00  0.00    +0.000 C 
ATOM     17  C   UNL     1     -21.849  -6.281   3.519  0.00  0.00    +0.000 C 
ATOM     18  C   UNL     1     -25.531  -6.858   4.058  0.00  0.00    +0.000 C 
ATOM     19  C   UNL     1     -24.967  -4.711   3.316  0.00  0.00    +0.000 C 
ATOM     20  C   UNL     1     -26.033  -5.702   3.343  0.00  0.00    +0.000 C 
ENDROOT
BRANCH   9  21
ATOM     21  O   UNL     1     -20.349  -4.888  11.079  0.00  0.00    +0.000 OA
ATOM     22  H   UNL     1     -19.444  -5.142  10.811  0.00  0.00    +0.000 HD
ENDBRANCH   9  21
TORSDOF 1
ENDMDL
MODEL 9
REMARK VINA RESULT:      -5.4     17.608     20.166
REMARK  Name = Testosterone.pdbqt.pdb
REMARK  1 active torsions:
REMARK  status: ('A' for Active; 'I' for Inactive)
REMARK    1  A    between atoms: C_9  and  O_21
REMARK                            x       y       z     vdW  Elec       q    Type
REMARK                         _______ _______ _______ _____ _____    ______ ____
ROOT
ATOM      1  O   UNL     1     -26.517   1.900   7.271  0.00  0.00    +0.000 OA
ATOM      2  C   UNL     1     -21.517  -3.548   9.254  0.00  0.00    +0.000 C 
ATOM      3  C   UNL     1     -21.400  -4.927   8.446  0.00  0.00    +0.000 C 
ATOM      4  C   UNL     1     -21.990  -2.309   8.604  0.00  0.00    +0.000 C 
ATOM      5  C   UNL     1     -22.693  -2.218   7.278  0.00  0.00    +0.000 C 
ATOM      6  C   UNL     1     -23.086  -0.887   6.600  0.00  0.00    +0.000 C 
ATOM      7  C   UNL     1     -22.247  -4.769   7.262  0.00  0.00    +0.000 C 
ATOM      8  C   UNL     1     -22.838  -3.505   6.688  0.00  0.00    +0.000 C 
ATOM      9  C   UNL     1     -21.963  -5.977   9.434  0.00  0.00    +0.000 C 
ATOM     10  C   UNL     1     -21.988  -3.882  10.566  0.00  0.00    +0.000 C 
ATOM     11  C   UNL     1     -21.945  -1.068   9.280  0.00  0.00    +0.000 C 
ATOM     12  C   UNL     1     -22.312  -5.352  10.662  0.00  0.00    +0.000 C 
ATOM     13  C   UNL     1     -23.174   0.421   7.611  0.00  0.00    +0.000 C 
ATOM     14  C   UNL     1     -22.496   0.255   8.844  0.00  0.00    +0.000 C 
ATOM     15  C   UNL     1     -19.918  -5.228   8.109  0.00  0.00    +0.000 C 
ATOM     16  C   UNL     1     -24.479  -0.975   6.047  0.00  0.00    +0.000 C 
ATOM     17  C   UNL     1     -22.052  -0.537   5.495  0.00  0.00    +0.000 C 
ATOM     18  C   UNL     1     -25.723  -0.069   6.192  0.00  0.00    +0.000 C 
ATOM     19  C   UNL     1     -24.289   1.121   7.610  0.00  0.00    +0.000 C 
ATOM     20  C   UNL     1     -25.629   1.103   7.040  0.00  0.00    +0.000 C 
ENDROOT
BRANCH   9  21
ATOM     21  O   UNL     1     -21.554  -7.298   9.416  0.00  0.00    +0.000 OA
ATOM     22  H   UNL     1     -22.237  -7.886   9.795  0.00  0.00    +0.000 HD
ENDBRANCH   9  21
TORSDOF 1
ENDMDL
