MODEL 1
REMARK VINA RESULT:      -3.6      0.000      0.000
REMARK  Name = Tetrachloroethylene.pdbqt.pdb
REMARK  0 active torsions:
REMARK  status: ('A' for Active; 'I' for Inactive)
REMARK                            x       y       z     vdW  Elec       q    Type
REMARK                         _______ _______ _______ _____ _____    ______ ____
ROOT
ATOM      1 CL   UNL     1     -10.492  -2.780  17.791  0.00  0.00    +0.000 Cl
ATOM      2 CL   UNL     1      -9.646  -5.240  16.447  0.00  0.00    +0.000 Cl
ATOM      3 CL   UNL     1      -8.146  -6.190  19.131  0.00  0.00    +0.000 Cl
ATOM      4 CL   UNL     1      -8.991  -3.729  20.474  0.00  0.00    +0.000 Cl
ATOM      5  C   UNL     1      -9.632  -4.286  17.900  0.00  0.00    +0.000 C 
ATOM      6  C   UNL     1      -9.005  -4.683  19.021  0.00  0.00    +0.000 C 
ENDROOT
TORSDOF 0
ENDMDL
MODEL 2
REMARK VINA RESULT:      -3.6      0.092      2.741
REMARK  Name = Tetrachloroethylene.pdbqt.pdb
REMARK  0 active torsions:
REMARK  status: ('A' for Active; 'I' for Inactive)
REMARK                            x       y       z     vdW  Elec       q    Type
REMARK                         _______ _______ _______ _____ _____    ______ ____
ROOT
ATOM      1 CL   UNL     1      -8.895  -3.791  20.511  0.00  0.00    +0.000 Cl
ATOM      2 CL   UNL     1      -8.043  -6.218  19.112  0.00  0.00    +0.000 Cl
ATOM      3 CL   UNL     1      -9.614  -5.250  16.475  0.00  0.00    +0.000 Cl
ATOM      4 CL   UNL     1     -10.466  -2.823  17.874  0.00  0.00    +0.000 Cl
ATOM      5  C   UNL     1      -8.927  -4.723  19.043  0.00  0.00    +0.000 C 
ATOM      6  C   UNL     1      -9.582  -4.319  17.942  0.00  0.00    +0.000 C 
ENDROOT
TORSDOF 0
ENDMDL
MODEL 3
REMARK VINA RESULT:      -3.5      1.342      2.258
REMARK  Name = Tetrachloroethylene.pdbqt.pdb
REMARK  0 active torsions:
REMARK  status: ('A' for Active; 'I' for Inactive)
REMARK                            x       y       z     vdW  Elec       q    Type
REMARK                         _______ _______ _______ _____ _____    ______ ____
ROOT
ATOM      1 CL   UNL     1     -10.046  -3.951  17.895  0.00  0.00    +0.000 Cl
ATOM      2 CL   UNL     1      -8.489  -6.053  19.211  0.00  0.00    +0.000 Cl
ATOM      3 CL   UNL     1      -7.883  -4.066  21.668  0.00  0.00    +0.000 Cl
ATOM      4 CL   UNL     1      -9.440  -1.964  20.353  0.00  0.00    +0.000 Cl
ATOM      5  C   UNL     1      -9.091  -4.423  19.269  0.00  0.00    +0.000 C 
ATOM      6  C   UNL     1      -8.838  -3.593  20.295  0.00  0.00    +0.000 C 
ENDROOT
TORSDOF 0
ENDMDL
MODEL 4
REMARK VINA RESULT:      -3.4      1.311      3.426
REMARK  Name = Tetrachloroethylene.pdbqt.pdb
REMARK  0 active torsions:
REMARK  status: ('A' for Active; 'I' for Inactive)
REMARK                            x       y       z     vdW  Elec       q    Type
REMARK                         _______ _______ _______ _____ _____    ______ ____
ROOT
ATOM      1 CL   UNL     1      -8.197  -4.158  21.740  0.00  0.00    +0.000 Cl
ATOM      2 CL   UNL     1      -9.599  -2.083  20.222  0.00  0.00    +0.000 Cl
ATOM      3 CL   UNL     1      -9.832  -4.079  17.709  0.00  0.00    +0.000 Cl
ATOM      4 CL   UNL     1      -8.431  -6.154  19.227  0.00  0.00    +0.000 Cl
ATOM      5  C   UNL     1      -8.966  -3.702  20.249  0.00  0.00    +0.000 C 
ATOM      6  C   UNL     1      -9.063  -4.535  19.200  0.00  0.00    +0.000 C 
ENDROOT
TORSDOF 0
ENDMDL
MODEL 5
REMARK VINA RESULT:      -2.9      1.492      3.108
REMARK  Name = Tetrachloroethylene.pdbqt.pdb
REMARK  0 active torsions:
REMARK  status: ('A' for Active; 'I' for Inactive)
REMARK                            x       y       z     vdW  Elec       q    Type
REMARK                         _______ _______ _______ _____ _____    ______ ____
ROOT
ATOM      1 CL   UNL     1     -10.061  -2.175  21.196  0.00  0.00    +0.000 Cl
ATOM      2 CL   UNL     1      -8.111  -4.352  21.008  0.00  0.00    +0.000 Cl
ATOM      3 CL   UNL     1      -9.003  -4.887  17.962  0.00  0.00    +0.000 Cl
ATOM      4 CL   UNL     1     -10.953  -2.710  18.151  0.00  0.00    +0.000 Cl
ATOM      5  C   UNL     1      -9.346  -3.419  20.215  0.00  0.00    +0.000 C 
ATOM      6  C   UNL     1      -9.718  -3.643  18.943  0.00  0.00    +0.000 C 
ENDROOT
TORSDOF 0
ENDMDL
MODEL 6
REMARK VINA RESULT:      -2.8     15.078     15.914
REMARK  Name = Tetrachloroethylene.pdbqt.pdb
REMARK  0 active torsions:
REMARK  status: ('A' for Active; 'I' for Inactive)
REMARK                            x       y       z     vdW  Elec       q    Type
REMARK                         _______ _______ _______ _____ _____    ______ ____
ROOT
ATOM      1 CL   UNL     1       4.791  -7.537  12.240  0.00  0.00    +0.000 Cl
ATOM      2 CL   UNL     1       2.150  -8.746  11.865  0.00  0.00    +0.000 Cl
ATOM      3 CL   UNL     1       3.495 -11.669  11.820  0.00  0.00    +0.000 Cl
ATOM      4 CL   UNL     1       6.135 -10.460  12.195  0.00  0.00    +0.000 Cl
ATOM      5  C   UNL     1       3.862  -8.992  12.039  0.00  0.00    +0.000 C 
ATOM      6  C   UNL     1       4.424 -10.213  12.020  0.00  0.00    +0.000 C 
ENDROOT
TORSDOF 0
ENDMDL
MODEL 7
REMARK VINA RESULT:      -2.7      3.483      4.687
REMARK  Name = Tetrachloroethylene.pdbqt.pdb
REMARK  0 active torsions:
REMARK  status: ('A' for Active; 'I' for Inactive)
REMARK                            x       y       z     vdW  Elec       q    Type
REMARK                         _______ _______ _______ _____ _____    ______ ____
ROOT
ATOM      1 CL   UNL     1      -7.366   0.224  21.967  0.00  0.00    +0.000 Cl
ATOM      2 CL   UNL     1      -9.586   0.198  20.059  0.00  0.00    +0.000 Cl
ATOM      3 CL   UNL     1      -9.516  -3.019  20.022  0.00  0.00    +0.000 Cl
ATOM      4 CL   UNL     1      -7.295  -2.993  21.930  0.00  0.00    +0.000 Cl
ATOM      5  C   UNL     1      -8.456  -0.726  21.002  0.00  0.00    +0.000 C 
ATOM      6  C   UNL     1      -8.426  -2.069  20.986  0.00  0.00    +0.000 C 
ENDROOT
TORSDOF 0
ENDMDL
MODEL 8
REMARK VINA RESULT:      -2.6     15.414     16.339
REMARK  Name = Tetrachloroethylene.pdbqt.pdb
REMARK  0 active torsions:
REMARK  status: ('A' for Active; 'I' for Inactive)
REMARK                            x       y       z     vdW  Elec       q    Type
REMARK                         _______ _______ _______ _____ _____    ______ ____
ROOT
ATOM      1 CL   UNL     1       6.794  -9.818  12.398  0.00  0.00    +0.000 Cl
ATOM      2 CL   UNL     1       4.364 -11.374  11.902  0.00  0.00    +0.000 Cl
ATOM      3 CL   UNL     1       2.629  -8.663  11.902  0.00  0.00    +0.000 Cl
ATOM      4 CL   UNL     1       5.059  -7.108  12.398  0.00  0.00    +0.000 Cl
ATOM      5  C   UNL     1       5.074  -9.807  12.150  0.00  0.00    +0.000 C 
ATOM      6  C   UNL     1       4.349  -8.675  12.150  0.00  0.00    +0.000 C 
ENDROOT
TORSDOF 0
ENDMDL
MODEL 9
REMARK VINA RESULT:      -2.6      2.726      3.601
REMARK  Name = Tetrachloroethylene.pdbqt.pdb
REMARK  0 active torsions:
REMARK  status: ('A' for Active; 'I' for Inactive)
REMARK                            x       y       z     vdW  Elec       q    Type
REMARK                         _______ _______ _______ _____ _____    ______ ____
ROOT
ATOM      1 CL   UNL     1     -11.358  -2.475  22.284  0.00  0.00    +0.000 Cl
ATOM      2 CL   UNL     1      -9.238  -1.825  20.372  0.00  0.00    +0.000 Cl
ATOM      3 CL   UNL     1      -8.494  -4.947  20.135  0.00  0.00    +0.000 Cl
ATOM      4 CL   UNL     1     -10.615  -5.597  22.047  0.00  0.00    +0.000 Cl
ATOM      5  C   UNL     1     -10.081  -3.059  21.259  0.00  0.00    +0.000 C 
ATOM      6  C   UNL     1      -9.771  -4.363  21.160  0.00  0.00    +0.000 C 
ENDROOT
TORSDOF 0
ENDMDL
