MODEL 1
REMARK VINA RESULT:      -6.5      0.000      0.000
REMARK  Name = Thalidomide.pdbqt.pdb
REMARK  1 active torsions:
REMARK  status: ('A' for Active; 'I' for Inactive)
REMARK    1  A    between atoms: N_3  and  C_12
REMARK                            x       y       z     vdW  Elec       q    Type
REMARK                         _______ _______ _______ _____ _____    ______ ____
ROOT
ATOM      1  O   UNL     1     -11.811  -5.344  21.816  0.00  0.00    +0.000 OA
ATOM      2  O   UNL     1      -9.822  -1.249  21.148  0.00  0.00    +0.000 OA
ATOM      3  N   UNL     1     -10.715  -3.425  20.998  0.00  0.00    +0.000 N 
ATOM      4  C   UNL     1     -11.532  -4.159  21.828  0.00  0.00    +0.000 C 
ATOM      5  C   UNL     1     -10.612  -2.125  21.446  0.00  0.00    +0.000 C 
ATOM      6  C   UNL     1     -12.088  -3.230  22.805  0.00  0.00    +0.000 A 
ATOM      7  C   UNL     1     -11.543  -1.987  22.560  0.00  0.00    +0.000 A 
ATOM      8  C   UNL     1     -12.978  -3.452  23.835  0.00  0.00    +0.000 A 
ATOM      9  C   UNL     1     -11.839  -0.887  23.337  0.00  0.00    +0.000 A 
ATOM     10  C   UNL     1     -13.307  -2.350  24.627  0.00  0.00    +0.000 A 
ATOM     11  C   UNL     1     -12.745  -1.085  24.381  0.00  0.00    +0.000 A 
ENDROOT
BRANCH   3  12
ATOM     12  C   UNL     1      -9.999  -3.942  19.948  0.00  0.00    +0.000 C 
ATOM     13  C   UNL     1     -10.378  -3.776  18.597  0.00  0.00    +0.000 C 
ATOM     14  C   UNL     1      -9.678  -4.487  17.480  0.00  0.00    +0.000 C 
ATOM     15  C   UNL     1      -8.547  -5.337  17.705  0.00  0.00    +0.000 C 
ATOM     16  O   UNL     1      -7.931  -5.855  16.788  0.00  0.00    +0.000 OA
ATOM     17  N   UNL     1      -8.211  -5.449  19.052  0.00  0.00    +0.000 N 
ATOM     18  C   UNL     1      -8.700  -4.718  20.144  0.00  0.00    +0.000 C 
ATOM     19  H   UNL     1      -7.341  -5.930  19.226  0.00  0.00    +0.000 HD
ATOM     20  O   UNL     1      -8.024  -4.613  21.163  0.00  0.00    +0.000 OA
ENDBRANCH   3  12
TORSDOF 1
ENDMDL
MODEL 2
REMARK VINA RESULT:      -6.1     14.600     16.473
REMARK  Name = Thalidomide.pdbqt.pdb
REMARK  1 active torsions:
REMARK  status: ('A' for Active; 'I' for Inactive)
REMARK    1  A    between atoms: N_3  and  C_12
REMARK                            x       y       z     vdW  Elec       q    Type
REMARK                         _______ _______ _______ _____ _____    ______ ____
ROOT
ATOM      1  O   UNL     1     -22.774  -7.668  10.326  0.00  0.00    +0.000 OA
ATOM      2  O   UNL     1     -22.123  -3.169  11.034  0.00  0.00    +0.000 OA
ATOM      3  N   UNL     1     -22.458  -5.497  11.185  0.00  0.00    +0.000 N 
ATOM      4  C   UNL     1     -22.403  -6.511  10.256  0.00  0.00    +0.000 C 
ATOM      5  C   UNL     1     -22.011  -4.314  10.638  0.00  0.00    +0.000 C 
ATOM      6  C   UNL     1     -21.757  -5.963   9.069  0.00  0.00    +0.000 A 
ATOM      7  C   UNL     1     -21.500  -4.630   9.309  0.00  0.00    +0.000 A 
ATOM      8  C   UNL     1     -21.439  -6.569   7.871  0.00  0.00    +0.000 A 
ATOM      9  C   UNL     1     -20.922  -3.810   8.363  0.00  0.00    +0.000 A 
ATOM     10  C   UNL     1     -20.837  -5.764   6.903  0.00  0.00    +0.000 A 
ATOM     11  C   UNL     1     -20.582  -4.403   7.144  0.00  0.00    +0.000 A 
ENDROOT
BRANCH   3  12
ATOM     12  C   UNL     1     -23.005  -5.614  12.439  0.00  0.00    +0.000 C 
ATOM     13  C   UNL     1     -24.356  -5.318  12.724  0.00  0.00    +0.000 C 
ATOM     14  C   UNL     1     -24.888  -5.292  14.124  0.00  0.00    +0.000 C 
ATOM     15  C   UNL     1     -24.073  -5.616  15.257  0.00  0.00    +0.000 C 
ATOM     16  O   UNL     1     -24.526  -5.669  16.389  0.00  0.00    +0.000 OA
ATOM     17  N   UNL     1     -22.757  -5.914  14.913  0.00  0.00    +0.000 N 
ATOM     18  C   UNL     1     -22.204  -6.111  13.639  0.00  0.00    +0.000 C 
ATOM     19  H   UNL     1     -22.199  -6.276  15.671  0.00  0.00    +0.000 HD
ATOM     20  O   UNL     1     -21.182  -6.779  13.512  0.00  0.00    +0.000 OA
ENDBRANCH   3  12
TORSDOF 1
ENDMDL
MODEL 3
REMARK VINA RESULT:      -5.9      3.264      4.007
REMARK  Name = Thalidomide.pdbqt.pdb
REMARK  1 active torsions:
REMARK  status: ('A' for Active; 'I' for Inactive)
REMARK    1  A    between atoms: N_3  and  C_12
REMARK                            x       y       z     vdW  Elec       q    Type
REMARK                         _______ _______ _______ _____ _____    ______ ____
ROOT
ATOM      1  O   UNL     1     -12.042  -6.096  23.268  0.00  0.00    +0.000 OA
ATOM      2  O   UNL     1      -7.739  -4.482  23.483  0.00  0.00    +0.000 OA
ATOM      3  N   UNL     1      -9.989  -4.975  22.985  0.00  0.00    +0.000 N 
ATOM      4  C   UNL     1     -10.956  -5.697  23.646  0.00  0.00    +0.000 C 
ATOM      5  C   UNL     1      -8.868  -4.830  23.773  0.00  0.00    +0.000 C 
ATOM      6  C   UNL     1     -10.464  -5.923  25.000  0.00  0.00    +0.000 A 
ATOM      7  C   UNL     1      -9.200  -5.377  25.083  0.00  0.00    +0.000 A 
ATOM      8  C   UNL     1     -11.057  -6.568  26.065  0.00  0.00    +0.000 A 
ATOM      9  C   UNL     1      -8.439  -5.453  26.231  0.00  0.00    +0.000 A 
ATOM     10  C   UNL     1     -10.314  -6.644  27.245  0.00  0.00    +0.000 A 
ATOM     11  C   UNL     1      -9.022  -6.094  27.327  0.00  0.00    +0.000 A 
ENDROOT
BRANCH   3  12
ATOM     12  C   UNL     1     -10.075  -4.568  21.676  0.00  0.00    +0.000 C 
ATOM     13  C   UNL     1      -9.398  -5.215  20.619  0.00  0.00    +0.000 C 
ATOM     14  C   UNL     1      -9.372  -4.657  19.229  0.00  0.00    +0.000 C 
ATOM     15  C   UNL     1     -10.076  -3.461  18.873  0.00  0.00    +0.000 C 
ATOM     16  O   UNL     1     -10.117  -3.049  17.725  0.00  0.00    +0.000 OA
ATOM     17  N   UNL     1     -10.737  -2.878  19.951  0.00  0.00    +0.000 N 
ATOM     18  C   UNL     1     -10.945  -3.394  21.239  0.00  0.00    +0.000 C 
ATOM     19  H   UNL     1     -11.348  -2.115  19.702  0.00  0.00    +0.000 HD
ATOM     20  O   UNL     1     -11.885  -2.988  21.916  0.00  0.00    +0.000 OA
ENDBRANCH   3  12
TORSDOF 1
ENDMDL
MODEL 4
REMARK VINA RESULT:      -5.7      3.324      4.419
REMARK  Name = Thalidomide.pdbqt.pdb
REMARK  1 active torsions:
REMARK  status: ('A' for Active; 'I' for Inactive)
REMARK    1  A    between atoms: N_3  and  C_12
REMARK                            x       y       z     vdW  Elec       q    Type
REMARK                         _______ _______ _______ _____ _____    ______ ____
ROOT
ATOM      1  O   UNL     1      -7.778  -4.251  23.467  0.00  0.00    +0.000 OA
ATOM      2  O   UNL     1     -12.041  -5.967  23.239  0.00  0.00    +0.000 OA
ATOM      3  N   UNL     1      -9.883  -5.106  22.843  0.00  0.00    +0.000 N 
ATOM      4  C   UNL     1      -8.803  -4.878  23.664  0.00  0.00    +0.000 C 
ATOM      5  C   UNL     1     -10.871  -5.790  23.519  0.00  0.00    +0.000 C 
ATOM      6  C   UNL     1      -9.070  -5.573  24.918  0.00  0.00    +0.000 A 
ATOM      7  C   UNL     1     -10.321  -6.146  24.822  0.00  0.00    +0.000 A 
ATOM      8  C   UNL     1      -8.297  -5.682  26.056  0.00  0.00    +0.000 A 
ATOM      9  C   UNL     1     -10.889  -6.851  25.861  0.00  0.00    +0.000 A 
ATOM     10  C   UNL     1      -8.844  -6.406  27.117  0.00  0.00    +0.000 A 
ATOM     11  C   UNL     1     -10.123  -6.982  27.022  0.00  0.00    +0.000 A 
ENDROOT
BRANCH   3  12
ATOM     12  C   UNL     1     -10.016  -4.611  21.569  0.00  0.00    +0.000 C 
ATOM     13  C   UNL     1      -9.397  -5.198  20.443  0.00  0.00    +0.000 C 
ATOM     14  C   UNL     1      -9.419  -4.549  19.093  0.00  0.00    +0.000 C 
ATOM     15  C   UNL     1     -10.112  -3.319  18.848  0.00  0.00    +0.000 C 
ATOM     16  O   UNL     1     -10.193  -2.831  17.733  0.00  0.00    +0.000 OA
ATOM     17  N   UNL     1     -10.715  -2.798  19.990  0.00  0.00    +0.000 N 
ATOM     18  C   UNL     1     -10.879  -3.395  21.249  0.00  0.00    +0.000 C 
ATOM     19  H   UNL     1     -11.320  -2.009  19.819  0.00  0.00    +0.000 HD
ATOM     20  O   UNL     1     -11.781  -3.019  21.992  0.00  0.00    +0.000 OA
ENDBRANCH   3  12
TORSDOF 1
ENDMDL
MODEL 5
REMARK VINA RESULT:      -5.7     15.557     17.533
REMARK  Name = Thalidomide.pdbqt.pdb
REMARK  1 active torsions:
REMARK  status: ('A' for Active; 'I' for Inactive)
REMARK    1  A    between atoms: N_3  and  C_12
REMARK                            x       y       z     vdW  Elec       q    Type
REMARK                         _______ _______ _______ _____ _____    ______ ____
ROOT
ATOM      1  O   UNL     1     -23.140  -3.550  10.032  0.00  0.00    +0.000 OA
ATOM      2  O   UNL     1     -21.717  -7.837   9.162  0.00  0.00    +0.000 OA
ATOM      3  N   UNL     1     -22.646  -5.854  10.031  0.00  0.00    +0.000 N 
ATOM      4  C   UNL     1     -22.842  -4.601   9.496  0.00  0.00    +0.000 C 
ATOM      5  C   UNL     1     -22.219  -6.734   9.060  0.00  0.00    +0.000 C 
ATOM      6  C   UNL     1     -22.645  -4.720   8.056  0.00  0.00    +0.000 A 
ATOM      7  C   UNL     1     -22.285  -6.024   7.788  0.00  0.00    +0.000 A 
ATOM      8  C   UNL     1     -22.751  -3.768   7.063  0.00  0.00    +0.000 A 
ATOM      9  C   UNL     1     -21.992  -6.460   6.513  0.00  0.00    +0.000 A 
ATOM     10  C   UNL     1     -22.474  -4.188   5.761  0.00  0.00    +0.000 A 
ATOM     11  C   UNL     1     -22.099  -5.516   5.489  0.00  0.00    +0.000 A 
ENDROOT
BRANCH   3  12
ATOM     12  C   UNL     1     -22.735  -6.156  11.367  0.00  0.00    +0.000 C 
ATOM     13  C   UNL     1     -21.724  -5.836  12.302  0.00  0.00    +0.000 C 
ATOM     14  C   UNL     1     -21.767  -6.321  13.718  0.00  0.00    +0.000 C 
ATOM     15  C   UNL     1     -22.859  -7.095  14.229  0.00  0.00    +0.000 C 
ATOM     16  O   UNL     1     -22.929  -7.424  15.401  0.00  0.00    +0.000 OA
ATOM     17  N   UNL     1     -23.830  -7.364  13.267  0.00  0.00    +0.000 N 
ATOM     18  C   UNL     1     -23.958  -6.838  11.974  0.00  0.00    +0.000 C 
ATOM     19  H   UNL     1     -24.671  -7.788  13.631  0.00  0.00    +0.000 HD
ATOM     20  O   UNL     1     -25.056  -6.819  11.426  0.00  0.00    +0.000 OA
ENDBRANCH   3  12
TORSDOF 1
ENDMDL
MODEL 6
REMARK VINA RESULT:      -5.6      4.210      6.442
REMARK  Name = Thalidomide.pdbqt.pdb
REMARK  1 active torsions:
REMARK  status: ('A' for Active; 'I' for Inactive)
REMARK    1  A    between atoms: N_3  and  C_12
REMARK                            x       y       z     vdW  Elec       q    Type
REMARK                         _______ _______ _______ _____ _____    ______ ____
ROOT
ATOM      1  O   UNL     1     -11.935  -5.929  23.251  0.00  0.00    +0.000 OA
ATOM      2  O   UNL     1      -7.661  -4.351  23.891  0.00  0.00    +0.000 OA
ATOM      3  N   UNL     1      -9.712  -5.511  23.912  0.00  0.00    +0.000 N 
ATOM      4  C   UNL     1     -10.821  -5.465  23.098  0.00  0.00    +0.000 C 
ATOM      5  C   UNL     1      -8.688  -4.757  23.382  0.00  0.00    +0.000 C 
ATOM      6  C   UNL     1     -10.435  -4.728  21.899  0.00  0.00    +0.000 A 
ATOM      7  C   UNL     1      -9.129  -4.314  22.064  0.00  0.00    +0.000 A 
ATOM      8  C   UNL     1     -11.165  -4.426  20.769  0.00  0.00    +0.000 A 
ATOM      9  C   UNL     1      -8.472  -3.558  21.116  0.00  0.00    +0.000 A 
ATOM     10  C   UNL     1     -10.516  -3.674  19.787  0.00  0.00    +0.000 A 
ATOM     11  C   UNL     1      -9.188  -3.246  19.958  0.00  0.00    +0.000 A 
ENDROOT
BRANCH   3  12
ATOM     12  C   UNL     1      -9.672  -6.115  25.145  0.00  0.00    +0.000 C 
ATOM     13  C   UNL     1      -9.012  -7.340  25.385  0.00  0.00    +0.000 C 
ATOM     14  C   UNL     1      -9.121  -8.061  26.693  0.00  0.00    +0.000 C 
ATOM     15  C   UNL     1      -9.858  -7.529  27.800  0.00  0.00    +0.000 C 
ATOM     16  O   UNL     1      -9.884  -8.081  28.888  0.00  0.00    +0.000 OA
ATOM     17  N   UNL     1     -10.473  -6.314  27.509  0.00  0.00    +0.000 N 
ATOM     18  C   UNL     1     -10.312  -5.494  26.383  0.00  0.00    +0.000 C 
ATOM     19  H   UNL     1     -10.884  -5.853  28.307  0.00  0.00    +0.000 HD
ATOM     20  O   UNL     1     -10.559  -4.294  26.459  0.00  0.00    +0.000 OA
ENDBRANCH   3  12
TORSDOF 1
ENDMDL
MODEL 7
REMARK VINA RESULT:      -5.5     18.183     20.330
REMARK  Name = Thalidomide.pdbqt.pdb
REMARK  1 active torsions:
REMARK  status: ('A' for Active; 'I' for Inactive)
REMARK    1  A    between atoms: N_3  and  C_12
REMARK                            x       y       z     vdW  Elec       q    Type
REMARK                         _______ _______ _______ _____ _____    ______ ____
ROOT
ATOM      1  O   UNL     1       6.788 -10.400  13.543  0.00  0.00    +0.000 OA
ATOM      2  O   UNL     1       3.782 -13.379  11.737  0.00  0.00    +0.000 OA
ATOM      3  N   UNL     1       5.467 -12.257  12.945  0.00  0.00    +0.000 N 
ATOM      4  C   UNL     1       5.796 -10.927  13.074  0.00  0.00    +0.000 C 
ATOM      5  C   UNL     1       4.281 -12.399  12.257  0.00  0.00    +0.000 C 
ATOM      6  C   UNL     1       4.678 -10.160  12.537  0.00  0.00    +0.000 A 
ATOM      7  C   UNL     1       3.746 -11.057  12.058  0.00  0.00    +0.000 A 
ATOM      8  C   UNL     1       4.495  -8.796  12.454  0.00  0.00    +0.000 A 
ATOM      9  C   UNL     1       2.577 -10.649  11.451  0.00  0.00    +0.000 A 
ATOM     10  C   UNL     1       3.312  -8.357  11.857  0.00  0.00    +0.000 A 
ATOM     11  C   UNL     1       2.365  -9.271  11.362  0.00  0.00    +0.000 A 
ENDROOT
BRANCH   3  12
ATOM     12  C   UNL     1       6.269 -13.303  13.331  0.00  0.00    +0.000 C 
ATOM     13  C   UNL     1       7.346 -13.780  12.551  0.00  0.00    +0.000 C 
ATOM     14  C   UNL     1       8.101 -15.022  12.911  0.00  0.00    +0.000 C 
ATOM     15  C   UNL     1       7.813 -15.776  14.095  0.00  0.00    +0.000 C 
ATOM     16  O   UNL     1       8.478 -16.744  14.425  0.00  0.00    +0.000 OA
ATOM     17  N   UNL     1       6.754 -15.249  14.830  0.00  0.00    +0.000 N 
ATOM     18  C   UNL     1       6.090 -14.025  14.662  0.00  0.00    +0.000 C 
ATOM     19  H   UNL     1       6.619 -15.678  15.733  0.00  0.00    +0.000 HD
ATOM     20  O   UNL     1       5.504 -13.512  15.611  0.00  0.00    +0.000 OA
ENDBRANCH   3  12
TORSDOF 1
ENDMDL
MODEL 8
REMARK VINA RESULT:      -5.3     18.204     20.375
REMARK  Name = Thalidomide.pdbqt.pdb
REMARK  1 active torsions:
REMARK  status: ('A' for Active; 'I' for Inactive)
REMARK    1  A    between atoms: N_3  and  C_12
REMARK                            x       y       z     vdW  Elec       q    Type
REMARK                         _______ _______ _______ _____ _____    ______ ____
ROOT
ATOM      1  O   UNL     1     -14.065   9.288   4.027  0.00  0.00    +0.000 OA
ATOM      2  O   UNL     1     -14.255   6.421   7.621  0.00  0.00    +0.000 OA
ATOM      3  N   UNL     1     -14.626   8.031   5.940  0.00  0.00    +0.000 N 
ATOM      4  C   UNL     1     -13.967   8.327   4.769  0.00  0.00    +0.000 C 
ATOM      5  C   UNL     1     -14.121   6.878   6.502  0.00  0.00    +0.000 C 
ATOM      6  C   UNL     1     -13.060   7.217   4.500  0.00  0.00    +0.000 A 
ATOM      7  C   UNL     1     -13.169   6.324   5.546  0.00  0.00    +0.000 A 
ATOM      8  C   UNL     1     -12.198   7.010   3.444  0.00  0.00    +0.000 A 
ATOM      9  C   UNL     1     -12.412   5.174   5.613  0.00  0.00    +0.000 A 
ATOM     10  C   UNL     1     -11.431   5.844   3.480  0.00  0.00    +0.000 A 
ATOM     11  C   UNL     1     -11.537   4.937   4.550  0.00  0.00    +0.000 A 
ENDROOT
BRANCH   3  12
ATOM     12  C   UNL     1     -15.564   8.837   6.536  0.00  0.00    +0.000 C 
ATOM     13  C   UNL     1     -16.939   8.791   6.215  0.00  0.00    +0.000 C 
ATOM     14  C   UNL     1     -17.916   9.790   6.754  0.00  0.00    +0.000 C 
ATOM     15  C   UNL     1     -17.528  10.823   7.669  0.00  0.00    +0.000 C 
ATOM     16  O   UNL     1     -18.339  11.588   8.165  0.00  0.00    +0.000 OA
ATOM     17  N   UNL     1     -16.166  10.807   7.959  0.00  0.00    +0.000 N 
ATOM     18  C   UNL     1     -15.208   9.837   7.631  0.00  0.00    +0.000 C 
ATOM     19  H   UNL     1     -15.891  11.433   8.701  0.00  0.00    +0.000 HD
ATOM     20  O   UNL     1     -14.187   9.734   8.305  0.00  0.00    +0.000 OA
ENDBRANCH   3  12
TORSDOF 1
ENDMDL
MODEL 9
REMARK VINA RESULT:      -5.1     19.557     21.731
REMARK  Name = Thalidomide.pdbqt.pdb
REMARK  1 active torsions:
REMARK  status: ('A' for Active; 'I' for Inactive)
REMARK    1  A    between atoms: N_3  and  C_12
REMARK                            x       y       z     vdW  Elec       q    Type
REMARK                         _______ _______ _______ _____ _____    ______ ____
ROOT
ATOM      1  O   UNL     1       0.313  -3.746   2.184  0.00  0.00    +0.000 OA
ATOM      2  O   UNL     1      -3.944  -4.904   0.883  0.00  0.00    +0.000 OA
ATOM      3  N   UNL     1      -1.647  -4.788   1.397  0.00  0.00    +0.000 N 
ATOM      4  C   UNL     1      -0.893  -3.881   2.107  0.00  0.00    +0.000 C 
ATOM      5  C   UNL     1      -2.991  -4.507   1.525  0.00  0.00    +0.000 C 
ATOM      6  C   UNL     1      -1.828  -3.036   2.841  0.00  0.00    +0.000 A 
ATOM      7  C   UNL     1      -3.105  -3.430   2.501  0.00  0.00    +0.000 A 
ATOM      8  C   UNL     1      -1.588  -1.996   3.715  0.00  0.00    +0.000 A 
ATOM      9  C   UNL     1      -4.227  -2.802   3.002  0.00  0.00    +0.000 A 
ATOM     10  C   UNL     1      -2.707  -1.354   4.247  0.00  0.00    +0.000 A 
ATOM     11  C   UNL     1      -4.009  -1.751   3.896  0.00  0.00    +0.000 A 
ENDROOT
BRANCH   3  12
ATOM     12  C   UNL     1      -1.133  -5.756   0.571  0.00  0.00    +0.000 C 
ATOM     13  C   UNL     1      -0.582  -5.476  -0.700  0.00  0.00    +0.000 C 
ATOM     14  C   UNL     1      -0.180  -6.562  -1.650  0.00  0.00    +0.000 C 
ATOM     15  C   UNL     1      -0.280  -7.950  -1.311  0.00  0.00    +0.000 C 
ATOM     16  O   UNL     1       0.118  -8.831  -2.056  0.00  0.00    +0.000 OA
ATOM     17  N   UNL     1      -0.814  -8.163  -0.043  0.00  0.00    +0.000 N 
ATOM     18  C   UNL     1      -1.077  -7.228   0.969  0.00  0.00    +0.000 C 
ATOM     19  H   UNL     1      -0.769  -9.120   0.274  0.00  0.00    +0.000 HD
ATOM     20  O   UNL     1      -1.122  -7.591   2.141  0.00  0.00    +0.000 OA
ENDBRANCH   3  12
TORSDOF 1
ENDMDL
