MODEL 1
REMARK VINA RESULT:      -7.0      0.000      0.000
REMARK  Name = Thapsigargin.pdbqt.pdb
REMARK  10 active torsions:
REMARK  status: ('A' for Active; 'I' for Inactive)
REMARK    1  A    between atoms: O_2  and  C_24
REMARK    2  A    between atoms: C_17  and  O_43
REMARK    3  A    between atoms: C_19  and  C_24
REMARK    4  A    between atoms: C_19  and  O_47
REMARK    5  A    between atoms: C_27  and  C_35
REMARK    6  A    between atoms: C_35  and  C_36
REMARK    7  A    between atoms: C_37  and  C_38
REMARK    8  A    between atoms: C_39  and  C_40
REMARK    9  A    between atoms: C_42  and  O_43
REMARK   10  A    between atoms: C_42  and  C_44
REMARK                            x       y       z     vdW  Elec       q    Type
REMARK                         _______ _______ _______ _____ _____    ______ ____
ROOT
ATOM      1  O   UNL     1     -12.447   0.157  23.477  0.00  0.00    +0.000 OA
ATOM      2  O   UNL     1      -6.687   0.164  21.601  0.00  0.00    +0.000 OA
ATOM      3  O   UNL     1      -6.534   1.173  23.947  0.00  0.00    +0.000 OA
ATOM      4  O   UNL     1      -9.019   3.761  21.812  0.00  0.00    +0.000 OA
ATOM      5  O   UNL     1     -14.249  -0.885  24.420  0.00  0.00    +0.000 OA
ATOM      6  O   UNL     1      -6.484  -0.299  23.996  0.00  0.00    +0.000 OA
ATOM      7  O   UNL     1      -4.970   3.040  23.702  0.00  0.00    +0.000 OA
ATOM      8  O   UNL     1     -10.766   4.111  23.553  0.00  0.00    +0.000 OA
ATOM      9  C   UNL     1      -9.203   0.270  21.278  0.00  0.00    +0.000 C 
ATOM     10  C   UNL     1     -11.308  -1.728  22.738  0.00  0.00    +0.000 C 
ATOM     11  C   UNL     1     -11.347  -0.296  22.760  0.00  0.00    +0.000 C 
ATOM     12  C   UNL     1      -8.712  -1.089  20.911  0.00  0.00    +0.000 C 
ATOM     13  C   UNL     1     -10.473   0.526  22.140  0.00  0.00    +0.000 C 
ATOM     14  C   UNL     1     -10.411  -2.296  22.001  0.00  0.00    +0.000 C 
ATOM     15  C   UNL     1      -9.308  -2.278  21.121  0.00  0.00    +0.000 C 
ATOM     16  C   UNL     1      -8.902   1.560  20.699  0.00  0.00    +0.000 C 
ATOM     17  C   UNL     1     -12.446  -2.263  23.507  0.00  0.00    +0.000 C 
ATOM     18  C   UNL     1      -9.602   2.556  21.409  0.00  0.00    +0.000 C 
ATOM     19  C   UNL     1     -10.593   1.988  22.129  0.00  0.00    +0.000 C 
ATOM     20  C   UNL     1      -8.003  -0.311  21.943  0.00  0.00    +0.000 C 
ATOM     21  C   UNL     1     -13.154  -0.955  23.870  0.00  0.00    +0.000 C 
ATOM     22  C   UNL     1     -11.062   2.908  23.076  0.00  0.00    +0.000 C 
ATOM     23  C   UNL     1      -6.772  -0.798  22.661  0.00  0.00    +0.000 C 
ATOM     24  C   UNL     1      -5.236   1.693  23.914  0.00  0.00    +0.000 C 
ATOM     25  C   UNL     1      -9.430   4.299  23.089  0.00  0.00    +0.000 C 
ATOM     26  C   UNL     1      -6.070  -2.122  22.329  0.00  0.00    +0.000 C 
ATOM     27  C   UNL     1      -8.487   4.743  23.946  0.00  0.00    +0.000 C 
ATOM     28  C   UNL     1      -8.846   5.276  25.315  0.00  0.00    +0.000 C 
ATOM     29  C   UNL     1      -7.126   4.365  23.769  0.00  0.00    +0.000 C 
ATOM     30  C   UNL     1      -6.075   3.783  23.717  0.00  0.00    +0.000 C 
ENDROOT
BRANCH  17  31
ATOM     31  O   UNL     1     -13.240  -3.119  22.704  0.00  0.00    +0.000 OA
ATOM     32  H   UNL     1     -13.765  -2.528  22.132  0.00  0.00    +0.000 HD
ENDBRANCH  17  31
BRANCH  17  33
ATOM     33  C   UNL     1     -11.974  -2.993  24.697  0.00  0.00    +0.000 C 
BRANCH  33  34
ATOM     34  O   UNL     1     -11.565  -3.642  25.786  0.00  0.00    +0.000 OA
ATOM     35  H   UNL     1     -11.663  -3.087  26.583  0.00  0.00    +0.000 HD
ENDBRANCH  33  34
ENDBRANCH  17  33
BRANCH  24  36
ATOM     36  C   UNL     1      -4.195   0.916  23.894  0.00  0.00    +0.000 C 
BRANCH  36  37
ATOM     37  C   UNL     1      -2.943   0.035  23.841  0.00  0.00    +0.000 C 
ATOM     38  C   UNL     1      -1.960  -0.650  23.764  0.00  0.00    +0.000 C 
BRANCH  38  39
ATOM     39  C   UNL     1      -0.703  -1.517  23.638  0.00  0.00    +0.000 C 
ATOM     40  C   UNL     1       0.275  -2.205  23.531  0.00  0.00    +0.000 C 
BRANCH  40  41
ATOM     41  C   UNL     1       1.519  -3.087  23.388  0.00  0.00    +0.000 C 
ATOM     42  C   UNL     1       2.600  -3.857  23.265  0.00  0.00    +0.000 C 
ENDBRANCH  40  41
ENDBRANCH  38  39
ENDBRANCH  36  37
ENDBRANCH  24  36
BRANCH  15  43
ATOM     43  O   UNL     1      -9.034  -3.371  20.291  0.00  0.00    +0.000 OA
BRANCH  43  45
ATOM     44  O   UNL     1     -11.148  -3.222  19.324  0.00  0.00    +0.000 OA
ATOM     45  C   UNL     1      -9.984  -3.598  19.333  0.00  0.00    +0.000 C 
BRANCH  45  46
ATOM     46  C   UNL     1      -9.469  -4.383  18.253  0.00  0.00    +0.000 C 
ATOM     47  C   UNL     1      -9.043  -5.037  17.346  0.00  0.00    +0.000 C 
ATOM     48  C   UNL     1      -8.488  -5.881  16.196  0.00  0.00    +0.000 C 
ENDBRANCH  45  46
ENDBRANCH  43  45
ENDBRANCH  15  43
TORSDOF 10
ENDMDL
MODEL 2
REMARK VINA RESULT:      -6.6      3.808      5.907
REMARK  Name = Thapsigargin.pdbqt.pdb
REMARK  10 active torsions:
REMARK  status: ('A' for Active; 'I' for Inactive)
REMARK    1  A    between atoms: O_2  and  C_24
REMARK    2  A    between atoms: C_17  and  O_43
REMARK    3  A    between atoms: C_19  and  C_24
REMARK    4  A    between atoms: C_19  and  O_47
REMARK    5  A    between atoms: C_27  and  C_35
REMARK    6  A    between atoms: C_35  and  C_36
REMARK    7  A    between atoms: C_37  and  C_38
REMARK    8  A    between atoms: C_39  and  C_40
REMARK    9  A    between atoms: C_42  and  O_43
REMARK   10  A    between atoms: C_42  and  C_44
REMARK                            x       y       z     vdW  Elec       q    Type
REMARK                         _______ _______ _______ _____ _____    ______ ____
ROOT
ATOM      1  O   UNL     1     -11.591  -5.662  26.430  0.00  0.00    +0.000 OA
ATOM      2  O   UNL     1     -10.673  -1.371  22.253  0.00  0.00    +0.000 OA
ATOM      3  O   UNL     1     -10.095  -0.182  24.443  0.00  0.00    +0.000 OA
ATOM      4  O   UNL     1     -14.089  -1.329  24.851  0.00  0.00    +0.000 OA
ATOM      5  O   UNL     1     -10.889  -7.474  27.634  0.00  0.00    +0.000 OA
ATOM      6  O   UNL     1      -8.930  -0.908  23.908  0.00  0.00    +0.000 OA
ATOM      7  O   UNL     1     -11.122   2.029  24.218  0.00  0.00    +0.000 OA
ATOM      8  O   UNL     1     -13.990  -2.178  27.190  0.00  0.00    +0.000 OA
ATOM      9  C   UNL     1     -11.787  -3.447  23.201  0.00  0.00    +0.000 C 
ATOM     10  C   UNL     1     -10.175  -5.894  24.603  0.00  0.00    +0.000 C 
ATOM     11  C   UNL     1     -11.266  -5.164  25.175  0.00  0.00    +0.000 C 
ATOM     12  C   UNL     1     -10.787  -3.848  22.170  0.00  0.00    +0.000 C 
ATOM     13  C   UNL     1     -11.938  -4.155  24.578  0.00  0.00    +0.000 C 
ATOM     14  C   UNL     1      -9.844  -5.628  23.382  0.00  0.00    +0.000 C 
ATOM     15  C   UNL     1      -9.967  -4.916  22.170  0.00  0.00    +0.000 C 
ATOM     16  C   UNL     1     -12.986  -2.650  23.079  0.00  0.00    +0.000 C 
ATOM     17  C   UNL     1      -9.730  -6.934  25.549  0.00  0.00    +0.000 C 
ATOM     18  C   UNL     1     -13.591  -2.535  24.347  0.00  0.00    +0.000 C 
ATOM     19  C   UNL     1     -13.099  -3.483  25.172  0.00  0.00    +0.000 C 
ATOM     20  C   UNL     1     -10.570  -2.622  22.961  0.00  0.00    +0.000 C 
ATOM     21  C   UNL     1     -10.767  -6.740  26.658  0.00  0.00    +0.000 C 
ATOM     22  C   UNL     1     -13.437  -3.165  26.494  0.00  0.00    +0.000 C 
ATOM     23  C   UNL     1      -9.384  -1.710  22.783  0.00  0.00    +0.000 C 
ATOM     24  C   UNL     1     -10.069   1.148  24.009  0.00  0.00    +0.000 C 
ATOM     25  C   UNL     1     -13.934  -1.092  26.267  0.00  0.00    +0.000 C 
ATOM     26  C   UNL     1      -8.321  -1.911  21.696  0.00  0.00    +0.000 C 
ATOM     27  C   UNL     1     -13.480   0.108  26.684  0.00  0.00    +0.000 C 
ATOM     28  C   UNL     1     -13.253   0.407  28.149  0.00  0.00    +0.000 C 
ATOM     29  C   UNL     1     -12.827   0.982  25.769  0.00  0.00    +0.000 C 
ATOM     30  C   UNL     1     -12.055   1.522  25.021  0.00  0.00    +0.000 C 
ENDROOT
BRANCH  17  31
ATOM     31  O   UNL     1      -9.791  -8.218  24.952  0.00  0.00    +0.000 OA
ATOM     32  H   UNL     1      -9.082  -8.228  24.281  0.00  0.00    +0.000 HD
ENDBRANCH  17  31
BRANCH  17  33
ATOM     33  C   UNL     1      -8.357  -6.664  26.012  0.00  0.00    +0.000 C 
BRANCH  33  34
ATOM     34  O   UNL     1      -7.109  -6.417  26.407  0.00  0.00    +0.000 OA
ATOM     35  H   UNL     1      -6.956  -6.746  27.313  0.00  0.00    +0.000 HD
ENDBRANCH  33  34
ENDBRANCH  17  33
BRANCH  24  36
ATOM     36  C   UNL     1      -9.134   1.584  23.218  0.00  0.00    +0.000 C 
BRANCH  36  37
ATOM     37  C   UNL     1      -8.008   2.118  22.327  0.00  0.00    +0.000 C 
ATOM     38  C   UNL     1      -7.151   2.551  21.607  0.00  0.00    +0.000 C 
BRANCH  38  39
ATOM     39  C   UNL     1      -6.077   3.118  20.673  0.00  0.00    +0.000 C 
ATOM     40  C   UNL     1      -5.224   3.558  19.952  0.00  0.00    +0.000 C 
BRANCH  40  41
ATOM     41  C   UNL     1      -4.131   4.116  19.036  0.00  0.00    +0.000 C 
ATOM     42  C   UNL     1      -3.182   4.604  18.238  0.00  0.00    +0.000 C 
ENDBRANCH  40  41
ENDBRANCH  38  39
ENDBRANCH  36  37
ENDBRANCH  24  36
BRANCH  15  43
ATOM     43  O   UNL     1      -9.499  -5.457  20.968  0.00  0.00    +0.000 OA
BRANCH  43  45
ATOM     44  O   UNL     1     -10.770  -3.926  19.757  0.00  0.00    +0.000 OA
ATOM     45  C   UNL     1      -9.880  -4.760  19.854  0.00  0.00    +0.000 C 
BRANCH  45  46
ATOM     46  C   UNL     1      -9.095  -5.116  18.713  0.00  0.00    +0.000 C 
ATOM     47  C   UNL     1      -8.438  -5.420  17.759  0.00  0.00    +0.000 C 
ATOM     48  C   UNL     1      -7.594  -5.794  16.539  0.00  0.00    +0.000 C 
ENDBRANCH  45  46
ENDBRANCH  43  45
ENDBRANCH  15  43
TORSDOF 10
ENDMDL
MODEL 3
REMARK VINA RESULT:      -6.5      2.955      9.568
REMARK  Name = Thapsigargin.pdbqt.pdb
REMARK  10 active torsions:
REMARK  status: ('A' for Active; 'I' for Inactive)
REMARK    1  A    between atoms: O_2  and  C_24
REMARK    2  A    between atoms: C_17  and  O_43
REMARK    3  A    between atoms: C_19  and  C_24
REMARK    4  A    between atoms: C_19  and  O_47
REMARK    5  A    between atoms: C_27  and  C_35
REMARK    6  A    between atoms: C_35  and  C_36
REMARK    7  A    between atoms: C_37  and  C_38
REMARK    8  A    between atoms: C_39  and  C_40
REMARK    9  A    between atoms: C_42  and  O_43
REMARK   10  A    between atoms: C_42  and  C_44
REMARK                            x       y       z     vdW  Elec       q    Type
REMARK                         _______ _______ _______ _____ _____    ______ ____
ROOT
ATOM      1  O   UNL     1      -5.442  -1.576  23.166  0.00  0.00    +0.000 OA
ATOM      2  O   UNL     1     -10.957   0.564  21.864  0.00  0.00    +0.000 OA
ATOM      3  O   UNL     1     -11.380  -0.934  23.894  0.00  0.00    +0.000 OA
ATOM      4  O   UNL     1      -9.812  -3.476  20.976  0.00  0.00    +0.000 OA
ATOM      5  O   UNL     1      -3.399  -1.381  24.174  0.00  0.00    +0.000 OA
ATOM      6  O   UNL     1     -10.986   0.423  24.308  0.00  0.00    +0.000 OA
ATOM      7  O   UNL     1     -13.437  -2.141  23.335  0.00  0.00    +0.000 OA
ATOM      8  O   UNL     1      -8.233  -4.756  22.415  0.00  0.00    +0.000 OA
ATOM      9  C   UNL     1      -8.592  -0.172  21.303  0.00  0.00    +0.000 C 
ATOM     10  C   UNL     1      -5.969   0.681  23.018  0.00  0.00    +0.000 C 
ATOM     11  C   UNL     1      -6.362  -0.655  22.684  0.00  0.00    +0.000 C 
ATOM     12  C   UNL     1      -8.656   1.317  21.327  0.00  0.00    +0.000 C 
ATOM     13  C   UNL     1      -7.449  -0.999  21.960  0.00  0.00    +0.000 C 
ATOM     14  C   UNL     1      -6.661   1.656  22.526  0.00  0.00    +0.000 C 
ATOM     15  C   UNL     1      -7.728   2.187  21.770  0.00  0.00    +0.000 C 
ATOM     16  C   UNL     1      -9.274  -1.122  20.454  0.00  0.00    +0.000 C 
ATOM     17  C   UNL     1      -4.715   0.646  23.792  0.00  0.00    +0.000 C 
ATOM     18  C   UNL     1      -8.898  -2.427  20.832  0.00  0.00    +0.000 C 
ATOM     19  C   UNL     1      -7.774  -2.378  21.578  0.00  0.00    +0.000 C 
ATOM     20  C   UNL     1      -9.555   0.534  22.195  0.00  0.00    +0.000 C 
ATOM     21  C   UNL     1      -4.428  -0.857  23.757  0.00  0.00    +0.000 C 
ATOM     22  C   UNL     1      -7.594  -3.608  22.224  0.00  0.00    +0.000 C 
ATOM     23  C   UNL     1     -10.575   1.149  23.117  0.00  0.00    +0.000 C 
ATOM     24  C   UNL     1     -12.775  -1.032  23.849  0.00  0.00    +0.000 C 
ATOM     25  C   UNL     1      -9.568  -4.423  22.039  0.00  0.00    +0.000 C 
ATOM     26  C   UNL     1     -10.850   2.657  23.184  0.00  0.00    +0.000 C 
ATOM     27  C   UNL     1     -10.592  -4.785  22.840  0.00  0.00    +0.000 C 
ATOM     28  C   UNL     1     -10.396  -5.738  23.999  0.00  0.00    +0.000 C 
ATOM     29  C   UNL     1     -11.778  -3.999  22.883  0.00  0.00    +0.000 C 
ATOM     30  C   UNL     1     -12.606  -3.147  23.069  0.00  0.00    +0.000 C 
ENDROOT
BRANCH  17  31
ATOM     31  O   UNL     1      -3.709   1.416  23.157  0.00  0.00    +0.000 OA
ATOM     32  H   UNL     1      -4.093   1.698  22.306  0.00  0.00    +0.000 HD
ENDBRANCH  17  31
BRANCH  17  33
ATOM     33  C   UNL     1      -4.932   1.143  25.162  0.00  0.00    +0.000 C 
BRANCH  33  34
ATOM     34  O   UNL     1      -5.104   1.593  26.404  0.00  0.00    +0.000 OA
ATOM     35  H   UNL     1      -4.264   1.585  26.900  0.00  0.00    +0.000 HD
ENDBRANCH  33  34
ENDBRANCH  17  33
BRANCH  24  36
ATOM     36  C   UNL     1     -13.535  -0.011  24.112  0.00  0.00    +0.000 C 
BRANCH  36  37
ATOM     37  C   UNL     1     -14.469   1.169  24.399  0.00  0.00    +0.000 C 
ATOM     38  C   UNL     1     -15.208   2.096  24.588  0.00  0.00    +0.000 C 
BRANCH  38  39
ATOM     39  C   UNL     1     -16.158   3.279  24.803  0.00  0.00    +0.000 C 
ATOM     40  C   UNL     1     -16.905   4.200  24.984  0.00  0.00    +0.000 C 
BRANCH  40  41
ATOM     41  C   UNL     1     -17.859   5.374  25.223  0.00  0.00    +0.000 C 
ATOM     42  C   UNL     1     -18.689   6.396  25.429  0.00  0.00    +0.000 C 
ENDBRANCH  40  41
ENDBRANCH  38  39
ENDBRANCH  36  37
ENDBRANCH  24  36
BRANCH  15  43
ATOM     43  O   UNL     1      -7.670   3.490  21.263  0.00  0.00    +0.000 OA
BRANCH  43  45
ATOM     44  O   UNL     1      -8.145   3.634  18.987  0.00  0.00    +0.000 OA
ATOM     45  C   UNL     1      -7.370   3.557  19.930  0.00  0.00    +0.000 C 
BRANCH  45  46
ATOM     46  C   UNL     1      -5.957   3.521  19.703  0.00  0.00    +0.000 C 
ATOM     47  C   UNL     1      -4.777   3.494  19.508  0.00  0.00    +0.000 C 
ATOM     48  C   UNL     1      -3.266   3.449  19.271  0.00  0.00    +0.000 C 
ENDBRANCH  45  46
ENDBRANCH  43  45
ENDBRANCH  15  43
TORSDOF 10
ENDMDL
MODEL 4
REMARK VINA RESULT:      -6.3     17.480     22.833
REMARK  Name = Thapsigargin.pdbqt.pdb
REMARK  10 active torsions:
REMARK  status: ('A' for Active; 'I' for Inactive)
REMARK    1  A    between atoms: O_2  and  C_24
REMARK    2  A    between atoms: C_17  and  O_43
REMARK    3  A    between atoms: C_19  and  C_24
REMARK    4  A    between atoms: C_19  and  O_47
REMARK    5  A    between atoms: C_27  and  C_35
REMARK    6  A    between atoms: C_35  and  C_36
REMARK    7  A    between atoms: C_37  and  C_38
REMARK    8  A    between atoms: C_39  and  C_40
REMARK    9  A    between atoms: C_42  and  O_43
REMARK   10  A    between atoms: C_42  and  C_44
REMARK                            x       y       z     vdW  Elec       q    Type
REMARK                         _______ _______ _______ _____ _____    ______ ____
ROOT
ATOM      1  O   UNL     1     -23.066  -4.069  12.217  0.00  0.00    +0.000 OA
ATOM      2  O   UNL     1     -22.364  -2.795   6.336  0.00  0.00    +0.000 OA
ATOM      3  O   UNL     1     -24.362  -4.393   6.349  0.00  0.00    +0.000 OA
ATOM      4  O   UNL     1     -21.211  -6.579   8.001  0.00  0.00    +0.000 OA
ATOM      5  O   UNL     1     -23.889  -3.580  14.292  0.00  0.00    +0.000 OA
ATOM      6  O   UNL     1     -24.792  -3.001   6.567  0.00  0.00    +0.000 OA
ATOM      7  O   UNL     1     -23.946  -5.894   4.460  0.00  0.00    +0.000 OA
ATOM      8  O   UNL     1     -22.446  -7.630   9.892  0.00  0.00    +0.000 OA
ATOM      9  C   UNL     1     -21.559  -3.134   8.721  0.00  0.00    +0.000 C 
ATOM     10  C   UNL     1     -23.059  -1.921  11.334  0.00  0.00    +0.000 C 
ATOM     11  C   UNL     1     -22.708  -3.293  11.122  0.00  0.00    +0.000 C 
ATOM     12  C   UNL     1     -21.649  -1.674   8.430  0.00  0.00    +0.000 C 
ATOM     13  C   UNL     1     -22.074  -3.786  10.036  0.00  0.00    +0.000 C 
ATOM     14  C   UNL     1     -22.673  -1.056  10.455  0.00  0.00    +0.000 C 
ATOM     15  C   UNL     1     -22.040  -0.681   9.250  0.00  0.00    +0.000 C 
ATOM     16  C   UNL     1     -20.738  -4.158   8.115  0.00  0.00    +0.000 C 
ATOM     17  C   UNL     1     -23.712  -1.777  12.648  0.00  0.00    +0.000 C 
ATOM     18  C   UNL     1     -21.027  -5.396   8.724  0.00  0.00    +0.000 C 
ATOM     19  C   UNL     1     -21.668  -5.189   9.893  0.00  0.00    +0.000 C 
ATOM     20  C   UNL     1     -22.563  -2.612   7.751  0.00  0.00    +0.000 C 
ATOM     21  C   UNL     1     -23.590  -3.215  13.159  0.00  0.00    +0.000 C 
ATOM     22  C   UNL     1     -22.244  -6.391  10.324  0.00  0.00    +0.000 C 
ATOM     23  C   UNL     1     -23.599  -2.189   6.742  0.00  0.00    +0.000 C 
ATOM     24  C   UNL     1     -24.441  -4.709   4.988  0.00  0.00    +0.000 C 
ATOM     25  C   UNL     1     -22.208  -7.503   8.491  0.00  0.00    +0.000 C 
ATOM     26  C   UNL     1     -23.752  -0.745   6.245  0.00  0.00    +0.000 C 
ATOM     27  C   UNL     1     -23.085  -8.043   7.619  0.00  0.00    +0.000 C 
ATOM     28  C   UNL     1     -24.181  -8.981   8.071  0.00  0.00    +0.000 C 
ATOM     29  C   UNL     1     -23.268  -7.456   6.334  0.00  0.00    +0.000 C 
ATOM     30  C   UNL     1     -23.564  -6.750   5.407  0.00  0.00    +0.000 C 
ENDROOT
BRANCH  17  31
ATOM     31  O   UNL     1     -23.019  -0.841  13.456  0.00  0.00    +0.000 OA
ATOM     32  H   UNL     1     -22.823  -0.086  12.871  0.00  0.00    +0.000 HD
ENDBRANCH  17  31
BRANCH  17  33
ATOM     33  C   UNL     1     -25.115  -1.356  12.490  0.00  0.00    +0.000 C 
BRANCH  33  34
ATOM     34  O   UNL     1     -26.376  -0.955  12.335  0.00  0.00    +0.000 OA
ATOM     35  H   UNL     1     -27.001  -1.621  12.677  0.00  0.00    +0.000 HD
ENDBRANCH  33  34
ENDBRANCH  17  33
BRANCH  24  36
ATOM     36  C   UNL     1     -24.815  -3.828   4.109  0.00  0.00    +0.000 C 
BRANCH  36  37
ATOM     37  C   UNL     1     -25.299  -2.815   3.066  0.00  0.00    +0.000 C 
ATOM     38  C   UNL     1     -25.673  -1.995   2.273  0.00  0.00    +0.000 C 
BRANCH  38  39
ATOM     39  C   UNL     1     -26.145  -0.929   1.280  0.00  0.00    +0.000 C 
ATOM     40  C   UNL     1     -26.502  -0.094   0.495  0.00  0.00    +0.000 C 
BRANCH  40  41
ATOM     41  C   UNL     1     -26.951   0.970  -0.512  0.00  0.00    +0.000 C 
ATOM     42  C   UNL     1     -27.342   1.896  -1.386  0.00  0.00    +0.000 C 
ENDBRANCH  40  41
ENDBRANCH  38  39
ENDBRANCH  36  37
ENDBRANCH  24  36
BRANCH  15  43
ATOM     43  O   UNL     1     -21.582   0.628   9.056  0.00  0.00    +0.000 OA
BRANCH  43  45
ATOM     44  O   UNL     1     -22.826   2.049  10.421  0.00  0.00    +0.000 OA
ATOM     45  C   UNL     1     -21.797   1.458  10.122  0.00  0.00    +0.000 C 
BRANCH  45  46
ATOM     46  C   UNL     1     -20.621   1.601  10.925  0.00  0.00    +0.000 C 
ATOM     47  C   UNL     1     -19.635   1.717  11.594  0.00  0.00    +0.000 C 
ATOM     48  C   UNL     1     -18.383   1.871  12.460  0.00  0.00    +0.000 C 
ENDBRANCH  45  46
ENDBRANCH  43  45
ENDBRANCH  15  43
TORSDOF 10
ENDMDL
MODEL 5
REMARK VINA RESULT:      -6.2     15.225     21.306
REMARK  Name = Thapsigargin.pdbqt.pdb
REMARK  10 active torsions:
REMARK  status: ('A' for Active; 'I' for Inactive)
REMARK    1  A    between atoms: O_2  and  C_24
REMARK    2  A    between atoms: C_17  and  O_43
REMARK    3  A    between atoms: C_19  and  C_24
REMARK    4  A    between atoms: C_19  and  O_47
REMARK    5  A    between atoms: C_27  and  C_35
REMARK    6  A    between atoms: C_35  and  C_36
REMARK    7  A    between atoms: C_37  and  C_38
REMARK    8  A    between atoms: C_39  and  C_40
REMARK    9  A    between atoms: C_42  and  O_43
REMARK   10  A    between atoms: C_42  and  C_44
REMARK                            x       y       z     vdW  Elec       q    Type
REMARK                         _______ _______ _______ _____ _____    ______ ____
ROOT
ATOM      1  O   UNL     1       6.912 -16.917  13.639  0.00  0.00    +0.000 OA
ATOM      2  O   UNL     1       3.431 -12.548  15.981  0.00  0.00    +0.000 OA
ATOM      3  O   UNL     1       3.703 -14.181  17.931  0.00  0.00    +0.000 OA
ATOM      4  O   UNL     1       1.852 -16.394  14.913  0.00  0.00    +0.000 OA
ATOM      5  O   UNL     1       8.959 -17.775  13.090  0.00  0.00    +0.000 OA
ATOM      6  O   UNL     1       4.820 -13.221  17.881  0.00  0.00    +0.000 OA
ATOM      7  O   UNL     1       1.467 -14.321  18.919  0.00  0.00    +0.000 OA
ATOM      8  O   UNL     1       3.193 -18.483  15.115  0.00  0.00    +0.000 OA
ATOM      9  C   UNL     1       4.331 -14.004  14.105  0.00  0.00    +0.000 C 
ATOM     10  C   UNL     1       7.481 -14.665  13.671  0.00  0.00    +0.000 C 
ATOM     11  C   UNL     1       6.424 -15.625  13.779  0.00  0.00    +0.000 C 
ATOM     12  C   UNL     1       4.968 -12.657  14.038  0.00  0.00    +0.000 C 
ATOM     13  C   UNL     1       5.114 -15.339  13.948  0.00  0.00    +0.000 C 
ATOM     14  C   UNL     1       7.161 -13.413  13.654  0.00  0.00    +0.000 C 
ATOM     15  C   UNL     1       6.237 -12.348  13.711  0.00  0.00    +0.000 C 
ATOM     16  C   UNL     1       2.944 -14.389  13.971  0.00  0.00    +0.000 C 
ATOM     17  C   UNL     1       8.762 -15.366  13.465  0.00  0.00    +0.000 C 
ATOM     18  C   UNL     1       2.838 -15.785  14.131  0.00  0.00    +0.000 C 
ATOM     19  C   UNL     1       4.054 -16.353  13.981  0.00  0.00    +0.000 C 
ATOM     20  C   UNL     1       4.545 -13.200  15.342  0.00  0.00    +0.000 C 
ATOM     21  C   UNL     1       8.260 -16.809  13.384  0.00  0.00    +0.000 C 
ATOM     22  C   UNL     1       4.014 -17.667  14.464  0.00  0.00    +0.000 C 
ATOM     23  C   UNL     1       4.698 -12.463  16.646  0.00  0.00    +0.000 C 
ATOM     24  C   UNL     1       2.709 -13.710  18.795  0.00  0.00    +0.000 C 
ATOM     25  C   UNL     1       2.231 -17.576  15.652  0.00  0.00    +0.000 C 
ATOM     26  C   UNL     1       5.230 -11.026  16.745  0.00  0.00    +0.000 C 
ATOM     27  C   UNL     1       1.874 -17.680  16.949  0.00  0.00    +0.000 C 
ATOM     28  C   UNL     1       2.276 -18.870  17.791  0.00  0.00    +0.000 C 
ATOM     29  C   UNL     1       1.464 -16.524  17.672  0.00  0.00    +0.000 C 
ATOM     30  C   UNL     1       1.408 -15.483  18.270  0.00  0.00    +0.000 C 
ENDROOT
BRANCH  17  31
ATOM     31  O   UNL     1       9.389 -14.929  12.272  0.00  0.00    +0.000 OA
ATOM     32  H   UNL     1       9.092 -15.546  11.578  0.00  0.00    +0.000 HD
ENDBRANCH  17  31
BRANCH  17  33
ATOM     33  C   UNL     1       9.664 -15.150  14.610  0.00  0.00    +0.000 C 
BRANCH  33  34
ATOM     34  O   UNL     1      10.464 -14.939  15.654  0.00  0.00    +0.000 OA
ATOM     35  H   UNL     1      10.565 -15.748  16.190  0.00  0.00    +0.000 HD
ENDBRANCH  33  34
ENDBRANCH  17  33
BRANCH  24  36
ATOM     36  C   UNL     1       2.819 -12.562  19.396  0.00  0.00    +0.000 C 
BRANCH  36  37
ATOM     37  C   UNL     1       2.990 -11.228  20.129  0.00  0.00    +0.000 C 
ATOM     38  C   UNL     1       3.160 -10.188  20.704  0.00  0.00    +0.000 C 
BRANCH  38  39
ATOM     39  C   UNL     1       3.404  -8.865  21.436  0.00  0.00    +0.000 C 
ATOM     40  C   UNL     1       3.607  -7.825  22.001  0.00  0.00    +0.000 C 
BRANCH  40  41
ATOM     41  C   UNL     1       3.871  -6.497  22.716  0.00  0.00    +0.000 C 
ATOM     42  C   UNL     1       4.103  -5.341  23.336  0.00  0.00    +0.000 C 
ENDBRANCH  40  41
ENDBRANCH  38  39
ENDBRANCH  36  37
ENDBRANCH  24  36
BRANCH  15  43
ATOM     43  O   UNL     1       6.551 -11.094  13.174  0.00  0.00    +0.000 OA
BRANCH  43  45
ATOM     44  O   UNL     1       6.873 -11.323  10.879  0.00  0.00    +0.000 OA
ATOM     45  C   UNL     1       6.230 -10.955  11.852  0.00  0.00    +0.000 C 
BRANCH  45  46
ATOM     46  C   UNL     1       4.979 -10.282  11.680  0.00  0.00    +0.000 C 
ATOM     47  C   UNL     1       3.934  -9.718  11.530  0.00  0.00    +0.000 C 
ATOM     48  C   UNL     1       2.596  -8.996  11.354  0.00  0.00    +0.000 C 
ENDBRANCH  45  46
ENDBRANCH  43  45
ENDBRANCH  15  43
TORSDOF 10
ENDMDL
MODEL 6
REMARK VINA RESULT:      -6.1      2.742      3.949
REMARK  Name = Thapsigargin.pdbqt.pdb
REMARK  10 active torsions:
REMARK  status: ('A' for Active; 'I' for Inactive)
REMARK    1  A    between atoms: O_2  and  C_24
REMARK    2  A    between atoms: C_17  and  O_43
REMARK    3  A    between atoms: C_19  and  C_24
REMARK    4  A    between atoms: C_19  and  O_47
REMARK    5  A    between atoms: C_27  and  C_35
REMARK    6  A    between atoms: C_35  and  C_36
REMARK    7  A    between atoms: C_37  and  C_38
REMARK    8  A    between atoms: C_39  and  C_40
REMARK    9  A    between atoms: C_42  and  O_43
REMARK   10  A    between atoms: C_42  and  C_44
REMARK                            x       y       z     vdW  Elec       q    Type
REMARK                         _______ _______ _______ _____ _____    ______ ____
ROOT
ATOM      1  O   UNL     1     -12.217  -4.006  25.300  0.00  0.00    +0.000 OA
ATOM      2  O   UNL     1      -8.880   0.504  23.012  0.00  0.00    +0.000 OA
ATOM      3  O   UNL     1      -8.333   0.585  25.510  0.00  0.00    +0.000 OA
ATOM      4  O   UNL     1     -12.451   1.234  25.280  0.00  0.00    +0.000 OA
ATOM      5  O   UNL     1     -12.535  -6.214  25.797  0.00  0.00    +0.000 OA
ATOM      6  O   UNL     1      -7.463  -0.373  24.805  0.00  0.00    +0.000 OA
ATOM      7  O   UNL     1      -8.344   2.973  26.052  0.00  0.00    +0.000 OA
ATOM      8  O   UNL     1     -13.160  -0.246  27.154  0.00  0.00    +0.000 OA
ATOM      9  C   UNL     1     -10.883  -1.057  23.088  0.00  0.00    +0.000 C 
ATOM     10  C   UNL     1     -10.672  -4.260  23.583  0.00  0.00    +0.000 C 
ATOM     11  C   UNL     1     -11.480  -3.341  24.328  0.00  0.00    +0.000 C 
ATOM     12  C   UNL     1      -9.936  -1.516  22.032  0.00  0.00    +0.000 C 
ATOM     13  C   UNL     1     -11.570  -2.012  24.106  0.00  0.00    +0.000 C 
ATOM     14  C   UNL     1     -10.027  -3.805  22.560  0.00  0.00    +0.000 C 
ATOM     15  C   UNL     1      -9.618  -2.777  21.684  0.00  0.00    +0.000 C 
ATOM     16  C   UNL     1     -11.624   0.179  23.205  0.00  0.00    +0.000 C 
ATOM     17  C   UNL     1     -10.867  -5.623  24.108  0.00  0.00    +0.000 C 
ATOM     18  C   UNL     1     -12.375   0.151  24.398  0.00  0.00    +0.000 C 
ATOM     19  C   UNL     1     -12.468  -1.119  24.846  0.00  0.00    +0.000 C 
ATOM     20  C   UNL     1      -9.418  -0.816  23.223  0.00  0.00    +0.000 C 
ATOM     21  C   UNL     1     -11.944  -5.347  25.161  0.00  0.00    +0.000 C 
ATOM     22  C   UNL     1     -12.911  -1.108  26.175  0.00  0.00    +0.000 C 
ATOM     23  C   UNL     1      -7.961  -0.508  23.446  0.00  0.00    +0.000 C 
ATOM     24  C   UNL     1      -7.702   1.832  25.589  0.00  0.00    +0.000 C 
ATOM     25  C   UNL     1     -12.501   0.932  26.692  0.00  0.00    +0.000 C 
ATOM     26  C   UNL     1      -6.868  -0.809  22.411  0.00  0.00    +0.000 C 
ATOM     27  C   UNL     1     -11.706   1.621  27.537  0.00  0.00    +0.000 C 
ATOM     28  C   UNL     1     -11.677   1.325  29.020  0.00  0.00    +0.000 C 
ATOM     29  C   UNL     1     -10.595   2.356  27.033  0.00  0.00    +0.000 C 
ATOM     30  C   UNL     1      -9.541   2.705  26.571  0.00  0.00    +0.000 C 
ENDROOT
BRANCH  17  31
ATOM     31  O   UNL     1     -11.305  -6.500  23.084  0.00  0.00    +0.000 OA
ATOM     32  H   UNL     1     -11.754  -5.933  22.429  0.00  0.00    +0.000 HD
ENDBRANCH  17  31
BRANCH  17  33
ATOM     33  C   UNL     1      -9.621  -6.137  24.704  0.00  0.00    +0.000 C 
BRANCH  33  34
ATOM     34  O   UNL     1      -8.486  -6.607  25.219  0.00  0.00    +0.000 OA
ATOM     35  H   UNL     1      -7.739  -6.474  24.605  0.00  0.00    +0.000 HD
ENDBRANCH  33  34
ENDBRANCH  17  33
BRANCH  24  36
ATOM     36  C   UNL     1      -6.534   2.035  25.056  0.00  0.00    +0.000 C 
BRANCH  36  37
ATOM     37  C   UNL     1      -5.155   2.227  24.417  0.00  0.00    +0.000 C 
ATOM     38  C   UNL     1      -4.062   2.388  23.947  0.00  0.00    +0.000 C 
BRANCH  38  39
ATOM     39  C   UNL     1      -2.657   2.601  23.374  0.00  0.00    +0.000 C 
ATOM     40  C   UNL     1      -1.562   2.764  22.911  0.00  0.00    +0.000 C 
BRANCH  40  41
ATOM     41  C   UNL     1      -0.167   2.972  22.313  0.00  0.00    +0.000 C 
ATOM     42  C   UNL     1       1.045   3.153  21.789  0.00  0.00    +0.000 C 
ENDBRANCH  40  41
ENDBRANCH  38  39
ENDBRANCH  36  37
ENDBRANCH  24  36
BRANCH  15  43
ATOM     43  O   UNL     1      -9.170  -3.070  20.391  0.00  0.00    +0.000 OA
BRANCH  43  45
ATOM     44  O   UNL     1     -11.355  -3.421  19.665  0.00  0.00    +0.000 OA
ATOM     45  C   UNL     1     -10.144  -3.548  19.557  0.00  0.00    +0.000 C 
BRANCH  45  46
ATOM     46  C   UNL     1      -9.588  -4.275  18.458  0.00  0.00    +0.000 C 
ATOM     47  C   UNL     1      -9.117  -4.880  17.538  0.00  0.00    +0.000 C 
ATOM     48  C   UNL     1      -8.530  -5.661  16.360  0.00  0.00    +0.000 C 
ENDBRANCH  45  46
ENDBRANCH  43  45
ENDBRANCH  15  43
TORSDOF 10
ENDMDL
MODEL 7
REMARK VINA RESULT:      -6.1     18.357     21.432
REMARK  Name = Thapsigargin.pdbqt.pdb
REMARK  10 active torsions:
REMARK  status: ('A' for Active; 'I' for Inactive)
REMARK    1  A    between atoms: O_2  and  C_24
REMARK    2  A    between atoms: C_17  and  O_43
REMARK    3  A    between atoms: C_19  and  C_24
REMARK    4  A    between atoms: C_19  and  O_47
REMARK    5  A    between atoms: C_27  and  C_35
REMARK    6  A    between atoms: C_35  and  C_36
REMARK    7  A    between atoms: C_37  and  C_38
REMARK    8  A    between atoms: C_39  and  C_40
REMARK    9  A    between atoms: C_42  and  O_43
REMARK   10  A    between atoms: C_42  and  C_44
REMARK                            x       y       z     vdW  Elec       q    Type
REMARK                         _______ _______ _______ _____ _____    ______ ____
ROOT
ATOM      1  O   UNL     1     -23.944  -1.566  11.203  0.00  0.00    +0.000 OA
ATOM      2  O   UNL     1     -22.849  -7.477  11.951  0.00  0.00    +0.000 OA
ATOM      3  O   UNL     1     -25.404  -7.352  11.979  0.00  0.00    +0.000 OA
ATOM      4  O   UNL     1     -24.166  -4.976  15.182  0.00  0.00    +0.000 OA
ATOM      5  O   UNL     1     -24.216   0.272   9.872  0.00  0.00    +0.000 OA
ATOM      6  O   UNL     1     -24.892  -7.463  10.602  0.00  0.00    +0.000 OA
ATOM      7  O   UNL     1     -26.062  -8.848  13.802  0.00  0.00    +0.000 OA
ATOM      8  O   UNL     1     -25.708  -3.052  14.829  0.00  0.00    +0.000 OA
ATOM      9  C   UNL     1     -22.321  -5.002  12.165  0.00  0.00    +0.000 C 
ATOM     10  C   UNL     1     -22.669  -2.855   9.752  0.00  0.00    +0.000 C 
ATOM     11  C   UNL     1     -23.233  -2.751  11.064  0.00  0.00    +0.000 C 
ATOM     12  C   UNL     1     -21.517  -5.587  11.053  0.00  0.00    +0.000 C 
ATOM     13  C   UNL     1     -23.072  -3.643  12.065  0.00  0.00    +0.000 C 
ATOM     14  C   UNL     1     -21.872  -3.845   9.514  0.00  0.00    +0.000 C 
ATOM     15  C   UNL     1     -21.191  -5.028   9.873  0.00  0.00    +0.000 C 
ATOM     16  C   UNL     1     -22.315  -5.301  13.579  0.00  0.00    +0.000 C 
ATOM     17  C   UNL     1     -23.047  -1.672   8.958  0.00  0.00    +0.000 C 
ATOM     18  C   UNL     1     -23.272  -4.490  14.222  0.00  0.00    +0.000 C 
ATOM     19  C   UNL     1     -23.608  -3.459  13.418  0.00  0.00    +0.000 C 
ATOM     20  C   UNL     1     -22.839  -6.156  11.376  0.00  0.00    +0.000 C 
ATOM     21  C   UNL     1     -23.803  -0.874  10.022  0.00  0.00    +0.000 C 
ATOM     22  C   UNL     1     -24.778  -2.859  13.901  0.00  0.00    +0.000 C 
ATOM     23  C   UNL     1     -23.445  -7.331  10.655  0.00  0.00    +0.000 C 
ATOM     24  C   UNL     1     -25.713  -8.622  12.476  0.00  0.00    +0.000 C 
ATOM     25  C   UNL     1     -25.498  -4.418  15.185  0.00  0.00    +0.000 C 
ATOM     26  C   UNL     1     -22.709  -8.120   9.564  0.00  0.00    +0.000 C 
ATOM     27  C   UNL     1     -26.557  -5.251  15.268  0.00  0.00    +0.000 C 
ATOM     28  C   UNL     1     -27.978  -4.736  15.232  0.00  0.00    +0.000 C 
ATOM     29  C   UNL     1     -26.397  -6.639  14.992  0.00  0.00    +0.000 C 
ATOM     30  C   UNL     1     -26.240  -7.714  14.479  0.00  0.00    +0.000 C 
ENDROOT
BRANCH  17  31
ATOM     31  O   UNL     1     -21.897  -1.001   8.474  0.00  0.00    +0.000 OA
ATOM     32  H   UNL     1     -21.323  -0.870   9.253  0.00  0.00    +0.000 HD
ENDBRANCH  17  31
BRANCH  17  33
ATOM     33  C   UNL     1     -23.911  -2.057   7.827  0.00  0.00    +0.000 C 
BRANCH  33  34
ATOM     34  O   UNL     1     -24.708  -2.414   6.821  0.00  0.00    +0.000 OA
ATOM     35  H   UNL     1     -24.681  -3.379   6.677  0.00  0.00    +0.000 HD
ENDBRANCH  33  34
ENDBRANCH  17  33
BRANCH  24  36
ATOM     36  C   UNL     1     -25.510  -9.695  11.771  0.00  0.00    +0.000 C 
BRANCH  36  37
ATOM     37  C   UNL     1     -25.257 -10.930  10.900  0.00  0.00    +0.000 C 
ATOM     38  C   UNL     1     -25.023 -11.895  10.226  0.00  0.00    +0.000 C 
BRANCH  38  39
ATOM     39  C   UNL     1     -24.698 -13.125   9.373  0.00  0.00    +0.000 C 
ATOM     40  C   UNL     1     -24.441 -14.080   8.693  0.00  0.00    +0.000 C 
BRANCH  40  41
ATOM     41  C   UNL     1     -24.110 -15.294   7.820  0.00  0.00    +0.000 C 
ATOM     42  C   UNL     1     -23.822 -16.349   7.058  0.00  0.00    +0.000 C 
ENDBRANCH  40  41
ENDBRANCH  38  39
ENDBRANCH  36  37
ENDBRANCH  24  36
BRANCH  15  43
ATOM     43  O   UNL     1     -20.041  -5.431   9.184  0.00  0.00    +0.000 OA
BRANCH  43  45
ATOM     44  O   UNL     1     -19.276  -4.369   7.258  0.00  0.00    +0.000 OA
ATOM     45  C   UNL     1     -20.044  -5.110   7.855  0.00  0.00    +0.000 C 
BRANCH  45  46
ATOM     46  C   UNL     1     -21.112  -5.759   7.157  0.00  0.00    +0.000 C 
ATOM     47  C   UNL     1     -22.002  -6.301   6.568  0.00  0.00    +0.000 C 
ATOM     48  C   UNL     1     -23.150  -6.992   5.828  0.00  0.00    +0.000 C 
ENDBRANCH  45  46
ENDBRANCH  43  45
ENDBRANCH  15  43
TORSDOF 10
ENDMDL
MODEL 8
REMARK VINA RESULT:      -6.1     15.129     20.315
REMARK  Name = Thapsigargin.pdbqt.pdb
REMARK  10 active torsions:
REMARK  status: ('A' for Active; 'I' for Inactive)
REMARK    1  A    between atoms: O_2  and  C_24
REMARK    2  A    between atoms: C_17  and  O_43
REMARK    3  A    between atoms: C_19  and  C_24
REMARK    4  A    between atoms: C_19  and  O_47
REMARK    5  A    between atoms: C_27  and  C_35
REMARK    6  A    between atoms: C_35  and  C_36
REMARK    7  A    between atoms: C_37  and  C_38
REMARK    8  A    between atoms: C_39  and  C_40
REMARK    9  A    between atoms: C_42  and  O_43
REMARK   10  A    between atoms: C_42  and  C_44
REMARK                            x       y       z     vdW  Elec       q    Type
REMARK                         _______ _______ _______ _____ _____    ______ ____
ROOT
ATOM      1  O   UNL     1       8.593 -10.486  11.490  0.00  0.00    +0.000 OA
ATOM      2  O   UNL     1       4.406  -9.251  15.690  0.00  0.00    +0.000 OA
ATOM      3  O   UNL     1       5.163 -11.616  16.303  0.00  0.00    +0.000 OA
ATOM      4  O   UNL     1       3.640 -11.934  12.428  0.00  0.00    +0.000 OA
ATOM      5  O   UNL     1      10.736 -10.381  10.699  0.00  0.00    +0.000 OA
ATOM      6  O   UNL     1       6.036 -10.601  16.919  0.00  0.00    +0.000 OA
ATOM      7  O   UNL     1       3.085 -12.795  16.837  0.00  0.00    +0.000 OA
ATOM      8  O   UNL     1       5.417 -13.381  11.453  0.00  0.00    +0.000 OA
ATOM      9  C   UNL     1       5.474  -9.067  13.393  0.00  0.00    +0.000 C 
ATOM     10  C   UNL     1       8.655  -8.639  12.897  0.00  0.00    +0.000 C 
ATOM     11  C   UNL     1       7.844  -9.675  12.332  0.00  0.00    +0.000 C 
ATOM     12  C   UNL     1       5.794  -7.847  14.188  0.00  0.00    +0.000 C 
ATOM     13  C   UNL     1       6.518  -9.837  12.535  0.00  0.00    +0.000 C 
ATOM     14  C   UNL     1       8.068  -7.728  13.602  0.00  0.00    +0.000 C 
ATOM     15  C   UNL     1       6.939  -7.138  14.208  0.00  0.00    +0.000 C 
ATOM     16  C   UNL     1       4.199  -9.584  12.949  0.00  0.00    +0.000 C 
ATOM     17  C   UNL     1      10.041  -8.782  12.415  0.00  0.00    +0.000 C 
ATOM     18  C   UNL     1       4.414 -10.784  12.240  0.00  0.00    +0.000 C 
ATOM     19  C   UNL     1       5.711 -10.871  11.877  0.00  0.00    +0.000 C 
ATOM     20  C   UNL     1       5.590  -9.134  14.877  0.00  0.00    +0.000 C 
ATOM     21  C   UNL     1       9.864  -9.960  11.454  0.00  0.00    +0.000 C 
ATOM     22  C   UNL     1       5.993 -12.184  11.480  0.00  0.00    +0.000 C 
ATOM     23  C   UNL     1       5.667  -9.306  16.371  0.00  0.00    +0.000 C 
ATOM     24  C   UNL     1       4.151 -11.980  17.198  0.00  0.00    +0.000 C 
ATOM     25  C   UNL     1       4.319 -13.206  12.347  0.00  0.00    +0.000 C 
ATOM     26  C   UNL     1       5.876  -8.138  17.344  0.00  0.00    +0.000 C 
ATOM     27  C   UNL     1       4.083 -14.136  13.296  0.00  0.00    +0.000 C 
ATOM     28  C   UNL     1       4.793 -15.471  13.294  0.00  0.00    +0.000 C 
ATOM     29  C   UNL     1       3.480 -13.760  14.530  0.00  0.00    +0.000 C 
ATOM     30  C   UNL     1       3.238 -13.322  15.623  0.00  0.00    +0.000 C 
ENDROOT
BRANCH  17  31
ATOM     31  O   UNL     1      10.475  -7.598  11.768  0.00  0.00    +0.000 OA
ATOM     32  H   UNL     1      10.434  -6.899  12.447  0.00  0.00    +0.000 HD
ENDBRANCH  17  31
BRANCH  17  33
ATOM     33  C   UNL     1      10.951  -9.102  13.530  0.00  0.00    +0.000 C 
BRANCH  33  34
ATOM     34  O   UNL     1      11.788  -9.402  14.522  0.00  0.00    +0.000 OA
ATOM     35  H   UNL     1      11.498 -10.204  14.995  0.00  0.00    +0.000 HD
ENDBRANCH  33  34
ENDBRANCH  17  33
BRANCH  24  36
ATOM     36  C   UNL     1       4.048 -11.426  18.368  0.00  0.00    +0.000 C 
BRANCH  36  37
ATOM     37  C   UNL     1       3.879 -10.761  19.738  0.00  0.00    +0.000 C 
ATOM     38  C   UNL     1       3.711 -10.252  20.812  0.00  0.00    +0.000 C 
BRANCH  38  39
ATOM     39  C   UNL     1       3.471  -9.613  22.184  0.00  0.00    +0.000 C 
ATOM     40  C   UNL     1       3.277  -9.124  23.263  0.00  0.00    +0.000 C 
BRANCH  40  41
ATOM     41  C   UNL     1       3.026  -8.508  24.642  0.00  0.00    +0.000 C 
ATOM     42  C   UNL     1       2.812  -7.972  25.843  0.00  0.00    +0.000 C 
ENDBRANCH  40  41
ENDBRANCH  38  39
ENDBRANCH  36  37
ENDBRANCH  24  36
BRANCH  15  43
ATOM     43  O   UNL     1       6.933  -5.781  14.548  0.00  0.00    +0.000 OA
BRANCH  43  45
ATOM     44  O   UNL     1       5.679  -4.994  12.749  0.00  0.00    +0.000 OA
ATOM     45  C   UNL     1       5.943  -5.057  13.942  0.00  0.00    +0.000 C 
BRANCH  45  46
ATOM     46  C   UNL     1       5.178  -4.309  14.892  0.00  0.00    +0.000 C 
ATOM     47  C   UNL     1       4.534  -3.681  15.682  0.00  0.00    +0.000 C 
ATOM     48  C   UNL     1       3.722  -2.881  16.703  0.00  0.00    +0.000 C 
ENDBRANCH  45  46
ENDBRANCH  43  45
ENDBRANCH  15  43
TORSDOF 10
ENDMDL
MODEL 9
REMARK VINA RESULT:      -6.1      4.431      8.245
REMARK  Name = Thapsigargin.pdbqt.pdb
REMARK  10 active torsions:
REMARK  status: ('A' for Active; 'I' for Inactive)
REMARK    1  A    between atoms: O_2  and  C_24
REMARK    2  A    between atoms: C_17  and  O_43
REMARK    3  A    between atoms: C_19  and  C_24
REMARK    4  A    between atoms: C_19  and  O_47
REMARK    5  A    between atoms: C_27  and  C_35
REMARK    6  A    between atoms: C_35  and  C_36
REMARK    7  A    between atoms: C_37  and  C_38
REMARK    8  A    between atoms: C_39  and  C_40
REMARK    9  A    between atoms: C_42  and  O_43
REMARK   10  A    between atoms: C_42  and  C_44
REMARK                            x       y       z     vdW  Elec       q    Type
REMARK                         _______ _______ _______ _____ _____    ______ ____
ROOT
ATOM      1  O   UNL     1     -10.336  -7.189  26.553  0.00  0.00    +0.000 OA
ATOM      2  O   UNL     1     -11.316  -1.759  24.051  0.00  0.00    +0.000 OA
ATOM      3  O   UNL     1     -11.954  -1.393  26.501  0.00  0.00    +0.000 OA
ATOM      4  O   UNL     1     -14.535  -4.381  25.142  0.00  0.00    +0.000 OA
ATOM      5  O   UNL     1      -8.954  -8.739  27.507  0.00  0.00    +0.000 OA
ATOM      6  O   UNL     1     -10.510  -1.194  26.291  0.00  0.00    +0.000 OA
ATOM      7  O   UNL     1     -14.008  -0.064  26.397  0.00  0.00    +0.000 OA
ATOM      8  O   UNL     1     -14.400  -5.904  27.107  0.00  0.00    +0.000 OA
ATOM      9  C   UNL     1     -11.174  -4.295  24.044  0.00  0.00    +0.000 C 
ATOM     10  C   UNL     1      -8.738  -5.981  25.376  0.00  0.00    +0.000 C 
ATOM     11  C   UNL     1     -10.134  -6.156  25.647  0.00  0.00    +0.000 C 
ATOM     12  C   UNL     1      -9.957  -3.728  23.396  0.00  0.00    +0.000 C 
ATOM     13  C   UNL     1     -11.140  -5.457  25.079  0.00  0.00    +0.000 C 
ATOM     14  C   UNL     1      -8.402  -5.140  24.454  0.00  0.00    +0.000 C 
ATOM     15  C   UNL     1      -8.688  -4.172  23.468  0.00  0.00    +0.000 C 
ATOM     16  C   UNL     1     -12.565  -4.200  23.663  0.00  0.00    +0.000 C 
ATOM     17  C   UNL     1      -7.959  -6.949  26.170  0.00  0.00    +0.000 C 
ATOM     18  C   UNL     1     -13.348  -4.892  24.609  0.00  0.00    +0.000 C 
ATOM     19  C   UNL     1     -12.562  -5.719  25.331  0.00  0.00    +0.000 C 
ATOM     20  C   UNL     1     -10.641  -2.966  24.457  0.00  0.00    +0.000 C 
ATOM     21  C   UNL     1      -9.100  -7.726  26.830  0.00  0.00    +0.000 C 
ATOM     22  C   UNL     1     -13.260  -6.144  26.469  0.00  0.00    +0.000 C 
ATOM     23  C   UNL     1     -10.196  -1.608  24.933  0.00  0.00    +0.000 C 
ATOM     24  C   UNL     1     -12.623  -0.168  26.406  0.00  0.00    +0.000 C 
ATOM     25  C   UNL     1     -14.813  -4.667  26.530  0.00  0.00    +0.000 C 
ATOM     26  C   UNL     1      -9.033  -0.832  24.301  0.00  0.00    +0.000 C 
ATOM     27  C   UNL     1     -15.225  -3.666  27.335  0.00  0.00    +0.000 C 
ATOM     28  C   UNL     1     -15.491  -3.888  28.807  0.00  0.00    +0.000 C 
ATOM     29  C   UNL     1     -15.043  -2.310  26.939  0.00  0.00    +0.000 C 
ATOM     30  C   UNL     1     -14.605  -1.224  26.667  0.00  0.00    +0.000 C 
ENDROOT
BRANCH  17  31
ATOM     31  O   UNL     1      -7.152  -7.756  25.330  0.00  0.00    +0.000 OA
ATOM     32  H   UNL     1      -7.519  -7.648  24.432  0.00  0.00    +0.000 HD
ENDBRANCH  17  31
BRANCH  17  33
ATOM     33  C   UNL     1      -7.111  -6.253  27.155  0.00  0.00    +0.000 C 
BRANCH  33  34
ATOM     34  O   UNL     1      -6.337  -5.647  28.052  0.00  0.00    +0.000 OA
ATOM     35  H   UNL     1      -6.829  -5.462  28.874  0.00  0.00    +0.000 HD
ENDBRANCH  33  34
ENDBRANCH  17  33
BRANCH  24  36
ATOM     36  C   UNL     1     -11.987   0.932  26.133  0.00  0.00    +0.000 C 
BRANCH  36  37
ATOM     37  C   UNL     1     -11.211   2.204  25.776  0.00  0.00    +0.000 C 
ATOM     38  C   UNL     1     -10.575   3.180  25.485  0.00  0.00    +0.000 C 
BRANCH  38  39
ATOM     39  C   UNL     1      -9.742   4.409  25.106  0.00  0.00    +0.000 C 
ATOM     40  C   UNL     1      -9.101   5.376  24.799  0.00  0.00    +0.000 C 
BRANCH  40  41
ATOM     41  C   UNL     1      -8.289   6.612  24.404  0.00  0.00    +0.000 C 
ATOM     42  C   UNL     1      -7.581   7.689  24.062  0.00  0.00    +0.000 C 
ENDBRANCH  40  41
ENDBRANCH  38  39
ENDBRANCH  36  37
ENDBRANCH  24  36
BRANCH  15  43
ATOM     43  O   UNL     1      -7.778  -3.906  22.438  0.00  0.00    +0.000 OA
BRANCH  43  45
ATOM     44  O   UNL     1      -8.523  -4.797  20.418  0.00  0.00    +0.000 OA
ATOM     45  C   UNL     1      -8.342  -3.867  21.192  0.00  0.00    +0.000 C 
BRANCH  45  46
ATOM     46  C   UNL     1      -8.730  -2.539  20.829  0.00  0.00    +0.000 C 
ATOM     47  C   UNL     1      -9.061  -1.429  20.525  0.00  0.00    +0.000 C 
ATOM     48  C   UNL     1      -9.469  -0.007  20.134  0.00  0.00    +0.000 C 
ENDBRANCH  45  46
ENDBRANCH  43  45
ENDBRANCH  15  43
TORSDOF 10
ENDMDL
