MODEL 1
REMARK VINA RESULT:      -5.5      0.000      0.000
REMARK  Name = Thioguanosine.pdbqt.pdb
REMARK  5 active torsions:
REMARK  status: ('A' for Active; 'I' for Inactive)
REMARK    1  A    between atoms: N_2  and  C1*_12
REMARK    2  A    between atoms: C4*_14  and  C5*_17
REMARK    3  A    between atoms: C3*_15  and  O3*_20
REMARK    4  A    between atoms: C2*_16  and  O2*_22
REMARK    5  A    between atoms: C5*_17  and  O5*_18
REMARK                            x       y       z     vdW  Elec       q    Type
REMARK                         _______ _______ _______ _____ _____    ______ ____
ROOT
ATOM      1  S   UNL     1     -13.206  -6.900  27.852  0.00  0.00    +0.000 S 
ATOM      2  N   UNL     1     -11.793  -5.349  23.425  0.00  0.00    +0.000 N 
ATOM      3  N   UNL     1     -10.145  -6.740  24.612  0.00  0.00    +0.000 N 
ATOM      4  N   UNL     1     -13.392  -5.433  25.026  0.00  0.00    +0.000 NA
ATOM      5  N   UNL     1     -10.764  -7.483  26.785  0.00  0.00    +0.000 NA
ATOM      6  C   UNL     1     -11.324  -6.109  24.467  0.00  0.00    +0.000 A 
ATOM      7  C   UNL     1     -13.069  -4.988  23.828  0.00  0.00    +0.000 A 
ATOM      8  C   UNL     1     -12.289  -6.139  25.442  0.00  0.00    +0.000 A 
ATOM      9  C   UNL     1     -12.012  -6.866  26.682  0.00  0.00    +0.000 A 
ATOM     10  C   UNL     1      -9.928  -7.401  25.791  0.00  0.00    +0.000 A 
ATOM     11  H   UNL     1      -9.405  -6.695  23.915  0.00  0.00    +0.000 HD
ATOM     12  N   UNL     1      -8.713  -7.995  25.863  0.00  0.00    +0.000 N 
ATOM     13  H   UNL     1      -8.461  -8.533  25.044  0.00  0.00    +0.000 HD
ATOM     14  H   UNL     1      -8.647  -8.569  26.701  0.00  0.00    +0.000 HD
ENDROOT
BRANCH   2  15
ATOM     15  C1* UNL     1     -11.192  -4.973  22.239  0.00  0.00    +0.000 A 
ATOM     16  O4* UNL     1     -10.205  -5.771  21.614  0.00  0.00    +0.000 OA
ATOM     17  C4* UNL     1      -9.768  -5.134  20.441  0.00  0.00    +0.000 A 
ATOM     18  C3* UNL     1     -10.494  -3.904  20.303  0.00  0.00    +0.000 A 
ATOM     19  C2* UNL     1     -11.388  -3.806  21.415  0.00  0.00    +0.000 A 
BRANCH  18  20
ATOM     20  O3* UNL     1      -9.966  -2.774  19.739  0.00  0.00    +0.000 OA
ATOM     21  H3* UNL     1      -9.070  -2.933  19.388  0.00  0.00    +0.000 HD
ENDBRANCH  18  20
BRANCH  19  22
ATOM     22  O2* UNL     1     -11.743  -2.585  21.921  0.00  0.00    +0.000 OA
ATOM     23  H2* UNL     1     -12.695  -2.594  22.150  0.00  0.00    +0.000 HD
ENDBRANCH  19  22
BRANCH  17  24
ATOM     24  C5* UNL     1      -8.626  -5.545  19.730  0.00  0.00    +0.000 C 
BRANCH  24  25
ATOM     25  O5* UNL     1      -7.560  -5.946  19.046  0.00  0.00    +0.000 OA
ATOM     26  H5* UNL     1      -7.068  -6.624  19.543  0.00  0.00    +0.000 HD
ENDBRANCH  24  25
ENDBRANCH  17  24
ENDBRANCH   2  15
TORSDOF 5
ENDMDL
MODEL 2
REMARK VINA RESULT:      -4.9      2.157      3.340
REMARK  Name = Thioguanosine.pdbqt.pdb
REMARK  5 active torsions:
REMARK  status: ('A' for Active; 'I' for Inactive)
REMARK    1  A    between atoms: N_2  and  C1*_12
REMARK    2  A    between atoms: C4*_14  and  C5*_17
REMARK    3  A    between atoms: C3*_15  and  O3*_20
REMARK    4  A    between atoms: C2*_16  and  O2*_22
REMARK    5  A    between atoms: C5*_17  and  O5*_18
REMARK                            x       y       z     vdW  Elec       q    Type
REMARK                         _______ _______ _______ _____ _____    ______ ____
ROOT
ATOM      1  S   UNL     1     -10.173  -9.629  29.084  0.00  0.00    +0.000 S 
ATOM      2  N   UNL     1     -12.078  -6.719  25.635  0.00  0.00    +0.000 N 
ATOM      3  N   UNL     1      -9.631  -6.968  25.546  0.00  0.00    +0.000 N 
ATOM      4  N   UNL     1     -12.406  -8.091  27.406  0.00  0.00    +0.000 NA
ATOM      5  N   UNL     1      -8.650  -8.337  27.226  0.00  0.00    +0.000 NA
ATOM      6  C   UNL     1     -10.860  -7.200  26.042  0.00  0.00    +0.000 A 
ATOM      7  C   UNL     1     -12.978  -7.321  26.501  0.00  0.00    +0.000 A 
ATOM      8  C   UNL     1     -11.064  -8.015  27.127  0.00  0.00    +0.000 A 
ATOM      9  C   UNL     1      -9.902  -8.631  27.770  0.00  0.00    +0.000 A 
ATOM     10  C   UNL     1      -8.575  -7.560  26.184  0.00  0.00    +0.000 A 
ATOM     11  H   UNL     1      -9.461  -6.337  24.767  0.00  0.00    +0.000 HD
ATOM     12  N   UNL     1      -7.374  -7.263  25.633  0.00  0.00    +0.000 N 
ATOM     13  H   UNL     1      -7.343  -7.354  24.626  0.00  0.00    +0.000 HD
ATOM     14  H   UNL     1      -6.638  -7.818  26.065  0.00  0.00    +0.000 HD
ENDROOT
BRANCH   2  15
ATOM     15  C1* UNL     1     -12.409  -5.829  24.631  0.00  0.00    +0.000 A 
ATOM     16  O4* UNL     1     -11.551  -5.591  23.531  0.00  0.00    +0.000 OA
ATOM     17  C4* UNL     1     -12.138  -4.636  22.684  0.00  0.00    +0.000 A 
ATOM     18  C3* UNL     1     -13.403  -4.257  23.246  0.00  0.00    +0.000 A 
ATOM     19  C2* UNL     1     -13.579  -5.006  24.452  0.00  0.00    +0.000 A 
BRANCH  18  20
ATOM     20  O3* UNL     1     -13.937  -3.002  23.128  0.00  0.00    +0.000 OA
ATOM     21  H3* UNL     1     -13.315  -2.317  23.433  0.00  0.00    +0.000 HD
ENDBRANCH  18  20
BRANCH  19  22
ATOM     22  O2* UNL     1     -14.296  -4.490  25.497  0.00  0.00    +0.000 OA
ATOM     23  H2* UNL     1     -14.967  -3.866  25.152  0.00  0.00    +0.000 HD
ENDBRANCH  19  22
BRANCH  17  24
ATOM     24  C5* UNL     1     -11.433  -4.003  21.644  0.00  0.00    +0.000 C 
BRANCH  24  25
ATOM     25  O5* UNL     1     -10.751  -3.423  20.662  0.00  0.00    +0.000 OA
ATOM     26  H5* UNL     1      -9.816  -3.695  20.686  0.00  0.00    +0.000 HD
ENDBRANCH  24  25
ENDBRANCH  17  24
ENDBRANCH   2  15
TORSDOF 5
ENDMDL
MODEL 3
REMARK VINA RESULT:      -4.8     20.923     23.101
REMARK  Name = Thioguanosine.pdbqt.pdb
REMARK  5 active torsions:
REMARK  status: ('A' for Active; 'I' for Inactive)
REMARK    1  A    between atoms: N_2  and  C1*_12
REMARK    2  A    between atoms: C4*_14  and  C5*_17
REMARK    3  A    between atoms: C3*_15  and  O3*_20
REMARK    4  A    between atoms: C2*_16  and  O2*_22
REMARK    5  A    between atoms: C5*_17  and  O5*_18
REMARK                            x       y       z     vdW  Elec       q    Type
REMARK                         _______ _______ _______ _____ _____    ______ ____
ROOT
ATOM      1  S   UNL     1       0.014   1.648   3.196  0.00  0.00    +0.000 S 
ATOM      2  N   UNL     1      -1.799  -2.723   1.931  0.00  0.00    +0.000 N 
ATOM      3  N   UNL     1      -2.174  -2.084   4.279  0.00  0.00    +0.000 N 
ATOM      4  N   UNL     1      -0.716  -0.829   1.326  0.00  0.00    +0.000 NA
ATOM      5  N   UNL     1      -1.276   0.011   4.957  0.00  0.00    +0.000 NA
ATOM      6  C   UNL     1      -1.720  -1.899   3.026  0.00  0.00    +0.000 A 
ATOM      7  C   UNL     1      -1.184  -1.995   0.925  0.00  0.00    +0.000 A 
ATOM      8  C   UNL     1      -1.045  -0.764   2.658  0.00  0.00    +0.000 A 
ATOM      9  C   UNL     1      -0.800   0.267   3.669  0.00  0.00    +0.000 A 
ATOM     10  C   UNL     1      -1.916  -1.097   5.191  0.00  0.00    +0.000 A 
ATOM     11  H   UNL     1      -2.642  -2.936   4.576  0.00  0.00    +0.000 HD
ATOM     12  N   UNL     1      -2.393  -1.367   6.430  0.00  0.00    +0.000 N 
ATOM     13  H   UNL     1      -3.349  -1.695   6.447  0.00  0.00    +0.000 HD
ATOM     14  H   UNL     1      -2.282  -0.558   7.037  0.00  0.00    +0.000 HD
ENDROOT
BRANCH   2  15
ATOM     15  C1* UNL     1      -2.328  -3.991   1.791  0.00  0.00    +0.000 A 
ATOM     16  O4* UNL     1      -3.610  -4.327   2.289  0.00  0.00    +0.000 OA
ATOM     17  C4* UNL     1      -3.874  -5.679   2.016  0.00  0.00    +0.000 A 
ATOM     18  C3* UNL     1      -2.744  -6.224   1.320  0.00  0.00    +0.000 A 
ATOM     19  C2* UNL     1      -1.785  -5.174   1.169  0.00  0.00    +0.000 A 
BRANCH  18  20
ATOM     20  O3* UNL     1      -2.331  -7.523   1.449  0.00  0.00    +0.000 OA
ATOM     21  H3* UNL     1      -1.545  -7.705   0.902  0.00  0.00    +0.000 HD
ENDBRANCH  18  20
BRANCH  19  22
ATOM     22  O2* UNL     1      -0.445  -5.449   1.134  0.00  0.00    +0.000 OA
ATOM     23  H2* UNL     1      -0.315  -6.400   0.940  0.00  0.00    +0.000 HD
ENDBRANCH  19  22
BRANCH  17  24
ATOM     24  C5* UNL     1      -4.949  -6.378   2.596  0.00  0.00    +0.000 C 
BRANCH  24  25
ATOM     25  O5* UNL     1      -5.973  -7.018   3.149  0.00  0.00    +0.000 OA
ATOM     26  H5* UNL     1      -5.758  -7.958   3.283  0.00  0.00    +0.000 HD
ENDBRANCH  24  25
ENDBRANCH  17  24
ENDBRANCH   2  15
TORSDOF 5
ENDMDL
MODEL 4
REMARK VINA RESULT:      -4.7     16.101     17.836
REMARK  Name = Thioguanosine.pdbqt.pdb
REMARK  5 active torsions:
REMARK  status: ('A' for Active; 'I' for Inactive)
REMARK    1  A    between atoms: N_2  and  C1*_12
REMARK    2  A    between atoms: C4*_14  and  C5*_17
REMARK    3  A    between atoms: C3*_15  and  O3*_20
REMARK    4  A    between atoms: C2*_16  and  O2*_22
REMARK    5  A    between atoms: C5*_17  and  O5*_18
REMARK                            x       y       z     vdW  Elec       q    Type
REMARK                         _______ _______ _______ _____ _____    ______ ____
ROOT
ATOM      1  S   UNL     1     -21.545  -3.459   7.079  0.00  0.00    +0.000 S 
ATOM      2  N   UNL     1     -22.739  -5.993  11.098  0.00  0.00    +0.000 N 
ATOM      3  N   UNL     1     -22.504  -3.565  11.434  0.00  0.00    +0.000 N 
ATOM      4  N   UNL     1     -22.295  -5.983   8.878  0.00  0.00    +0.000 NA
ATOM      5  N   UNL     1     -21.882  -2.293   9.523  0.00  0.00    +0.000 NA
ATOM      6  C   UNL     1     -22.498  -4.699  10.709  0.00  0.00    +0.000 A 
ATOM      7  C   UNL     1     -22.618  -6.719   9.924  0.00  0.00    +0.000 A 
ATOM      8  C   UNL     1     -22.210  -4.703   9.368  0.00  0.00    +0.000 A 
ATOM      9  C   UNL     1     -21.882  -3.434   8.717  0.00  0.00    +0.000 A 
ATOM     10  C   UNL     1     -22.184  -2.404  10.784  0.00  0.00    +0.000 A 
ATOM     11  H   UNL     1     -22.678  -3.552  12.436  0.00  0.00    +0.000 HD
ATOM     12  N   UNL     1     -22.197  -1.313  11.586  0.00  0.00    +0.000 N 
ATOM     13  H   UNL     1     -23.017  -1.237  12.174  0.00  0.00    +0.000 HD
ATOM     14  H   UNL     1     -22.073  -0.466  11.036  0.00  0.00    +0.000 HD
ENDROOT
BRANCH   2  15
ATOM     15  C1* UNL     1     -23.020  -6.525  12.341  0.00  0.00    +0.000 A 
ATOM     16  O4* UNL     1     -24.148  -7.350  12.565  0.00  0.00    +0.000 OA
ATOM     17  C4* UNL     1     -24.185  -7.730  13.917  0.00  0.00    +0.000 A 
ATOM     18  C3* UNL     1     -23.053  -7.145  14.577  0.00  0.00    +0.000 A 
ATOM     19  C2* UNL     1     -22.320  -6.404  13.597  0.00  0.00    +0.000 A 
BRANCH  18  20
ATOM     20  O3* UNL     1     -23.067  -6.737  15.883  0.00  0.00    +0.000 OA
ATOM     21  H3* UNL     1     -23.417  -7.431  16.472  0.00  0.00    +0.000 HD
ENDBRANCH  18  20
BRANCH  19  22
ATOM     22  O2* UNL     1     -21.610  -5.289  13.950  0.00  0.00    +0.000 OA
ATOM     23  H2* UNL     1     -20.655  -5.502  13.958  0.00  0.00    +0.000 HD
ENDBRANCH  19  22
BRANCH  17  24
ATOM     24  C5* UNL     1     -25.307  -8.338  14.507  0.00  0.00    +0.000 C 
BRANCH  24  25
ATOM     25  O5* UNL     1     -26.363  -8.933  15.054  0.00  0.00    +0.000 OA
ATOM     26  H5* UNL     1     -27.005  -8.271  15.365  0.00  0.00    +0.000 HD
ENDBRANCH  24  25
ENDBRANCH  17  24
ENDBRANCH   2  15
TORSDOF 5
ENDMDL
MODEL 5
REMARK VINA RESULT:      -4.7     19.235     20.339
REMARK  Name = Thioguanosine.pdbqt.pdb
REMARK  5 active torsions:
REMARK  status: ('A' for Active; 'I' for Inactive)
REMARK    1  A    between atoms: N_2  and  C1*_12
REMARK    2  A    between atoms: C4*_14  and  C5*_17
REMARK    3  A    between atoms: C3*_15  and  O3*_20
REMARK    4  A    between atoms: C2*_16  and  O2*_22
REMARK    5  A    between atoms: C5*_17  and  O5*_18
REMARK                            x       y       z     vdW  Elec       q    Type
REMARK                         _______ _______ _______ _____ _____    ______ ____
ROOT
ATOM      1  S   UNL     1     -17.958 -13.271   4.457  0.00  0.00    +0.000 S 
ATOM      2  N   UNL     1     -13.173 -14.270   4.772  0.00  0.00    +0.000 N 
ATOM      3  N   UNL     1     -14.478 -14.795   6.792  0.00  0.00    +0.000 N 
ATOM      4  N   UNL     1     -14.915 -13.522   3.535  0.00  0.00    +0.000 NA
ATOM      5  N   UNL     1     -16.800 -14.288   6.707  0.00  0.00    +0.000 NA
ATOM      6  C   UNL     1     -14.313 -14.356   5.531  0.00  0.00    +0.000 A 
ATOM      7  C   UNL     1     -13.621 -13.772   3.559  0.00  0.00    +0.000 A 
ATOM      8  C   UNL     1     -15.360 -13.882   4.783  0.00  0.00    +0.000 A 
ATOM      9  C   UNL     1     -16.693 -13.840   5.389  0.00  0.00    +0.000 A 
ATOM     10  C   UNL     1     -15.739 -14.730   7.319  0.00  0.00    +0.000 A 
ATOM     11  H   UNL     1     -13.705 -15.113   7.372  0.00  0.00    +0.000 HD
ATOM     12  N   UNL     1     -15.818 -15.176   8.596  0.00  0.00    +0.000 N 
ATOM     13  H   UNL     1     -15.355 -16.061   8.757  0.00  0.00    +0.000 HD
ATOM     14  H   UNL     1     -16.788 -15.219   8.898  0.00  0.00    +0.000 HD
ENDROOT
BRANCH   2  15
ATOM     15  C1* UNL     1     -11.859 -14.567   5.078  0.00  0.00    +0.000 A 
ATOM     16  O4* UNL     1     -11.517 -15.564   6.023  0.00  0.00    +0.000 OA
ATOM     17  C4* UNL     1     -10.119 -15.635   6.137  0.00  0.00    +0.000 A 
ATOM     18  C3* UNL     1      -9.548 -14.670   5.242  0.00  0.00    +0.000 A 
ATOM     19  C2* UNL     1     -10.627 -14.011   4.574  0.00  0.00    +0.000 A 
BRANCH  18  20
ATOM     20  O3* UNL     1      -8.382 -13.999   5.497  0.00  0.00    +0.000 OA
ATOM     21  H3* UNL     1      -8.379 -13.115   5.087  0.00  0.00    +0.000 HD
ENDBRANCH  18  20
BRANCH  19  22
ATOM     22  O2* UNL     1     -10.508 -12.711   4.164  0.00  0.00    +0.000 OA
ATOM     23  H2* UNL     1     -10.021 -12.683   3.316  0.00  0.00    +0.000 HD
ENDBRANCH  19  22
BRANCH  17  24
ATOM     24  C5* UNL     1      -9.474 -16.345   7.166  0.00  0.00    +0.000 C 
BRANCH  24  25
ATOM     25  O5* UNL     1      -8.844 -17.014   8.126  0.00  0.00    +0.000 OA
ATOM     26  H5* UNL     1      -8.101 -16.492   8.477  0.00  0.00    +0.000 HD
ENDBRANCH  24  25
ENDBRANCH  17  24
ENDBRANCH   2  15
TORSDOF 5
ENDMDL
MODEL 6
REMARK VINA RESULT:      -4.6     17.233     19.077
REMARK  Name = Thioguanosine.pdbqt.pdb
REMARK  5 active torsions:
REMARK  status: ('A' for Active; 'I' for Inactive)
REMARK    1  A    between atoms: N_2  and  C1*_12
REMARK    2  A    between atoms: C4*_14  and  C5*_17
REMARK    3  A    between atoms: C3*_15  and  O3*_20
REMARK    4  A    between atoms: C2*_16  and  O2*_22
REMARK    5  A    between atoms: C5*_17  and  O5*_18
REMARK                            x       y       z     vdW  Elec       q    Type
REMARK                         _______ _______ _______ _____ _____    ______ ____
ROOT
ATOM      1  S   UNL     1     -16.760 -15.148   3.762  0.00  0.00    +0.000 S 
ATOM      2  N   UNL     1     -14.743 -16.115   8.121  0.00  0.00    +0.000 N 
ATOM      3  N   UNL     1     -15.146 -13.728   7.670  0.00  0.00    +0.000 N 
ATOM      4  N   UNL     1     -15.587 -16.885   6.166  0.00  0.00    +0.000 NA
ATOM      5  N   UNL     1     -16.084 -13.201   5.549  0.00  0.00    +0.000 NA
ATOM      6  C   UNL     1     -15.171 -15.042   7.380  0.00  0.00    +0.000 A 
ATOM      7  C   UNL     1     -15.048 -17.208   7.325  0.00  0.00    +0.000 A 
ATOM      8  C   UNL     1     -15.662 -15.514   6.189  0.00  0.00    +0.000 A 
ATOM      9  C   UNL     1     -16.155 -14.552   5.202  0.00  0.00    +0.000 A 
ATOM     10  C   UNL     1     -15.611 -12.866   6.714  0.00  0.00    +0.000 A 
ATOM     11  H   UNL     1     -14.750 -13.361   8.532  0.00  0.00    +0.000 HD
ATOM     12  N   UNL     1     -15.536 -11.563   7.078  0.00  0.00    +0.000 N 
ATOM     13  H   UNL     1     -15.888 -11.368   8.006  0.00  0.00    +0.000 HD
ATOM     14  H   UNL     1     -16.001 -10.975   6.389  0.00  0.00    +0.000 HD
ENDROOT
BRANCH   2  15
ATOM     15  C1* UNL     1     -14.129 -16.172   9.356  0.00  0.00    +0.000 A 
ATOM     16  O4* UNL     1     -14.836 -15.922  10.556  0.00  0.00    +0.000 OA
ATOM     17  C4* UNL     1     -13.957 -16.037  11.646  0.00  0.00    +0.000 A 
ATOM     18  C3* UNL     1     -12.658 -16.376  11.139  0.00  0.00    +0.000 A 
ATOM     19  C2* UNL     1     -12.764 -16.471   9.716  0.00  0.00    +0.000 A 
BRANCH  18  20
ATOM     20  O3* UNL     1     -11.489 -15.962  11.718  0.00  0.00    +0.000 OA
ATOM     21  H3* UNL     1     -11.548 -15.974  12.692  0.00  0.00    +0.000 HD
ENDBRANCH  18  20
BRANCH  19  22
ATOM     22  O2* UNL     1     -11.698 -16.169   8.913  0.00  0.00    +0.000 OA
ATOM     23  H2* UNL     1     -11.964 -15.483   8.267  0.00  0.00    +0.000 HD
ENDBRANCH  19  22
BRANCH  17  24
ATOM     24  C5* UNL     1     -14.291 -15.607  12.943  0.00  0.00    +0.000 C 
BRANCH  24  25
ATOM     25  O5* UNL     1     -14.618 -15.183  14.159  0.00  0.00    +0.000 OA
ATOM     26  H5* UNL     1     -13.824 -14.917  14.655  0.00  0.00    +0.000 HD
ENDBRANCH  24  25
ENDBRANCH  17  24
ENDBRANCH   2  15
TORSDOF 5
ENDMDL
MODEL 7
REMARK VINA RESULT:      -4.5      4.297      6.725
REMARK  Name = Thioguanosine.pdbqt.pdb
REMARK  5 active torsions:
REMARK  status: ('A' for Active; 'I' for Inactive)
REMARK    1  A    between atoms: N_2  and  C1*_12
REMARK    2  A    between atoms: C4*_14  and  C5*_17
REMARK    3  A    between atoms: C3*_15  and  O3*_20
REMARK    4  A    between atoms: C2*_16  and  O2*_22
REMARK    5  A    between atoms: C5*_17  and  O5*_18
REMARK                            x       y       z     vdW  Elec       q    Type
REMARK                         _______ _______ _______ _____ _____    ______ ____
ROOT
ATOM      1  S   UNL     1      -8.718  -5.561  19.679  0.00  0.00    +0.000 S 
ATOM      2  N   UNL     1     -12.033  -3.525  22.655  0.00  0.00    +0.000 N 
ATOM      3  N   UNL     1     -10.519  -1.933  21.546  0.00  0.00    +0.000 N 
ATOM      4  N   UNL     1     -11.176  -5.392  21.703  0.00  0.00    +0.000 NA
ATOM      5  N   UNL     1      -8.861  -2.873  20.123  0.00  0.00    +0.000 NA
ATOM      6  C   UNL     1     -11.007  -3.155  21.823  0.00  0.00    +0.000 A 
ATOM      7  C   UNL     1     -12.092  -4.903  22.515  0.00  0.00    +0.000 A 
ATOM      8  C   UNL     1     -10.479  -4.292  21.266  0.00  0.00    +0.000 A 
ATOM      9  C   UNL     1      -9.338  -4.164  20.357  0.00  0.00    +0.000 A 
ATOM     10  C   UNL     1      -9.448  -1.863  20.696  0.00  0.00    +0.000 A 
ATOM     11  H   UNL     1     -10.874  -1.085  21.981  0.00  0.00    +0.000 HD
ATOM     12  N   UNL     1      -9.008  -0.599  20.482  0.00  0.00    +0.000 N 
ATOM     13  H   UNL     1      -9.740   0.067  20.270  0.00  0.00    +0.000 HD
ATOM     14  H   UNL     1      -8.295  -0.590  19.756  0.00  0.00    +0.000 HD
ENDROOT
BRANCH   2  15
ATOM     15  C1* UNL     1     -12.844  -2.770  23.481  0.00  0.00    +0.000 A 
ATOM     16  O4* UNL     1     -13.528  -1.623  23.012  0.00  0.00    +0.000 OA
ATOM     17  C4* UNL     1     -14.258  -1.055  24.069  0.00  0.00    +0.000 A 
ATOM     18  C3* UNL     1     -14.046  -1.856  25.241  0.00  0.00    +0.000 A 
ATOM     19  C2* UNL     1     -13.175  -2.929  24.875  0.00  0.00    +0.000 A 
BRANCH  18  20
ATOM     20  O3* UNL     1     -14.018  -1.345  26.511  0.00  0.00    +0.000 OA
ATOM     21  H3* UNL     1     -13.460  -1.884  27.102  0.00  0.00    +0.000 HD
ENDBRANCH  18  20
BRANCH  19  22
ATOM     22  O2* UNL     1     -12.314  -3.474  25.789  0.00  0.00    +0.000 OA
ATOM     23  H2* UNL     1     -11.400  -3.422  25.444  0.00  0.00    +0.000 HD
ENDBRANCH  19  22
BRANCH  17  24
ATOM     24  C5* UNL     1     -14.840   0.224  23.993  0.00  0.00    +0.000 C 
BRANCH  24  25
ATOM     25  O5* UNL     1     -15.404   1.424  23.905  0.00  0.00    +0.000 OA
ATOM     26  H5* UNL     1     -16.048   1.553  24.623  0.00  0.00    +0.000 HD
ENDBRANCH  24  25
ENDBRANCH  17  24
ENDBRANCH   2  15
TORSDOF 5
ENDMDL
MODEL 8
REMARK VINA RESULT:      -4.5      4.146      6.629
REMARK  Name = Thioguanosine.pdbqt.pdb
REMARK  5 active torsions:
REMARK  status: ('A' for Active; 'I' for Inactive)
REMARK    1  A    between atoms: N_2  and  C1*_12
REMARK    2  A    between atoms: C4*_14  and  C5*_17
REMARK    3  A    between atoms: C3*_15  and  O3*_20
REMARK    4  A    between atoms: C2*_16  and  O2*_22
REMARK    5  A    between atoms: C5*_17  and  O5*_18
REMARK                            x       y       z     vdW  Elec       q    Type
REMARK                         _______ _______ _______ _____ _____    ______ ____
ROOT
ATOM      1  S   UNL     1      -8.707  -5.435  19.479  0.00  0.00    +0.000 S 
ATOM      2  N   UNL     1     -11.570  -3.945  23.164  0.00  0.00    +0.000 N 
ATOM      3  N   UNL     1     -10.590  -2.135  21.815  0.00  0.00    +0.000 N 
ATOM      4  N   UNL     1     -10.667  -5.654  21.985  0.00  0.00    +0.000 NA
ATOM      5  N   UNL     1      -9.156  -2.803  20.039  0.00  0.00    +0.000 NA
ATOM      6  C   UNL     1     -10.815  -3.419  22.146  0.00  0.00    +0.000 A 
ATOM      7  C   UNL     1     -11.449  -5.315  22.991  0.00  0.00    +0.000 A 
ATOM      8  C   UNL     1     -10.255  -4.459  21.449  0.00  0.00    +0.000 A 
ATOM      9  C   UNL     1      -9.371  -4.153  20.323  0.00  0.00    +0.000 A 
ATOM     10  C   UNL     1      -9.751  -1.897  20.760  0.00  0.00    +0.000 A 
ATOM     11  H   UNL     1     -10.967  -1.353  22.345  0.00  0.00    +0.000 HD
ATOM     12  N   UNL     1      -9.564  -0.581  20.502  0.00  0.00    +0.000 N 
ATOM     13  H   UNL     1     -10.416  -0.036  20.474  0.00  0.00    +0.000 HD
ATOM     14  H   UNL     1      -9.034  -0.459  19.642  0.00  0.00    +0.000 HD
ENDROOT
BRANCH   2  15
ATOM     15  C1* UNL     1     -12.288  -3.327  24.170  0.00  0.00    +0.000 A 
ATOM     16  O4* UNL     1     -11.998  -3.545  25.538  0.00  0.00    +0.000 OA
ATOM     17  C4* UNL     1     -12.893  -2.802  26.325  0.00  0.00    +0.000 A 
ATOM     18  C3* UNL     1     -13.773  -2.085  25.447  0.00  0.00    +0.000 A 
ATOM     19  C2* UNL     1     -13.392  -2.401  24.106  0.00  0.00    +0.000 A 
BRANCH  18  20
ATOM     20  O3* UNL     1     -15.079  -1.807  25.748  0.00  0.00    +0.000 OA
ATOM     21  H3* UNL     1     -15.631  -1.770  24.945  0.00  0.00    +0.000 HD
ENDBRANCH  18  20
BRANCH  19  22
ATOM     22  O2* UNL     1     -14.320  -2.415  23.100  0.00  0.00    +0.000 OA
ATOM     23  H2* UNL     1     -13.873  -2.600  22.249  0.00  0.00    +0.000 HD
ENDBRANCH  19  22
BRANCH  17  24
ATOM     24  C5* UNL     1     -13.027  -2.994  27.713  0.00  0.00    +0.000 C 
BRANCH  24  25
ATOM     25  O5* UNL     1     -13.142  -3.157  29.027  0.00  0.00    +0.000 OA
ATOM     26  H5* UNL     1     -13.982  -2.783  29.346  0.00  0.00    +0.000 HD
ENDBRANCH  24  25
ENDBRANCH  17  24
ENDBRANCH   2  15
TORSDOF 5
ENDMDL
MODEL 9
REMARK VINA RESULT:      -4.5     20.991     22.509
REMARK  Name = Thioguanosine.pdbqt.pdb
REMARK  5 active torsions:
REMARK  status: ('A' for Active; 'I' for Inactive)
REMARK    1  A    between atoms: N_2  and  C1*_12
REMARK    2  A    between atoms: C4*_14  and  C5*_17
REMARK    3  A    between atoms: C3*_15  and  O3*_20
REMARK    4  A    between atoms: C2*_16  and  O2*_22
REMARK    5  A    between atoms: C5*_17  and  O5*_18
REMARK                            x       y       z     vdW  Elec       q    Type
REMARK                         _______ _______ _______ _____ _____    ______ ____
ROOT
ATOM      1  S   UNL     1     -18.356  11.700   6.883  0.00  0.00    +0.000 S 
ATOM      2  N   UNL     1     -14.960   8.360   5.742  0.00  0.00    +0.000 N 
ATOM      3  N   UNL     1     -15.032   8.996   8.119  0.00  0.00    +0.000 N 
ATOM      4  N   UNL     1     -16.667   9.688   5.075  0.00  0.00    +0.000 NA
ATOM      5  N   UNL     1     -16.634  10.648   8.719  0.00  0.00    +0.000 NA
ATOM      6  C   UNL     1     -15.433   9.040   6.836  0.00  0.00    +0.000 A 
ATOM      7  C   UNL     1     -15.774   8.791   4.707  0.00  0.00    +0.000 A 
ATOM      8  C   UNL     1     -16.453   9.858   6.421  0.00  0.00    +0.000 A 
ATOM      9  C   UNL     1     -17.107  10.720   7.407  0.00  0.00    +0.000 A 
ATOM     10  C   UNL     1     -15.667   9.824   9.004  0.00  0.00    +0.000 A 
ATOM     11  H   UNL     1     -14.252   8.424   8.434  0.00  0.00    +0.000 HD
ATOM     12  N   UNL     1     -15.194   9.731  10.270  0.00  0.00    +0.000 N 
ATOM     13  H   UNL     1     -15.086   8.783  10.606  0.00  0.00    +0.000 HD
ATOM     14  H   UNL     1     -15.774  10.273  10.907  0.00  0.00    +0.000 HD
ENDROOT
BRANCH   2  15
ATOM     15  C1* UNL     1     -13.916   7.463   5.618  0.00  0.00    +0.000 A 
ATOM     16  O4* UNL     1     -13.267   7.239   4.380  0.00  0.00    +0.000 OA
ATOM     17  C4* UNL     1     -12.262   6.272   4.552  0.00  0.00    +0.000 A 
ATOM     18  C3* UNL     1     -12.259   5.871   5.930  0.00  0.00    +0.000 A 
ATOM     19  C2* UNL     1     -13.279   6.618   6.598  0.00  0.00    +0.000 A 
BRANCH  18  20
ATOM     20  O3* UNL     1     -11.943   4.606   6.349  0.00  0.00    +0.000 OA
ATOM     21  H3* UNL     1     -12.472   3.932   5.884  0.00  0.00    +0.000 HD
ENDBRANCH  18  20
BRANCH  19  22
ATOM     22  O2* UNL     1     -13.943   6.091   7.672  0.00  0.00    +0.000 OA
ATOM     23  H2* UNL     1     -14.837   5.807   7.392  0.00  0.00    +0.000 HD
ENDBRANCH  19  22
BRANCH  17  24
ATOM     24  C5* UNL     1     -11.608   5.651   3.472  0.00  0.00    +0.000 C 
BRANCH  24  25
ATOM     25  O5* UNL     1     -10.975   5.057   2.467  0.00  0.00    +0.000 OA
ATOM     26  H5* UNL     1     -10.871   5.669   1.717  0.00  0.00    +0.000 HD
ENDBRANCH  24  25
ENDBRANCH  17  24
ENDBRANCH   2  15
TORSDOF 5
ENDMDL
