MODEL 1
REMARK VINA RESULT:      -5.9      0.000      0.000
REMARK  Name = Trichostatin_A.pdbqt.pdb
REMARK  6 active torsions:
REMARK  status: ('A' for Active; 'I' for Inactive)
REMARK    1  A    between atoms: C_1  and  C_15
REMARK    2  A    between atoms: C_4  and  C_6
REMARK    3  A    between atoms: C_7  and  C_10
REMARK    4  A    between atoms: N_9  and  O_12
REMARK    5  A    between atoms: C_15  and  C_16
REMARK    6  A    between atoms: C_17  and  N_22
REMARK                            x       y       z     vdW  Elec       q    Type
REMARK                         _______ _______ _______ _____ _____    ______ ____
ROOT
ATOM      1  C   UNL     1      -8.883  -3.913  21.678  0.00  0.00    +0.000 C 
ATOM      2  C   UNL     1      -9.133  -4.863  20.525  0.00  0.00    +0.000 C 
ATOM      3  C   UNL     1      -9.880  -3.884  22.683  0.00  0.00    +0.000 C 
ATOM      4  C   UNL     1     -10.763  -3.815  23.624  0.00  0.00    +0.000 C 
ATOM      5  C   UNL     1     -10.568  -4.612  24.878  0.00  0.00    +0.000 C 
ENDROOT
BRANCH   4   6
ATOM      6  C   UNL     1     -11.794  -2.850  23.560  0.00  0.00    +0.000 C 
ATOM      7  C   UNL     1     -12.669  -2.027  23.504  0.00  0.00    +0.000 C 
BRANCH   7  10
ATOM      8  O   UNL     1     -13.451   0.148  23.496  0.00  0.00    +0.000 OA
ATOM      9  N   UNL     1     -14.989  -1.533  23.294  0.00  0.00    +0.000 N 
ATOM     10  C   UNL     1     -13.719  -1.046  23.432  0.00  0.00    +0.000 C 
ATOM     11  H   UNL     1     -15.228  -2.516  23.247  0.00  0.00    +0.000 HD
BRANCH   9  12
ATOM     12  O   UNL     1     -16.044  -0.598  23.229  0.00  0.00    +0.000 OA
ATOM     13  H   UNL     1     -16.044  -0.335  22.283  0.00  0.00    +0.000 HD
ENDBRANCH   9  12
ENDBRANCH   7  10
ENDBRANCH   4   6
BRANCH   1  15
ATOM     14  O   UNL     1      -6.654  -3.132  21.930  0.00  0.00    +0.000 OA
ATOM     15  C   UNL     1      -7.824  -2.858  21.665  0.00  0.00    +0.000 C 
BRANCH  15  16
ATOM     16  C   UNL     1      -8.166  -1.463  21.319  0.00  0.00    +0.000 A 
ATOM     17  C   UNL     1      -8.992   1.175  20.715  0.00  0.00    +0.000 A 
ATOM     18  C   UNL     1      -7.566  -0.380  21.953  0.00  0.00    +0.000 A 
ATOM     19  C   UNL     1      -9.195  -1.243  20.407  0.00  0.00    +0.000 A 
ATOM     20  C   UNL     1      -7.969   0.918  21.642  0.00  0.00    +0.000 A 
ATOM     21  C   UNL     1      -9.589   0.061  20.104  0.00  0.00    +0.000 A 
BRANCH  17  22
ATOM     22  N   UNL     1      -9.384   2.498  20.391  0.00  0.00    +0.000 N 
ATOM     23  C   UNL     1     -10.175   3.292  21.317  0.00  0.00    +0.000 C 
ATOM     24  C   UNL     1      -9.406   2.956  19.011  0.00  0.00    +0.000 C 
ENDBRANCH  17  22
ENDBRANCH  15  16
ENDBRANCH   1  15
TORSDOF 6
ENDMDL
MODEL 2
REMARK VINA RESULT:      -5.7      3.261      6.966
REMARK  Name = Trichostatin_A.pdbqt.pdb
REMARK  6 active torsions:
REMARK  status: ('A' for Active; 'I' for Inactive)
REMARK    1  A    between atoms: C_1  and  C_15
REMARK    2  A    between atoms: C_4  and  C_6
REMARK    3  A    between atoms: C_7  and  C_10
REMARK    4  A    between atoms: N_9  and  O_12
REMARK    5  A    between atoms: C_15  and  C_16
REMARK    6  A    between atoms: C_17  and  N_22
REMARK                            x       y       z     vdW  Elec       q    Type
REMARK                         _______ _______ _______ _____ _____    ______ ____
ROOT
ATOM      1  C   UNL     1      -9.941  -3.471  20.250  0.00  0.00    +0.000 C 
ATOM      2  C   UNL     1      -9.508  -4.185  18.985  0.00  0.00    +0.000 C 
ATOM      3  C   UNL     1      -9.240  -2.281  20.559  0.00  0.00    +0.000 C 
ATOM      4  C   UNL     1      -8.627  -1.192  20.890  0.00  0.00    +0.000 C 
ATOM      5  C   UNL     1      -9.225   0.131  20.521  0.00  0.00    +0.000 C 
ENDROOT
BRANCH   4   6
ATOM      6  C   UNL     1      -7.514  -1.241  21.760  0.00  0.00    +0.000 C 
ATOM      7  C   UNL     1      -6.566  -1.282  22.498  0.00  0.00    +0.000 C 
BRANCH   7  10
ATOM      8  O   UNL     1      -5.601  -1.429  24.594  0.00  0.00    +0.000 OA
ATOM      9  N   UNL     1      -4.203  -1.240  22.794  0.00  0.00    +0.000 N 
ATOM     10  C   UNL     1      -5.433  -1.324  23.384  0.00  0.00    +0.000 C 
ATOM     11  H   UNL     1      -4.047  -1.145  21.797  0.00  0.00    +0.000 HD
BRANCH   9  12
ATOM     12  O   UNL     1      -3.071  -1.268  23.634  0.00  0.00    +0.000 OA
ATOM     13  H   UNL     1      -2.491  -0.579  23.243  0.00  0.00    +0.000 HD
ENDBRANCH   9  12
ENDBRANCH   7  10
ENDBRANCH   4   6
BRANCH   1  15
ATOM     14  O   UNL     1     -11.865  -4.676  20.949  0.00  0.00    +0.000 OA
ATOM     15  C   UNL     1     -10.838  -4.082  21.278  0.00  0.00    +0.000 C 
BRANCH  15  16
ATOM     16  C   UNL     1     -10.496  -3.994  22.712  0.00  0.00    +0.000 A 
ATOM     17  C   UNL     1      -9.670  -3.785  25.410  0.00  0.00    +0.000 A 
ATOM     18  C   UNL     1     -11.066  -3.037  23.545  0.00  0.00    +0.000 A 
ATOM     19  C   UNL     1      -9.497  -4.829  23.205  0.00  0.00    +0.000 A 
ATOM     20  C   UNL     1     -10.663  -2.947  24.878  0.00  0.00    +0.000 A 
ATOM     21  C   UNL     1      -9.103  -4.730  24.540  0.00  0.00    +0.000 A 
BRANCH  17  22
ATOM     22  N   UNL     1      -9.278  -3.700  26.770  0.00  0.00    +0.000 N 
ATOM     23  C   UNL     1      -8.320  -2.699  27.211  0.00  0.00    +0.000 C 
ATOM     24  C   UNL     1      -9.453  -4.827  27.672  0.00  0.00    +0.000 C 
ENDBRANCH  17  22
ENDBRANCH  15  16
ENDBRANCH   1  15
TORSDOF 6
ENDMDL
MODEL 3
REMARK VINA RESULT:      -5.7     16.173     17.704
REMARK  Name = Trichostatin_A.pdbqt.pdb
REMARK  6 active torsions:
REMARK  status: ('A' for Active; 'I' for Inactive)
REMARK    1  A    between atoms: C_1  and  C_15
REMARK    2  A    between atoms: C_4  and  C_6
REMARK    3  A    between atoms: C_7  and  C_10
REMARK    4  A    between atoms: N_9  and  O_12
REMARK    5  A    between atoms: C_15  and  C_16
REMARK    6  A    between atoms: C_17  and  N_22
REMARK                            x       y       z     vdW  Elec       q    Type
REMARK                         _______ _______ _______ _____ _____    ______ ____
ROOT
ATOM      1  C   UNL     1     -22.054  -3.465   6.491  0.00  0.00    +0.000 C 
ATOM      2  C   UNL     1     -22.680  -4.319   5.406  0.00  0.00    +0.000 C 
ATOM      3  C   UNL     1     -21.177  -4.136   7.376  0.00  0.00    +0.000 C 
ATOM      4  C   UNL     1     -20.373  -4.701   8.215  0.00  0.00    +0.000 C 
ATOM      5  C   UNL     1     -18.894  -4.628   7.984  0.00  0.00    +0.000 C 
ENDROOT
BRANCH   4   6
ATOM      6  C   UNL     1     -20.867  -5.208   9.439  0.00  0.00    +0.000 C 
ATOM      7  C   UNL     1     -21.284  -5.637  10.482  0.00  0.00    +0.000 C 
BRANCH   7  10
ATOM      8  O   UNL     1     -22.775  -6.880  11.738  0.00  0.00    +0.000 OA
ATOM      9  N   UNL     1     -21.118  -5.766  12.854  0.00  0.00    +0.000 N 
ATOM     10  C   UNL     1     -21.792  -6.148  11.728  0.00  0.00    +0.000 C 
ATOM     11  H   UNL     1     -20.309  -5.156  12.864  0.00  0.00    +0.000 HD
BRANCH   9  12
ATOM     12  O   UNL     1     -21.595  -6.241  14.094  0.00  0.00    +0.000 OA
ATOM     13  H   UNL     1     -20.926  -6.916  14.340  0.00  0.00    +0.000 HD
ENDBRANCH   9  12
ENDBRANCH   7  10
ENDBRANCH   4   6
BRANCH   1  15
ATOM     14  O   UNL     1     -22.850  -1.298   5.931  0.00  0.00    +0.000 OA
ATOM     15  C   UNL     1     -22.511  -2.081   6.819  0.00  0.00    +0.000 C 
BRANCH  15  16
ATOM     16  C   UNL     1     -22.576  -1.632   8.224  0.00  0.00    +0.000 A 
ATOM     17  C   UNL     1     -22.643  -0.938  10.967  0.00  0.00    +0.000 A 
ATOM     18  C   UNL     1     -21.773  -0.602   8.705  0.00  0.00    +0.000 A 
ATOM     19  C   UNL     1     -23.391  -2.338   9.106  0.00  0.00    +0.000 A 
ATOM     20  C   UNL     1     -21.820  -0.257  10.056  0.00  0.00    +0.000 A 
ATOM     21  C   UNL     1     -23.429  -1.982  10.455  0.00  0.00    +0.000 A 
BRANCH  17  22
ATOM     22  N   UNL     1     -22.698  -0.570  12.335  0.00  0.00    +0.000 N 
ATOM     23  C   UNL     1     -23.493  -1.334  13.283  0.00  0.00    +0.000 C 
ATOM     24  C   UNL     1     -22.350   0.775  12.764  0.00  0.00    +0.000 C 
ENDBRANCH  17  22
ENDBRANCH  15  16
ENDBRANCH   1  15
TORSDOF 6
ENDMDL
MODEL 4
REMARK VINA RESULT:      -5.6      3.924      7.290
REMARK  Name = Trichostatin_A.pdbqt.pdb
REMARK  6 active torsions:
REMARK  status: ('A' for Active; 'I' for Inactive)
REMARK    1  A    between atoms: C_1  and  C_15
REMARK    2  A    between atoms: C_4  and  C_6
REMARK    3  A    between atoms: C_7  and  C_10
REMARK    4  A    between atoms: N_9  and  O_12
REMARK    5  A    between atoms: C_15  and  C_16
REMARK    6  A    between atoms: C_17  and  N_22
REMARK                            x       y       z     vdW  Elec       q    Type
REMARK                         _______ _______ _______ _____ _____    ______ ____
ROOT
ATOM      1  C   UNL     1      -9.914  -3.338  19.990  0.00  0.00    +0.000 C 
ATOM      2  C   UNL     1     -10.078  -3.032  18.515  0.00  0.00    +0.000 C 
ATOM      3  C   UNL     1      -9.640  -2.228  20.824  0.00  0.00    +0.000 C 
ATOM      4  C   UNL     1      -9.383  -1.250  21.629  0.00  0.00    +0.000 C 
ATOM      5  C   UNL     1     -10.503  -0.605  22.387  0.00  0.00    +0.000 C 
ENDROOT
BRANCH   4   6
ATOM      6  C   UNL     1      -8.044  -0.924  21.944  0.00  0.00    +0.000 C 
ATOM      7  C   UNL     1      -6.904  -0.650  22.210  0.00  0.00    +0.000 C 
BRANCH   7  10
ATOM      8  O   UNL     1      -5.199   0.859  22.610  0.00  0.00    +0.000 OA
ATOM      9  N   UNL     1      -4.689  -1.368  22.710  0.00  0.00    +0.000 N 
ATOM     10  C   UNL     1      -5.540  -0.315  22.524  0.00  0.00    +0.000 C 
ATOM     11  H   UNL     1      -4.953  -2.344  22.636  0.00  0.00    +0.000 HD
BRANCH   9  12
ATOM     12  O   UNL     1      -3.342  -1.076  23.011  0.00  0.00    +0.000 OA
ATOM     13  H   UNL     1      -3.404  -0.208  23.467  0.00  0.00    +0.000 HD
ENDBRANCH   9  12
ENDBRANCH   7  10
ENDBRANCH   4   6
BRANCH   1  15
ATOM     14  O   UNL     1      -9.144  -5.584  19.908  0.00  0.00    +0.000 OA
ATOM     15  C   UNL     1      -9.761  -4.721  20.534  0.00  0.00    +0.000 C 
BRANCH  15  16
ATOM     16  C   UNL     1     -10.339  -5.074  21.847  0.00  0.00    +0.000 A 
ATOM     17  C   UNL     1     -11.395  -5.583  24.422  0.00  0.00    +0.000 A 
ATOM     18  C   UNL     1     -11.700  -5.315  22.009  0.00  0.00    +0.000 A 
ATOM     19  C   UNL     1      -9.505  -5.056  22.962  0.00  0.00    +0.000 A 
ATOM     20  C   UNL     1     -12.212  -5.578  23.280  0.00  0.00    +0.000 A 
ATOM     21  C   UNL     1     -10.030  -5.321  24.227  0.00  0.00    +0.000 A 
BRANCH  17  22
ATOM     22  N   UNL     1     -11.920  -5.869  25.708  0.00  0.00    +0.000 N 
ATOM     23  C   UNL     1     -11.332  -6.904  26.542  0.00  0.00    +0.000 C 
ATOM     24  C   UNL     1     -13.274  -5.482  26.067  0.00  0.00    +0.000 C 
ENDBRANCH  17  22
ENDBRANCH  15  16
ENDBRANCH   1  15
TORSDOF 6
ENDMDL
MODEL 5
REMARK VINA RESULT:      -5.6     17.069     18.405
REMARK  Name = Trichostatin_A.pdbqt.pdb
REMARK  6 active torsions:
REMARK  status: ('A' for Active; 'I' for Inactive)
REMARK    1  A    between atoms: C_1  and  C_15
REMARK    2  A    between atoms: C_4  and  C_6
REMARK    3  A    between atoms: C_7  and  C_10
REMARK    4  A    between atoms: N_9  and  O_12
REMARK    5  A    between atoms: C_15  and  C_16
REMARK    6  A    between atoms: C_17  and  N_22
REMARK                            x       y       z     vdW  Elec       q    Type
REMARK                         _______ _______ _______ _____ _____    ______ ____
ROOT
ATOM      1  C   UNL     1     -22.055  -4.902   5.934  0.00  0.00    +0.000 C 
ATOM      2  C   UNL     1     -22.227  -6.126   5.057  0.00  0.00    +0.000 C 
ATOM      3  C   UNL     1     -21.170  -5.045   7.029  0.00  0.00    +0.000 C 
ATOM      4  C   UNL     1     -20.378  -5.124   8.047  0.00  0.00    +0.000 C 
ATOM      5  C   UNL     1     -18.968  -4.632   7.924  0.00  0.00    +0.000 C 
ENDROOT
BRANCH   4   6
ATOM      6  C   UNL     1     -20.887  -5.484   9.316  0.00  0.00    +0.000 C 
ATOM      7  C   UNL     1     -21.322  -5.792  10.393  0.00  0.00    +0.000 C 
BRANCH   7  10
ATOM      8  O   UNL     1     -22.851  -6.843  11.773  0.00  0.00    +0.000 OA
ATOM      9  N   UNL     1     -21.129  -5.713  12.766  0.00  0.00    +0.000 N 
ATOM     10  C   UNL     1     -21.835  -6.163  11.686  0.00  0.00    +0.000 C 
ATOM     11  H   UNL     1     -20.292  -5.144  12.712  0.00  0.00    +0.000 HD
BRANCH   9  12
ATOM     12  O   UNL     1     -21.610  -6.050  14.049  0.00  0.00    +0.000 OA
ATOM     13  H   UNL     1     -20.824  -5.908  14.620  0.00  0.00    +0.000 HD
ENDBRANCH   9  12
ENDBRANCH   7  10
ENDBRANCH   4   6
BRANCH   1  15
ATOM     14  O   UNL     1     -23.815  -3.612   4.994  0.00  0.00    +0.000 OA
ATOM     15  C   UNL     1     -22.943  -3.702   5.859  0.00  0.00    +0.000 C 
BRANCH  15  16
ATOM     16  C   UNL     1     -22.796  -2.604   6.836  0.00  0.00    +0.000 A 
ATOM     17  C   UNL     1     -22.620  -0.397   8.599  0.00  0.00    +0.000 A 
ATOM     18  C   UNL     1     -23.276  -2.709   8.138  0.00  0.00    +0.000 A 
ATOM     19  C   UNL     1     -22.255  -1.398   6.397  0.00  0.00    +0.000 A 
ATOM     20  C   UNL     1     -23.175  -1.621   9.005  0.00  0.00    +0.000 A 
ATOM     21  C   UNL     1     -22.159  -0.318   7.275  0.00  0.00    +0.000 A 
BRANCH  17  22
ATOM     22  N   UNL     1     -22.504   0.698   9.491  0.00  0.00    +0.000 N 
ATOM     23  C   UNL     1     -22.340   2.054   8.994  0.00  0.00    +0.000 C 
ATOM     24  C   UNL     1     -22.111   0.497  10.877  0.00  0.00    +0.000 C 
ENDBRANCH  17  22
ENDBRANCH  15  16
ENDBRANCH   1  15
TORSDOF 6
ENDMDL
MODEL 6
REMARK VINA RESULT:      -5.3     22.254     24.808
REMARK  Name = Trichostatin_A.pdbqt.pdb
REMARK  6 active torsions:
REMARK  status: ('A' for Active; 'I' for Inactive)
REMARK    1  A    between atoms: C_1  and  C_15
REMARK    2  A    between atoms: C_4  and  C_6
REMARK    3  A    between atoms: C_7  and  C_10
REMARK    4  A    between atoms: N_9  and  O_12
REMARK    5  A    between atoms: C_15  and  C_16
REMARK    6  A    between atoms: C_17  and  N_22
REMARK                            x       y       z     vdW  Elec       q    Type
REMARK                         _______ _______ _______ _____ _____    ______ ____
ROOT
ATOM      1  C   UNL     1      -0.899  -4.335   1.977  0.00  0.00    +0.000 C 
ATOM      2  C   UNL     1       0.086  -3.184   1.928  0.00  0.00    +0.000 C 
ATOM      3  C   UNL     1      -0.343  -5.631   1.856  0.00  0.00    +0.000 C 
ATOM      4  C   UNL     1       0.113  -6.834   1.744  0.00  0.00    +0.000 C 
ATOM      5  C   UNL     1       0.371  -7.644   2.978  0.00  0.00    +0.000 C 
ENDROOT
BRANCH   4   6
ATOM      6  C   UNL     1       0.178  -7.453   0.474  0.00  0.00    +0.000 C 
ATOM      7  C   UNL     1       0.230  -7.980  -0.605  0.00  0.00    +0.000 C 
BRANCH   7  10
ATOM      8  O   UNL     1      -0.685  -8.584  -2.641  0.00  0.00    +0.000 OA
ATOM      9  N   UNL     1       1.478  -9.201  -2.225  0.00  0.00    +0.000 N 
ATOM     10  C   UNL     1       0.292  -8.605  -1.900  0.00  0.00    +0.000 C 
ATOM     11  H   UNL     1       2.292  -9.233  -1.623  0.00  0.00    +0.000 HD
BRANCH   9  12
ATOM     12  O   UNL     1       1.570  -9.831  -3.484  0.00  0.00    +0.000 OA
ATOM     13  H   UNL     1       2.444 -10.276  -3.442  0.00  0.00    +0.000 HD
ENDBRANCH   9  12
ENDBRANCH   7  10
ENDBRANCH   4   6
BRANCH   1  15
ATOM     14  O   UNL     1      -2.934  -3.165   2.345  0.00  0.00    +0.000 OA
ATOM     15  C   UNL     1      -2.379  -4.159   1.874  0.00  0.00    +0.000 C 
BRANCH  15  16
ATOM     16  C   UNL     1      -3.205  -5.175   1.190  0.00  0.00    +0.000 A 
ATOM     17  C   UNL     1      -4.630  -7.201  -0.179  0.00  0.00    +0.000 A 
ATOM     18  C   UNL     1      -4.030  -6.046   1.893  0.00  0.00    +0.000 A 
ATOM     19  C   UNL     1      -3.061  -5.324  -0.187  0.00  0.00    +0.000 A 
ATOM     20  C   UNL     1      -4.740  -7.035   1.211  0.00  0.00    +0.000 A 
ATOM     21  C   UNL     1      -3.777  -6.316  -0.858  0.00  0.00    +0.000 A 
BRANCH  17  22
ATOM     22  N   UNL     1      -5.367  -8.196  -0.868  0.00  0.00    +0.000 N 
ATOM     23  C   UNL     1      -6.817  -8.252  -0.773  0.00  0.00    +0.000 C 
ATOM     24  C   UNL     1      -4.730  -9.422  -1.320  0.00  0.00    +0.000 C 
ENDBRANCH  17  22
ENDBRANCH  15  16
ENDBRANCH   1  15
TORSDOF 6
ENDMDL
MODEL 7
REMARK VINA RESULT:      -5.2     20.224     22.835
REMARK  Name = Trichostatin_A.pdbqt.pdb
REMARK  6 active torsions:
REMARK  status: ('A' for Active; 'I' for Inactive)
REMARK    1  A    between atoms: C_1  and  C_15
REMARK    2  A    between atoms: C_4  and  C_6
REMARK    3  A    between atoms: C_7  and  C_10
REMARK    4  A    between atoms: N_9  and  O_12
REMARK    5  A    between atoms: C_15  and  C_16
REMARK    6  A    between atoms: C_17  and  N_22
REMARK                            x       y       z     vdW  Elec       q    Type
REMARK                         _______ _______ _______ _____ _____    ______ ____
ROOT
ATOM      1  C   UNL     1      -1.268  -0.476   3.744  0.00  0.00    +0.000 C 
ATOM      2  C   UNL     1      -1.498   0.620   2.723  0.00  0.00    +0.000 C 
ATOM      3  C   UNL     1       0.028  -0.529   4.313  0.00  0.00    +0.000 C 
ATOM      4  C   UNL     1       1.196  -0.625   4.857  0.00  0.00    +0.000 C 
ATOM      5  C   UNL     1       1.439   0.002   6.196  0.00  0.00    +0.000 C 
ENDROOT
BRANCH   4   6
ATOM      6  C   UNL     1       2.173  -1.478   4.294  0.00  0.00    +0.000 C 
ATOM      7  C   UNL     1       3.006  -2.201   3.817  0.00  0.00    +0.000 C 
BRANCH   7  10
ATOM      8  O   UNL     1       3.884  -4.288   3.348  0.00  0.00    +0.000 OA
ATOM      9  N   UNL     1       5.050  -2.459   2.622  0.00  0.00    +0.000 N 
ATOM     10  C   UNL     1       4.002  -3.072   3.251  0.00  0.00    +0.000 C 
ATOM     11  H   UNL     1       5.167  -1.456   2.539  0.00  0.00    +0.000 HD
BRANCH   9  12
ATOM     12  O   UNL     1       6.050  -3.283   2.064  0.00  0.00    +0.000 OA
ATOM     13  H   UNL     1       5.551  -4.088   1.806  0.00  0.00    +0.000 HD
ENDBRANCH   9  12
ENDBRANCH   7  10
ENDBRANCH   4   6
BRANCH   1  15
ATOM     14  O   UNL     1      -2.996  -1.613   4.911  0.00  0.00    +0.000 OA
ATOM     15  C   UNL     1      -2.212  -1.614   3.962  0.00  0.00    +0.000 C 
BRANCH  15  16
ATOM     16  C   UNL     1      -2.227  -2.758   3.029  0.00  0.00    +0.000 A 
ATOM     17  C   UNL     1      -2.175  -5.052   1.372  0.00  0.00    +0.000 A 
ATOM     18  C   UNL     1      -3.415  -3.309   2.560  0.00  0.00    +0.000 A 
ATOM     19  C   UNL     1      -1.014  -3.359   2.701  0.00  0.00    +0.000 A 
ATOM     20  C   UNL     1      -3.382  -4.432   1.733  0.00  0.00    +0.000 A 
ATOM     21  C   UNL     1      -0.994  -4.482   1.873  0.00  0.00    +0.000 A 
BRANCH  17  22
ATOM     22  N   UNL     1      -2.148  -6.182   0.517  0.00  0.00    +0.000 N 
ATOM     23  C   UNL     1      -3.348  -6.626  -0.174  0.00  0.00    +0.000 C 
ATOM     24  C   UNL     1      -1.094  -7.178   0.624  0.00  0.00    +0.000 C 
ENDBRANCH  17  22
ENDBRANCH  15  16
ENDBRANCH   1  15
TORSDOF 6
ENDMDL
MODEL 8
REMARK VINA RESULT:      -5.1     18.159     20.021
REMARK  Name = Trichostatin_A.pdbqt.pdb
REMARK  6 active torsions:
REMARK  status: ('A' for Active; 'I' for Inactive)
REMARK    1  A    between atoms: C_1  and  C_15
REMARK    2  A    between atoms: C_4  and  C_6
REMARK    3  A    between atoms: C_7  and  C_10
REMARK    4  A    between atoms: N_9  and  O_12
REMARK    5  A    between atoms: C_15  and  C_16
REMARK    6  A    between atoms: C_17  and  N_22
REMARK                            x       y       z     vdW  Elec       q    Type
REMARK                         _______ _______ _______ _____ _____    ______ ____
ROOT
ATOM      1  C   UNL     1     -24.253  -5.375   5.561  0.00  0.00    +0.000 C 
ATOM      2  C   UNL     1     -24.142  -6.035   4.201  0.00  0.00    +0.000 C 
ATOM      3  C   UNL     1     -23.227  -4.456   5.887  0.00  0.00    +0.000 C 
ATOM      4  C   UNL     1     -22.313  -3.613   6.237  0.00  0.00    +0.000 C 
ATOM      5  C   UNL     1     -22.551  -2.145   6.048  0.00  0.00    +0.000 C 
ENDROOT
BRANCH   4   6
ATOM      6  C   UNL     1     -21.187  -4.051   6.971  0.00  0.00    +0.000 C 
ATOM      7  C   UNL     1     -20.229  -4.426   7.593  0.00  0.00    +0.000 C 
BRANCH   7  10
ATOM      8  O   UNL     1     -19.176  -5.115   9.533  0.00  0.00    +0.000 OA
ATOM      9  N   UNL     1     -17.915  -4.986   7.630  0.00  0.00    +0.000 N 
ATOM     10  C   UNL     1     -19.079  -4.869   8.336  0.00  0.00    +0.000 C 
ATOM     11  H   UNL     1     -17.815  -4.780   6.643  0.00  0.00    +0.000 HD
BRANCH   9  12
ATOM     12  O   UNL     1     -16.765  -5.409   8.329  0.00  0.00    +0.000 OA
ATOM     13  H   UNL     1     -16.187  -4.616   8.298  0.00  0.00    +0.000 HD
ENDBRANCH   9  12
ENDBRANCH   7  10
ENDBRANCH   4   6
BRANCH   1  15
ATOM     14  O   UNL     1     -26.380  -6.044   6.379  0.00  0.00    +0.000 OA
ATOM     15  C   UNL     1     -25.193  -5.835   6.628  0.00  0.00    +0.000 C 
BRANCH  15  16
ATOM     16  C   UNL     1     -24.706  -6.059   8.004  0.00  0.00    +0.000 A 
ATOM     17  C   UNL     1     -23.602  -6.480  10.575  0.00  0.00    +0.000 A 
ATOM     18  C   UNL     1     -24.956  -5.152   9.029  0.00  0.00    +0.000 A 
ATOM     19  C   UNL     1     -23.886  -7.159   8.243  0.00  0.00    +0.000 A 
ATOM     20  C   UNL     1     -24.419  -5.372  10.298  0.00  0.00    +0.000 A 
ATOM     21  C   UNL     1     -23.355  -7.368   9.516  0.00  0.00    +0.000 A 
BRANCH  17  22
ATOM     22  N   UNL     1     -23.074  -6.706  11.871  0.00  0.00    +0.000 N 
ATOM     23  C   UNL     1     -23.850  -7.403  12.884  0.00  0.00    +0.000 C 
ATOM     24  C   UNL     1     -21.971  -5.908  12.381  0.00  0.00    +0.000 C 
ENDBRANCH  17  22
ENDBRANCH  15  16
ENDBRANCH   1  15
TORSDOF 6
ENDMDL
MODEL 9
REMARK VINA RESULT:      -5.1     15.445     17.734
REMARK  Name = Trichostatin_A.pdbqt.pdb
REMARK  6 active torsions:
REMARK  status: ('A' for Active; 'I' for Inactive)
REMARK    1  A    between atoms: C_1  and  C_15
REMARK    2  A    between atoms: C_4  and  C_6
REMARK    3  A    between atoms: C_7  and  C_10
REMARK    4  A    between atoms: N_9  and  O_12
REMARK    5  A    between atoms: C_15  and  C_16
REMARK    6  A    between atoms: C_17  and  N_22
REMARK                            x       y       z     vdW  Elec       q    Type
REMARK                         _______ _______ _______ _____ _____    ______ ____
ROOT
ATOM      1  C   UNL     1       3.218 -13.564  19.559  0.00  0.00    +0.000 C 
ATOM      2  C   UNL     1       3.945 -14.871  19.319  0.00  0.00    +0.000 C 
ATOM      3  C   UNL     1       2.157 -13.608  20.495  0.00  0.00    +0.000 C 
ATOM      4  C   UNL     1       1.176 -13.596  21.335  0.00  0.00    +0.000 C 
ATOM      5  C   UNL     1       1.420 -13.157  22.747  0.00  0.00    +0.000 C 
ENDROOT
BRANCH   4   6
ATOM      6  C   UNL     1      -0.148 -13.802  20.884  0.00  0.00    +0.000 C 
ATOM      7  C   UNL     1      -1.272 -13.976  20.496  0.00  0.00    +0.000 C 
BRANCH   7  10
ATOM      8  O   UNL     1      -2.853 -14.271  18.835  0.00  0.00    +0.000 OA
ATOM      9  N   UNL     1      -3.577 -14.296  21.005  0.00  0.00    +0.000 N 
ATOM     10  C   UNL     1      -2.618 -14.192  20.036  0.00  0.00    +0.000 C 
ATOM     11  H   UNL     1      -3.401 -14.227  22.000  0.00  0.00    +0.000 HD
BRANCH   9  12
ATOM     12  O   UNL     1      -4.909 -14.499  20.588  0.00  0.00    +0.000 OA
ATOM     13  H   UNL     1      -5.428 -14.049  21.289  0.00  0.00    +0.000 HD
ENDBRANCH   9  12
ENDBRANCH   7  10
ENDBRANCH   4   6
BRANCH   1  15
ATOM     14  O   UNL     1       3.377 -11.224  19.176  0.00  0.00    +0.000 OA
ATOM     15  C   UNL     1       3.382 -12.357  18.693  0.00  0.00    +0.000 C 
BRANCH  15  16
ATOM     16  C   UNL     1       3.567 -12.505  17.235  0.00  0.00    +0.000 A 
ATOM     17  C   UNL     1       3.750 -12.722  14.419  0.00  0.00    +0.000 A 
ATOM     18  C   UNL     1       4.540 -11.794  16.541  0.00  0.00    +0.000 A 
ATOM     19  C   UNL     1       2.665 -13.301  16.533  0.00  0.00    +0.000 A 
ATOM     20  C   UNL     1       4.633 -11.915  15.154  0.00  0.00    +0.000 A 
ATOM     21  C   UNL     1       2.769 -13.414  15.146  0.00  0.00    +0.000 A 
BRANCH  17  22
ATOM     22  N   UNL     1       3.862 -12.853  13.012  0.00  0.00    +0.000 N 
ATOM     23  C   UNL     1       3.706 -11.702  12.139  0.00  0.00    +0.000 C 
ATOM     24  C   UNL     1       3.700 -14.145  12.366  0.00  0.00    +0.000 C 
ENDBRANCH  17  22
ENDBRANCH  15  16
ENDBRANCH   1  15
TORSDOF 6
ENDMDL
