MODEL 1
REMARK VINA RESULT:      -7.1      0.000      0.000
REMARK  Name = Troglitazone.pdbqt.pdb
REMARK  4 active torsions:
REMARK  status: ('A' for Active; 'I' for Inactive)
REMARK    1  A    between atoms: C_1  and  O_2
REMARK    2  A    between atoms: C_1  and  C_18
REMARK    3  A    between atoms: O_2  and  C_3
REMARK    4  A    between atoms: C_26  and  O_32
REMARK                            x       y       z     vdW  Elec       q    Type
REMARK                         _______ _______ _______ _____ _____    ______ ____
ROOT
ATOM      1  C   UNL     1      -7.169   1.260  22.615  0.00  0.00    +0.000 C 
ENDROOT
BRANCH   1   2
ATOM      2  C   UNL     1      -8.405   0.543  22.260  0.00  0.00    +0.000 C 
ATOM      3  O   UNL     1      -8.025  -0.842  21.932  0.00  0.00    +0.000 OA
ATOM      4  C   UNL     1      -8.681  -1.617  20.968  0.00  0.00    +0.000 A 
ATOM      5  C   UNL     1      -9.471  -1.074  19.912  0.00  0.00    +0.000 A 
ATOM      6  C   UNL     1      -8.484  -3.013  21.032  0.00  0.00    +0.000 A 
ATOM      7  C   UNL     1      -9.587   0.340  19.936  0.00  0.00    +0.000 C 
ATOM      8  C   UNL     1     -10.078  -1.897  18.956  0.00  0.00    +0.000 A 
ATOM      9  C   UNL     1      -9.053   1.121  21.089  0.00  0.00    +0.000 C 
ATOM     10  C   UNL     1      -9.891  -3.285  19.040  0.00  0.00    +0.000 A 
ATOM     11  C   UNL     1     -10.912  -1.294  17.845  0.00  0.00    +0.000 C 
ATOM     12  C   UNL     1      -9.100  -3.841  20.067  0.00  0.00    +0.000 A 
ATOM     13  C   UNL     1      -8.953  -5.363  20.049  0.00  0.00    +0.000 C 
ATOM     14  C   UNL     1      -7.597  -3.580  22.133  0.00  0.00    +0.000 C 
ATOM     15  C   UNL     1      -9.384   0.466  23.457  0.00  0.00    +0.000 C 
BRANCH  10  16
ATOM     16  O   UNL     1     -10.479  -4.121  18.105  0.00  0.00    +0.000 OA
ATOM     17  H   UNL     1     -11.180  -4.640  18.556  0.00  0.00    +0.000 HD
ENDBRANCH  10  16
ENDBRANCH   1   2
BRANCH   1  18
ATOM     18  O   UNL     1      -6.054   1.914  22.945  0.00  0.00    +0.000 OA
BRANCH  18  19
ATOM     19  C   UNL     1      -5.049   1.120  23.437  0.00  0.00    +0.000 C 
ATOM     20  C   UNL     1      -4.464   1.274  24.696  0.00  0.00    +0.000 C 
ATOM     21  C   UNL     1      -3.452   0.412  25.111  0.00  0.00    +0.000 C 
ATOM     22  C   UNL     1      -3.022  -0.607  24.266  0.00  0.00    +0.000 C 
ATOM     23  C   UNL     1      -3.600  -0.767  23.009  0.00  0.00    +0.000 C 
ATOM     24  C   UNL     1      -4.614   0.096  22.596  0.00  0.00    +0.000 C 
ATOM     25  C   UNL     1      -1.988  -1.491  24.689  0.00  0.00    +0.000 C 
ATOM     26  C   UNL     1      -0.957  -2.366  25.098  0.00  0.00    +0.000 C 
ATOM     27  S   UNL     1      -0.779  -3.002  26.689  0.00  0.00    +0.000 S 
ATOM     28  C   UNL     1       0.653  -3.908  26.239  0.00  0.00    +0.000 C 
ATOM     29  O   UNL     1       1.282  -4.622  27.002  0.00  0.00    +0.000 OA
ATOM     30  N   UNL     1       0.940  -3.695  24.930  0.00  0.00    +0.000 N 
ATOM     31  C   UNL     1       0.116  -2.875  24.218  0.00  0.00    +0.000 C 
ATOM     32  H   UNL     1       1.732  -4.143  24.497  0.00  0.00    +0.000 HD
ATOM     33  O   UNL     1       0.247  -2.610  23.036  0.00  0.00    +0.000 OA
ENDBRANCH  18  19
ENDBRANCH   1  18
TORSDOF 4
ENDMDL
MODEL 2
REMARK VINA RESULT:      -7.0      4.443      5.315
REMARK  Name = Troglitazone.pdbqt.pdb
REMARK  4 active torsions:
REMARK  status: ('A' for Active; 'I' for Inactive)
REMARK    1  A    between atoms: C_1  and  O_2
REMARK    2  A    between atoms: C_1  and  C_18
REMARK    3  A    between atoms: O_2  and  C_3
REMARK    4  A    between atoms: C_26  and  O_32
REMARK                            x       y       z     vdW  Elec       q    Type
REMARK                         _______ _______ _______ _____ _____    ______ ____
ROOT
ATOM      1  C   UNL     1      -5.173  -1.048  23.791  0.00  0.00    +0.000 C 
ENDROOT
BRANCH   1   2
ATOM      2  C   UNL     1      -6.622  -0.933  23.551  0.00  0.00    +0.000 C 
ATOM      3  O   UNL     1      -7.145  -2.301  23.396  0.00  0.00    +0.000 OA
ATOM      4  C   UNL     1      -8.211  -2.630  22.549  0.00  0.00    +0.000 A 
ATOM      5  C   UNL     1      -8.630  -1.827  21.447  0.00  0.00    +0.000 A 
ATOM      6  C   UNL     1      -8.855  -3.862  22.786  0.00  0.00    +0.000 A 
ATOM      7  C   UNL     1      -7.902  -0.618  21.293  0.00  0.00    +0.000 C 
ATOM      8  C   UNL     1      -9.684  -2.221  20.614  0.00  0.00    +0.000 A 
ATOM      9  C   UNL     1      -6.915  -0.196  22.329  0.00  0.00    +0.000 C 
ATOM     10  C   UNL     1     -10.329  -3.441  20.871  0.00  0.00    +0.000 A 
ATOM     11  C   UNL     1     -10.108  -1.350  19.451  0.00  0.00    +0.000 C 
ATOM     12  C   UNL     1      -9.920  -4.257  21.946  0.00  0.00    +0.000 A 
ATOM     13  C   UNL     1     -10.685  -5.570  22.118  0.00  0.00    +0.000 C 
ATOM     14  C   UNL     1      -8.368  -4.737  23.935  0.00  0.00    +0.000 C 
ATOM     15  C   UNL     1      -7.353  -0.310  24.767  0.00  0.00    +0.000 C 
BRANCH  10  16
ATOM     16  O   UNL     1     -11.373  -3.855  20.060  0.00  0.00    +0.000 OA
ATOM     17  H   UNL     1     -11.617  -3.110  19.469  0.00  0.00    +0.000 HD
ENDBRANCH  10  16
ENDBRANCH   1   2
BRANCH   1  18
ATOM     18  O   UNL     1      -3.863  -1.151  24.018  0.00  0.00    +0.000 OA
BRANCH  18  19
ATOM     19  C   UNL     1      -3.092  -0.232  23.350  0.00  0.00    +0.000 C 
ATOM     20  C   UNL     1      -2.230   0.676  23.969  0.00  0.00    +0.000 C 
ATOM     21  C   UNL     1      -1.482   1.568  23.204  0.00  0.00    +0.000 C 
ATOM     22  C   UNL     1      -1.594   1.552  21.817  0.00  0.00    +0.000 C 
ATOM     23  C   UNL     1      -2.452   0.649  21.193  0.00  0.00    +0.000 C 
ATOM     24  C   UNL     1      -3.199  -0.243  21.960  0.00  0.00    +0.000 C 
ATOM     25  C   UNL     1      -0.829   2.461  21.032  0.00  0.00    +0.000 C 
ATOM     26  C   UNL     1      -0.078   3.366  20.248  0.00  0.00    +0.000 C 
ATOM     27  S   UNL     1       1.555   3.818  20.557  0.00  0.00    +0.000 S 
ATOM     28  C   UNL     1       1.598   4.874  19.159  0.00  0.00    +0.000 C 
ATOM     29  O   UNL     1       2.572   5.522  18.818  0.00  0.00    +0.000 OA
ATOM     30  N   UNL     1       0.398   4.850  18.527  0.00  0.00    +0.000 N 
ATOM     31  C   UNL     1      -0.581   4.052  19.039  0.00  0.00    +0.000 C 
ATOM     32  H   UNL     1       0.242   5.397  17.695  0.00  0.00    +0.000 HD
ATOM     33  O   UNL     1      -1.697   3.924  18.565  0.00  0.00    +0.000 OA
ENDBRANCH  18  19
ENDBRANCH   1  18
TORSDOF 4
ENDMDL
MODEL 3
REMARK VINA RESULT:      -6.9     19.569     22.415
REMARK  Name = Troglitazone.pdbqt.pdb
REMARK  4 active torsions:
REMARK  status: ('A' for Active; 'I' for Inactive)
REMARK    1  A    between atoms: C_1  and  O_2
REMARK    2  A    between atoms: C_1  and  C_18
REMARK    3  A    between atoms: O_2  and  C_3
REMARK    4  A    between atoms: C_26  and  O_32
REMARK                            x       y       z     vdW  Elec       q    Type
REMARK                         _______ _______ _______ _____ _____    ______ ____
ROOT
ATOM      1  C   UNL     1      -9.610 -15.684   5.990  0.00  0.00    +0.000 C 
ENDROOT
BRANCH   1   2
ATOM      2  C   UNL     1      -9.978 -14.484   5.218  0.00  0.00    +0.000 C 
ATOM      3  O   UNL     1     -11.442 -14.502   5.060  0.00  0.00    +0.000 OA
ATOM      4  C   UNL     1     -12.104 -14.008   3.930  0.00  0.00    +0.000 A 
ATOM      5  C   UNL     1     -11.486 -13.836   2.656  0.00  0.00    +0.000 A 
ATOM      6  C   UNL     1     -13.479 -13.726   4.071  0.00  0.00    +0.000 A 
ATOM      7  C   UNL     1     -10.106 -14.166   2.626  0.00  0.00    +0.000 C 
ATOM      8  C   UNL     1     -12.206 -13.367   1.551  0.00  0.00    +0.000 A 
ATOM      9  C   UNL     1      -9.381 -14.489   3.889  0.00  0.00    +0.000 C 
ATOM     10  C   UNL     1     -13.570 -13.072   1.708  0.00  0.00    +0.000 A 
ATOM     11  C   UNL     1     -11.525 -13.194   0.210  0.00  0.00    +0.000 C 
ATOM     12  C   UNL     1     -14.204 -13.251   2.955  0.00  0.00    +0.000 A 
ATOM     13  C   UNL     1     -15.694 -12.913   3.002  0.00  0.00    +0.000 C 
ATOM     14  C   UNL     1     -14.143 -13.961   5.422  0.00  0.00    +0.000 C 
ATOM     15  C   UNL     1      -9.626 -13.184   5.983  0.00  0.00    +0.000 C 
BRANCH  10  16
ATOM     16  O   UNL     1     -14.306 -12.609   0.629  0.00  0.00    +0.000 OA
ATOM     17  H   UNL     1     -14.071 -13.149  -0.157  0.00  0.00    +0.000 HD
ENDBRANCH  10  16
ENDBRANCH   1   2
BRANCH   1  18
ATOM     18  O   UNL     1      -9.287 -16.775   6.686  0.00  0.00    +0.000 OA
BRANCH  18  19
ATOM     19  C   UNL     1     -10.017 -16.960   7.833  0.00  0.00    +0.000 C 
ATOM     20  C   UNL     1     -10.857 -18.051   8.068  0.00  0.00    +0.000 C 
ATOM     21  C   UNL     1     -11.553 -18.156   9.270  0.00  0.00    +0.000 C 
ATOM     22  C   UNL     1     -11.411 -17.167  10.240  0.00  0.00    +0.000 C 
ATOM     23  C   UNL     1     -10.576 -16.076  10.012  0.00  0.00    +0.000 C 
ATOM     24  C   UNL     1      -9.879 -15.974   8.810  0.00  0.00    +0.000 C 
ATOM     25  C   UNL     1     -12.121 -17.272  11.470  0.00  0.00    +0.000 C 
ATOM     26  C   UNL     1     -12.829 -17.366  12.689  0.00  0.00    +0.000 C 
ATOM     27  S   UNL     1     -13.081 -18.823  13.573  0.00  0.00    +0.000 S 
ATOM     28  C   UNL     1     -13.972 -17.986  14.829  0.00  0.00    +0.000 C 
ATOM     29  O   UNL     1     -14.441 -18.528  15.815  0.00  0.00    +0.000 OA
ATOM     30  N   UNL     1     -14.049 -16.664  14.536  0.00  0.00    +0.000 N 
ATOM     31  C   UNL     1     -13.450 -16.224  13.393  0.00  0.00    +0.000 C 
ATOM     32  H   UNL     1     -14.525 -16.025  15.154  0.00  0.00    +0.000 HD
ATOM     33  O   UNL     1     -13.429 -15.064  13.018  0.00  0.00    +0.000 OA
ENDBRANCH  18  19
ENDBRANCH   1  18
TORSDOF 4
ENDMDL
MODEL 4
REMARK VINA RESULT:      -6.7      4.709      5.943
REMARK  Name = Troglitazone.pdbqt.pdb
REMARK  4 active torsions:
REMARK  status: ('A' for Active; 'I' for Inactive)
REMARK    1  A    between atoms: C_1  and  O_2
REMARK    2  A    between atoms: C_1  and  C_18
REMARK    3  A    between atoms: O_2  and  C_3
REMARK    4  A    between atoms: C_26  and  O_32
REMARK                            x       y       z     vdW  Elec       q    Type
REMARK                         _______ _______ _______ _____ _____    ______ ____
ROOT
ATOM      1  C   UNL     1      -5.843  -1.461  23.259  0.00  0.00    +0.000 C 
ENDROOT
BRANCH   1   2
ATOM      2  C   UNL     1      -7.305  -1.581  23.135  0.00  0.00    +0.000 C 
ATOM      3  O   UNL     1      -7.703  -2.800  23.862  0.00  0.00    +0.000 OA
ATOM      4  C   UNL     1      -8.771  -3.618  23.473  0.00  0.00    +0.000 A 
ATOM      5  C   UNL     1      -9.316  -3.645  22.156  0.00  0.00    +0.000 A 
ATOM      6  C   UNL     1      -9.283  -4.501  24.448  0.00  0.00    +0.000 A 
ATOM      7  C   UNL     1      -8.715  -2.728  21.255  0.00  0.00    +0.000 C 
ATOM      8  C   UNL     1     -10.366  -4.507  21.816  0.00  0.00    +0.000 A 
ATOM      9  C   UNL     1      -7.725  -1.727  21.747  0.00  0.00    +0.000 C 
ATOM     10  C   UNL     1     -10.879  -5.368  22.798  0.00  0.00    +0.000 A 
ATOM     11  C   UNL     1     -10.926  -4.515  20.409  0.00  0.00    +0.000 C 
ATOM     12  C   UNL     1     -10.343  -5.368  24.104  0.00  0.00    +0.000 A 
ATOM     13  C   UNL     1     -10.971  -6.360  25.084  0.00  0.00    +0.000 C 
ATOM     14  C   UNL     1      -8.661  -4.500  25.838  0.00  0.00    +0.000 C 
ATOM     15  C   UNL     1      -8.034  -0.397  23.817  0.00  0.00    +0.000 C 
BRANCH  10  16
ATOM     16  O   UNL     1     -11.916  -6.233  22.488  0.00  0.00    +0.000 OA
ATOM     17  H   UNL     1     -11.539  -7.131  22.365  0.00  0.00    +0.000 HD
ENDBRANCH  10  16
ENDBRANCH   1   2
BRANCH   1  18
ATOM     18  O   UNL     1      -4.519  -1.354  23.381  0.00  0.00    +0.000 OA
BRANCH  18  19
ATOM     19  C   UNL     1      -3.971  -0.264  22.751  0.00  0.00    +0.000 C 
ATOM     20  C   UNL     1      -4.706   0.821  22.268  0.00  0.00    +0.000 C 
ATOM     21  C   UNL     1      -4.058   1.887  21.647  0.00  0.00    +0.000 C 
ATOM     22  C   UNL     1      -2.673   1.868  21.509  0.00  0.00    +0.000 C 
ATOM     23  C   UNL     1      -1.934   0.789  21.988  0.00  0.00    +0.000 C 
ATOM     24  C   UNL     1      -2.584  -0.276  22.610  0.00  0.00    +0.000 C 
ATOM     25  C   UNL     1      -2.009   2.958  20.876  0.00  0.00    +0.000 C 
ATOM     26  C   UNL     1      -1.344   4.031  20.242  0.00  0.00    +0.000 C 
ATOM     27  S   UNL     1      -1.749   5.694  20.436  0.00  0.00    +0.000 S 
ATOM     28  C   UNL     1      -0.465   6.203  19.357  0.00  0.00    +0.000 C 
ATOM     29  O   UNL     1      -0.223   7.364  19.078  0.00  0.00    +0.000 OA
ATOM     30  N   UNL     1       0.205   5.117  18.895  0.00  0.00    +0.000 N 
ATOM     31  C   UNL     1      -0.193   3.887  19.326  0.00  0.00    +0.000 C 
ATOM     32  H   UNL     1       0.983   5.222  18.263  0.00  0.00    +0.000 HD
ATOM     33  O   UNL     1       0.328   2.832  19.004  0.00  0.00    +0.000 OA
ENDBRANCH  18  19
ENDBRANCH   1  18
TORSDOF 4
ENDMDL
MODEL 5
REMARK VINA RESULT:      -6.7      4.425      8.746
REMARK  Name = Troglitazone.pdbqt.pdb
REMARK  4 active torsions:
REMARK  status: ('A' for Active; 'I' for Inactive)
REMARK    1  A    between atoms: C_1  and  O_2
REMARK    2  A    between atoms: C_1  and  C_18
REMARK    3  A    between atoms: O_2  and  C_3
REMARK    4  A    between atoms: C_26  and  O_32
REMARK                            x       y       z     vdW  Elec       q    Type
REMARK                         _______ _______ _______ _____ _____    ______ ____
ROOT
ATOM      1  C   UNL     1      -7.658  -0.359  24.434  0.00  0.00    +0.000 C 
ENDROOT
BRANCH   1   2
ATOM      2  C   UNL     1      -6.364   0.334  24.558  0.00  0.00    +0.000 C 
ATOM      3  O   UNL     1      -6.097   0.988  23.266  0.00  0.00    +0.000 OA
ATOM      4  C   UNL     1      -4.812   1.151  22.733  0.00  0.00    +0.000 A 
ATOM      5  C   UNL     1      -3.685   0.366  23.116  0.00  0.00    +0.000 A 
ATOM      6  C   UNL     1      -4.664   2.117  21.716  0.00  0.00    +0.000 A 
ATOM      7  C   UNL     1      -3.953  -0.585  24.135  0.00  0.00    +0.000 C 
ATOM      8  C   UNL     1      -2.429   0.552  22.526  0.00  0.00    +0.000 A 
ATOM      9  C   UNL     1      -5.274  -0.595  24.828  0.00  0.00    +0.000 C 
ATOM     10  C   UNL     1      -2.289   1.529  21.528  0.00  0.00    +0.000 A 
ATOM     11  C   UNL     1      -1.249  -0.295  22.952  0.00  0.00    +0.000 C 
ATOM     12  C   UNL     1      -3.395   2.306  21.123  0.00  0.00    +0.000 A 
ATOM     13  C   UNL     1      -3.127   3.326  20.017  0.00  0.00    +0.000 C 
ATOM     14  C   UNL     1      -5.885   2.916  21.278  0.00  0.00    +0.000 C 
ATOM     15  C   UNL     1      -6.418   1.455  25.625  0.00  0.00    +0.000 C 
BRANCH  10  16
ATOM     16  O   UNL     1      -1.058   1.732  20.926  0.00  0.00    +0.000 OA
ATOM     17  H   UNL     1      -1.109   1.398  20.004  0.00  0.00    +0.000 HD
ENDBRANCH  10  16
ENDBRANCH   1   2
BRANCH   1  18
ATOM     18  O   UNL     1      -8.830  -0.985  24.310  0.00  0.00    +0.000 OA
BRANCH  18  19
ATOM     19  C   UNL     1      -8.978  -1.698  23.146  0.00  0.00    +0.000 C 
ATOM     20  C   UNL     1     -10.186  -1.853  22.463  0.00  0.00    +0.000 C 
ATOM     21  C   UNL     1     -10.235  -2.591  21.282  0.00  0.00    +0.000 C 
ATOM     22  C   UNL     1      -9.075  -3.176  20.784  0.00  0.00    +0.000 C 
ATOM     23  C   UNL     1      -7.866  -3.026  21.461  0.00  0.00    +0.000 C 
ATOM     24  C   UNL     1      -7.819  -2.286  22.641  0.00  0.00    +0.000 C 
ATOM     25  C   UNL     1      -9.122  -3.930  19.576  0.00  0.00    +0.000 C 
ATOM     26  C   UNL     1      -9.164  -4.686  18.383  0.00  0.00    +0.000 C 
ATOM     27  S   UNL     1     -10.090  -4.278  16.990  0.00  0.00    +0.000 S 
ATOM     28  C   UNL     1      -9.523  -5.688  16.117  0.00  0.00    +0.000 C 
ATOM     29  O   UNL     1      -9.849  -5.966  14.975  0.00  0.00    +0.000 OA
ATOM     30  N   UNL     1      -8.676  -6.403  16.898  0.00  0.00    +0.000 N 
ATOM     31  C   UNL     1      -8.409  -5.935  18.151  0.00  0.00    +0.000 C 
ATOM     32  H   UNL     1      -8.247  -7.249  16.555  0.00  0.00    +0.000 HD
ATOM     33  O   UNL     1      -7.657  -6.468  18.950  0.00  0.00    +0.000 OA
ENDBRANCH  18  19
ENDBRANCH   1  18
TORSDOF 4
ENDMDL
MODEL 6
REMARK VINA RESULT:      -6.7     19.336     21.918
REMARK  Name = Troglitazone.pdbqt.pdb
REMARK  4 active torsions:
REMARK  status: ('A' for Active; 'I' for Inactive)
REMARK    1  A    between atoms: C_1  and  O_2
REMARK    2  A    between atoms: C_1  and  C_18
REMARK    3  A    between atoms: O_2  and  C_3
REMARK    4  A    between atoms: C_26  and  O_32
REMARK                            x       y       z     vdW  Elec       q    Type
REMARK                         _______ _______ _______ _____ _____    ______ ____
ROOT
ATOM      1  C   UNL     1     -21.191  -5.878  10.035  0.00  0.00    +0.000 C 
ENDROOT
BRANCH   1   2
ATOM      2  C   UNL     1     -20.894  -5.231   8.746  0.00  0.00    +0.000 C 
ATOM      3  O   UNL     1     -21.570  -3.922   8.751  0.00  0.00    +0.000 OA
ATOM      4  C   UNL     1     -22.103  -3.322   7.604  0.00  0.00    +0.000 A 
ATOM      5  C   UNL     1     -22.449  -4.037   6.419  0.00  0.00    +0.000 A 
ATOM      6  C   UNL     1     -22.358  -1.936   7.671  0.00  0.00    +0.000 A 
ATOM      7  C   UNL     1     -22.165  -5.426   6.469  0.00  0.00    +0.000 C 
ATOM      8  C   UNL     1     -23.010  -3.388   5.312  0.00  0.00    +0.000 A 
ATOM      9  C   UNL     1     -21.409  -6.000   7.620  0.00  0.00    +0.000 C 
ATOM     10  C   UNL     1     -23.242  -2.006   5.383  0.00  0.00    +0.000 A 
ATOM     11  C   UNL     1     -23.368  -4.171   4.066  0.00  0.00    +0.000 C 
ATOM     12  C   UNL     1     -22.921  -1.284   6.552  0.00  0.00    +0.000 A 
ATOM     13  C   UNL     1     -23.233   0.212   6.520  0.00  0.00    +0.000 C 
ATOM     14  C   UNL     1     -22.032  -1.191   8.959  0.00  0.00    +0.000 C 
ATOM     15  C   UNL     1     -19.379  -4.951   8.584  0.00  0.00    +0.000 C 
BRANCH  10  16
ATOM     16  O   UNL     1     -23.797  -1.341   4.302  0.00  0.00    +0.000 OA
ATOM     17  H   UNL     1     -24.514  -0.759   4.636  0.00  0.00    +0.000 HD
ENDBRANCH  10  16
ENDBRANCH   1   2
BRANCH   1  18
ATOM     18  O   UNL     1     -21.464  -6.454  11.207  0.00  0.00    +0.000 OA
BRANCH  18  19
ATOM     19  C   UNL     1     -22.087  -5.636  12.116  0.00  0.00    +0.000 C 
ATOM     20  C   UNL     1     -22.961  -4.601  11.779  0.00  0.00    +0.000 C 
ATOM     21  C   UNL     1     -23.552  -3.828  12.776  0.00  0.00    +0.000 C 
ATOM     22  C   UNL     1     -23.267  -4.088  14.114  0.00  0.00    +0.000 C 
ATOM     23  C   UNL     1     -22.395  -5.119  14.457  0.00  0.00    +0.000 C 
ATOM     24  C   UNL     1     -21.807  -5.893  13.458  0.00  0.00    +0.000 C 
ATOM     25  C   UNL     1     -23.870  -3.300  15.135  0.00  0.00    +0.000 C 
ATOM     26  C   UNL     1     -24.459  -2.517  16.153  0.00  0.00    +0.000 C 
ATOM     27  S   UNL     1     -26.087  -1.954  16.146  0.00  0.00    +0.000 S 
ATOM     28  C   UNL     1     -25.889  -1.157  17.694  0.00  0.00    +0.000 C 
ATOM     29  O   UNL     1     -26.771  -0.540  18.267  0.00  0.00    +0.000 OA
ATOM     30  N   UNL     1     -24.623  -1.337  18.146  0.00  0.00    +0.000 N 
ATOM     31  C   UNL     1     -23.767  -2.072  17.381  0.00  0.00    +0.000 C 
ATOM     32  H   UNL     1     -24.330  -0.950  19.029  0.00  0.00    +0.000 HD
ATOM     33  O   UNL     1     -22.610  -2.324  17.672  0.00  0.00    +0.000 OA
ENDBRANCH  18  19
ENDBRANCH   1  18
TORSDOF 4
ENDMDL
MODEL 7
REMARK VINA RESULT:      -6.5     20.201     22.000
REMARK  Name = Troglitazone.pdbqt.pdb
REMARK  4 active torsions:
REMARK  status: ('A' for Active; 'I' for Inactive)
REMARK    1  A    between atoms: C_1  and  O_2
REMARK    2  A    between atoms: C_1  and  C_18
REMARK    3  A    between atoms: O_2  and  C_3
REMARK    4  A    between atoms: C_26  and  O_32
REMARK                            x       y       z     vdW  Elec       q    Type
REMARK                         _______ _______ _______ _____ _____    ______ ____
ROOT
ATOM      1  C   UNL     1     -21.892  -5.918   9.814  0.00  0.00    +0.000 C 
ENDROOT
BRANCH   1   2
ATOM      2  C   UNL     1     -21.319  -4.903   8.914  0.00  0.00    +0.000 C 
ATOM      3  O   UNL     1     -21.763  -3.588   9.405  0.00  0.00    +0.000 OA
ATOM      4  C   UNL     1     -22.028  -2.498   8.566  0.00  0.00    +0.000 A 
ATOM      5  C   UNL     1     -22.324  -2.616   7.176  0.00  0.00    +0.000 A 
ATOM      6  C   UNL     1     -22.057  -1.223   9.170  0.00  0.00    +0.000 A 
ATOM      7  C   UNL     1     -22.283  -3.945   6.680  0.00  0.00    +0.000 C 
ATOM      8  C   UNL     1     -22.613  -1.493   6.392  0.00  0.00    +0.000 A 
ATOM      9  C   UNL     1     -21.796  -5.058   7.545  0.00  0.00    +0.000 C 
ATOM     10  C   UNL     1     -22.620  -0.227   6.999  0.00  0.00    +0.000 A 
ATOM     11  C   UNL     1     -22.923  -1.646   4.918  0.00  0.00    +0.000 C 
ATOM     12  C   UNL     1     -22.346  -0.091   8.377  0.00  0.00    +0.000 A 
ATOM     13  C   UNL     1     -22.399   1.333   8.931  0.00  0.00    +0.000 C 
ATOM     14  C   UNL     1     -21.790  -1.112  10.666  0.00  0.00    +0.000 C 
ATOM     15  C   UNL     1     -19.771  -4.902   8.968  0.00  0.00    +0.000 C 
BRANCH  10  16
ATOM     16  O   UNL     1     -22.905   0.900   6.246  0.00  0.00    +0.000 OA
ATOM     17  H   UNL     1     -23.376   0.614   5.433  0.00  0.00    +0.000 HD
ENDBRANCH  10  16
ENDBRANCH   1   2
BRANCH   1  18
ATOM     18  O   UNL     1     -22.403  -6.844  10.627  0.00  0.00    +0.000 OA
BRANCH  18  19
ATOM     19  C   UNL     1     -22.849  -6.365  11.833  0.00  0.00    +0.000 C 
ATOM     20  C   UNL     1     -22.021  -6.042  12.910  0.00  0.00    +0.000 C 
ATOM     21  C   UNL     1     -22.568  -5.555  14.095  0.00  0.00    +0.000 C 
ATOM     22  C   UNL     1     -23.946  -5.389  14.204  0.00  0.00    +0.000 C 
ATOM     23  C   UNL     1     -24.778  -5.710  13.134  0.00  0.00    +0.000 C 
ATOM     24  C   UNL     1     -24.228  -6.196  11.949  0.00  0.00    +0.000 C 
ATOM     25  C   UNL     1     -24.507  -4.890  15.414  0.00  0.00    +0.000 C 
ATOM     26  C   UNL     1     -25.071  -4.402  16.614  0.00  0.00    +0.000 C 
ATOM     27  S   UNL     1     -24.395  -3.149  17.583  0.00  0.00    +0.000 S 
ATOM     28  C   UNL     1     -25.707  -3.244  18.741  0.00  0.00    +0.000 C 
ATOM     29  O   UNL     1     -25.800  -2.539  19.732  0.00  0.00    +0.000 OA
ATOM     30  N   UNL     1     -26.587  -4.204  18.363  0.00  0.00    +0.000 N 
ATOM     31  C   UNL     1     -26.333  -4.888  17.211  0.00  0.00    +0.000 C 
ATOM     32  H   UNL     1     -27.410  -4.395  18.912  0.00  0.00    +0.000 HD
ATOM     33  O   UNL     1     -27.044  -5.763  16.747  0.00  0.00    +0.000 OA
ENDBRANCH  18  19
ENDBRANCH   1  18
TORSDOF 4
ENDMDL
MODEL 8
REMARK VINA RESULT:      -6.4      5.939      9.459
REMARK  Name = Troglitazone.pdbqt.pdb
REMARK  4 active torsions:
REMARK  status: ('A' for Active; 'I' for Inactive)
REMARK    1  A    between atoms: C_1  and  O_2
REMARK    2  A    between atoms: C_1  and  C_18
REMARK    3  A    between atoms: O_2  and  C_3
REMARK    4  A    between atoms: C_26  and  O_32
REMARK                            x       y       z     vdW  Elec       q    Type
REMARK                         _______ _______ _______ _____ _____    ______ ____
ROOT
ATOM      1  C   UNL     1      -7.802  -1.216  24.449  0.00  0.00    +0.000 C 
ENDROOT
BRANCH   1   2
ATOM      2  C   UNL     1      -7.409  -1.713  23.119  0.00  0.00    +0.000 C 
ATOM      3  O   UNL     1      -8.460  -1.297  22.173  0.00  0.00    +0.000 OA
ATOM      4  C   UNL     1      -8.840  -2.055  21.059  0.00  0.00    +0.000 A 
ATOM      5  C   UNL     1      -8.603  -3.455  20.928  0.00  0.00    +0.000 A 
ATOM      6  C   UNL     1      -9.551  -1.380  20.044  0.00  0.00    +0.000 A 
ATOM      7  C   UNL     1      -7.895  -4.032  22.014  0.00  0.00    +0.000 C 
ATOM      8  C   UNL     1      -9.035  -4.168  19.803  0.00  0.00    +0.000 A 
ATOM      9  C   UNL     1      -7.322  -3.167  23.086  0.00  0.00    +0.000 C 
ATOM     10  C   UNL     1      -9.725  -3.483  18.791  0.00  0.00    +0.000 A 
ATOM     11  C   UNL     1      -8.769  -5.654  19.690  0.00  0.00    +0.000 C 
ATOM     12  C   UNL     1      -9.984  -2.101  18.909  0.00  0.00    +0.000 A 
ATOM     13  C   UNL     1     -10.757  -1.465  17.754  0.00  0.00    +0.000 C 
ATOM     14  C   UNL     1      -9.844   0.105  20.216  0.00  0.00    +0.000 C 
ATOM     15  C   UNL     1      -6.090  -1.063  22.635  0.00  0.00    +0.000 C 
BRANCH  10  16
ATOM     16  O   UNL     1     -10.165  -4.165  17.669  0.00  0.00    +0.000 OA
ATOM     17  H   UNL     1      -9.379  -4.522  17.200  0.00  0.00    +0.000 HD
ENDBRANCH  10  16
ENDBRANCH   1   2
BRANCH   1  18
ATOM     18  O   UNL     1      -8.169  -0.767  25.650  0.00  0.00    +0.000 OA
BRANCH  18  19
ATOM     19  C   UNL     1      -9.526  -0.707  25.850  0.00  0.00    +0.000 C 
ATOM     20  C   UNL     1     -10.202  -1.350  26.889  0.00  0.00    +0.000 C 
ATOM     21  C   UNL     1     -11.583  -1.222  27.013  0.00  0.00    +0.000 C 
ATOM     22  C   UNL     1     -12.292  -0.450  26.096  0.00  0.00    +0.000 C 
ATOM     23  C   UNL     1     -11.624   0.194  25.057  0.00  0.00    +0.000 C 
ATOM     24  C   UNL     1     -10.242   0.066  24.935  0.00  0.00    +0.000 C 
ATOM     25  C   UNL     1     -13.704  -0.317  26.221  0.00  0.00    +0.000 C 
ATOM     26  C   UNL     1     -15.107  -0.188  26.335  0.00  0.00    +0.000 C 
ATOM     27  S   UNL     1     -15.963  -0.013  27.819  0.00  0.00    +0.000 S 
ATOM     28  C   UNL     1     -17.507   0.078  26.996  0.00  0.00    +0.000 C 
ATOM     29  O   UNL     1     -18.579   0.222  27.560  0.00  0.00    +0.000 OA
ATOM     30  N   UNL     1     -17.322  -0.031  25.656  0.00  0.00    +0.000 N 
ATOM     31  C   UNL     1     -16.047  -0.172  25.195  0.00  0.00    +0.000 C 
ATOM     32  H   UNL     1     -18.105   0.004  25.023  0.00  0.00    +0.000 HD
ATOM     33  O   UNL     1     -15.736  -0.266  24.020  0.00  0.00    +0.000 OA
ENDBRANCH  18  19
ENDBRANCH   1  18
TORSDOF 4
ENDMDL
MODEL 9
REMARK VINA RESULT:      -6.4      5.841      6.839
REMARK  Name = Troglitazone.pdbqt.pdb
REMARK  4 active torsions:
REMARK  status: ('A' for Active; 'I' for Inactive)
REMARK    1  A    between atoms: C_1  and  O_2
REMARK    2  A    between atoms: C_1  and  C_18
REMARK    3  A    between atoms: O_2  and  C_3
REMARK    4  A    between atoms: C_26  and  O_32
REMARK                            x       y       z     vdW  Elec       q    Type
REMARK                         _______ _______ _______ _____ _____    ______ ____
ROOT
ATOM      1  C   UNL     1     -10.602   1.666  22.184  0.00  0.00    +0.000 C 
ENDROOT
BRANCH   1   2
ATOM      2  C   UNL     1     -10.601   0.419  22.968  0.00  0.00    +0.000 C 
ATOM      3  O   UNL     1     -10.181  -0.662  22.060  0.00  0.00    +0.000 OA
ATOM      4  C   UNL     1     -10.657  -1.976  22.152  0.00  0.00    +0.000 A 
ATOM      5  C   UNL     1     -11.873  -2.340  22.803  0.00  0.00    +0.000 A 
ATOM      6  C   UNL     1      -9.900  -2.973  21.501  0.00  0.00    +0.000 A 
ATOM      7  C   UNL     1     -12.560  -1.256  23.408  0.00  0.00    +0.000 C 
ATOM      8  C   UNL     1     -12.316  -3.668  22.835  0.00  0.00    +0.000 A 
ATOM      9  C   UNL     1     -11.928   0.094  23.475  0.00  0.00    +0.000 C 
ATOM     10  C   UNL     1     -11.545  -4.654  22.201  0.00  0.00    +0.000 A 
ATOM     11  C   UNL     1     -13.610  -4.026  23.534  0.00  0.00    +0.000 C 
ATOM     12  C   UNL     1     -10.348  -4.313  21.537  0.00  0.00    +0.000 A 
ATOM     13  C   UNL     1      -9.602  -5.467  20.868  0.00  0.00    +0.000 C 
ATOM     14  C   UNL     1      -8.630  -2.568  20.764  0.00  0.00    +0.000 C 
ATOM     15  C   UNL     1      -9.562   0.468  24.116  0.00  0.00    +0.000 C 
BRANCH  10  16
ATOM     16  O   UNL     1     -11.963  -5.975  22.216  0.00  0.00    +0.000 OA
ATOM     17  H   UNL     1     -12.893  -5.999  22.530  0.00  0.00    +0.000 HD
ENDBRANCH  10  16
ENDBRANCH   1   2
BRANCH   1  18
ATOM     18  O   UNL     1     -10.614   2.797  21.477  0.00  0.00    +0.000 OA
BRANCH  18  19
ATOM     19  C   UNL     1      -9.424   3.101  20.863  0.00  0.00    +0.000 C 
ATOM     20  C   UNL     1      -9.295   3.440  19.514  0.00  0.00    +0.000 C 
ATOM     21  C   UNL     1      -8.043   3.740  18.983  0.00  0.00    +0.000 C 
ATOM     22  C   UNL     1      -6.917   3.701  19.800  0.00  0.00    +0.000 C 
ATOM     23  C   UNL     1      -7.039   3.364  21.146  0.00  0.00    +0.000 C 
ATOM     24  C   UNL     1      -8.292   3.066  21.677  0.00  0.00    +0.000 C 
ATOM     25  C   UNL     1      -5.636   4.009  19.259  0.00  0.00    +0.000 C 
ATOM     26  C   UNL     1      -4.361   4.305  18.727  0.00  0.00    +0.000 C 
ATOM     27  S   UNL     1      -4.036   5.550  17.581  0.00  0.00    +0.000 S 
ATOM     28  C   UNL     1      -2.325   5.172  17.554  0.00  0.00    +0.000 C 
ATOM     29  O   UNL     1      -1.501   5.765  16.880  0.00  0.00    +0.000 OA
ATOM     30  N   UNL     1      -2.069   4.135  18.391  0.00  0.00    +0.000 N 
ATOM     31  C   UNL     1      -3.113   3.598  19.084  0.00  0.00    +0.000 C 
ATOM     32  H   UNL     1      -1.132   3.784  18.506  0.00  0.00    +0.000 HD
ATOM     33  O   UNL     1      -3.024   2.676  19.878  0.00  0.00    +0.000 OA
ENDBRANCH  18  19
ENDBRANCH   1  18
TORSDOF 4
ENDMDL
