MODEL 1
REMARK VINA RESULT:      -6.6      0.000      0.000
REMARK  Name = 
REMARK  19 active torsions:
REMARK  status: ('A' for Active; 'I' for Inactive)
REMARK    1  A    between atoms: O_1  and  C_20
REMARK    2  A    between atoms: O_1  and  C_36
REMARK    3  A    between atoms: O_2  and  C_18
REMARK    4  A    between atoms: O_3  and  C_28
REMARK    5  A    between atoms: O_3  and  C_42
REMARK    6  A    between atoms: O_5  and  C_34
REMARK    7  A    between atoms: O_5  and  C_50
REMARK    8  A    between atoms: O_7  and  C_40
REMARK    9  A    between atoms: O_7  and  C_56
REMARK   10  A    between atoms: O_9  and  C_46
REMARK   11  A    between atoms: N_11  and  C_30
REMARK   12  A    between atoms: C_17  and  C_23
REMARK   13  A    between atoms: C_18  and  C_28
REMARK   14  A    between atoms: C_23  and  C_32
REMARK   15  A    between atoms: C_33  and  C_35
REMARK   16  A    between atoms: C_35  and  C_40
REMARK   17  A    between atoms: C_36  and  C_41
REMARK   18  A    between atoms: C_46  and  C_53
REMARK   19  A    between atoms: C_53  and  C_57
REMARK                            x       y       z     vdW  Elec       q    Type
REMARK                         _______ _______ _______ _____ _____    ______ ____
ROOT
ATOM      1  N   UNL     1      -4.455   3.080  20.729  0.00  0.00    +0.000 NA
ATOM      2  N   UNL     1      -8.835   4.967  20.549  0.00  0.00    +0.000 N 
ATOM      3  C   UNL     1      -6.588   4.014  20.605  0.00  0.00    +0.000 C 
ATOM      4  C   UNL     1      -5.437   3.511  19.716  0.00  0.00    +0.000 C 
ATOM      5  C   UNL     1      -7.551   4.900  19.791  0.00  0.00    +0.000 C 
ATOM      6  C   UNL     1      -4.948   4.580  18.632  0.00  0.00    +0.000 C 
ATOM      7  C   UNL     1      -6.956   6.205  19.236  0.00  0.00    +0.000 C 
ATOM      8  C   UNL     1      -5.903   4.572  21.868  0.00  0.00    +0.000 C 
ATOM      9  C   UNL     1      -5.423   6.065  18.956  0.00  0.00    +0.000 C 
ATOM     10  C   UNL     1      -7.627   3.018  21.081  0.00  0.00    +0.000 A 
ATOM     11  C   UNL     1      -4.470   4.047  21.819  0.00  0.00    +0.000 C 
ATOM     12  C   UNL     1      -8.882   3.642  21.082  0.00  0.00    +0.000 A 
ATOM     13  C   UNL     1      -3.422   4.598  18.510  0.00  0.00    +0.000 C 
ATOM     14  C   UNL     1      -3.127   2.791  20.208  0.00  0.00    +0.000 C 
ATOM     15  C   UNL     1      -2.622   3.783  19.211  0.00  0.00    +0.000 C 
ATOM     16  C   UNL     1      -7.453   1.710  21.521  0.00  0.00    +0.000 A 
ATOM     17  C   UNL     1     -10.033   5.369  19.815  0.00  0.00    +0.000 C 
ATOM     18  C   UNL     1      -9.981   2.961  21.570  0.00  0.00    +0.000 A 
ATOM     19  C   UNL     1      -8.555   0.987  22.020  0.00  0.00    +0.000 A 
ATOM     20  C   UNL     1      -9.818   1.649  22.043  0.00  0.00    +0.000 A 
ENDROOT
BRANCH  19  23
ATOM     21  N   UNL     1      -8.539  -4.376  24.430  0.00  0.00    +0.000 NA
ATOM     22  N   UNL     1      -9.563  -1.143  20.394  0.00  0.00    +0.000 N 
ATOM     23  C   UNL     1      -8.410  -0.492  22.558  0.00  0.00    +0.000 C 
ATOM     24  C   UNL     1      -9.433  -0.779  23.751  0.00  0.00    +0.000 C 
ATOM     25  C   UNL     1      -8.724  -1.529  21.426  0.00  0.00    +0.000 A 
ATOM     26  C   UNL     1      -9.655  -2.251  24.137  0.00  0.00    +0.000 C 
ATOM     27  C   UNL     1     -10.754  -2.485  25.172  0.00  0.00    +0.000 C 
ATOM     28  C   UNL     1      -8.412  -2.949  24.670  0.00  0.00    +0.000 C 
ATOM     29  C   UNL     1      -8.432  -2.887  21.203  0.00  0.00    +0.000 A 
ATOM     30  C   UNL     1     -10.940  -4.001  25.480  0.00  0.00    +0.000 C 
ATOM     31  C   UNL     1      -9.707  -4.936  25.144  0.00  0.00    +0.000 C 
ATOM     32  C   UNL     1      -7.638  -3.891  22.023  0.00  0.00    +0.000 C 
ATOM     33  C   UNL     1      -8.507  -4.749  22.992  0.00  0.00    +0.000 C 
ATOM     34  C   UNL     1      -9.091  -3.262  19.973  0.00  0.00    +0.000 A 
ATOM     35  C   UNL     1      -9.779  -2.155  19.501  0.00  0.00    +0.000 A 
ATOM     36  C   UNL     1      -9.172  -4.461  19.229  0.00  0.00    +0.000 A 
ATOM     37  C   UNL     1     -10.539  -2.168  18.324  0.00  0.00    +0.000 A 
ATOM     38  C   UNL     1      -9.924  -4.496  18.049  0.00  0.00    +0.000 A 
ATOM     39  C   UNL     1     -10.598  -3.364  17.605  0.00  0.00    +0.000 A 
ATOM     40  H   UNL     1      -9.957  -0.217  20.291  0.00  0.00    +0.000 HD
BRANCH  23  42
ATOM     41  O   UNL     1      -5.973  -1.065  22.468  0.00  0.00    +0.000 OA
ATOM     42  C   UNL     1      -6.935  -0.598  23.067  0.00  0.00    +0.000 C 
BRANCH  42  43
ATOM     43  O   UNL     1      -6.832  -0.048  24.323  0.00  0.00    +0.000 OA
ATOM     44  C   UNL     1      -5.608   0.648  24.552  0.00  0.00    +0.000 C 
ENDBRANCH  42  43
ENDBRANCH  23  42
BRANCH  30  45
ATOM     45  O   UNL     1     -11.158  -4.076  26.911  0.00  0.00    +0.000 OA
ATOM     46  H   UNL     1     -12.071  -4.382  27.051  0.00  0.00    +0.000 HD
ENDBRANCH  30  45
BRANCH  30  47
ATOM     47  C   UNL     1     -12.257  -4.545  24.877  0.00  0.00    +0.000 C 
ATOM     48  C   UNL     1     -12.224  -4.924  23.407  0.00  0.00    +0.000 C 
ENDBRANCH  30  47
ENDBRANCH  19  23
BRANCH   7  49
ATOM     49  O   UNL     1      -7.588   6.397  17.929  0.00  0.00    +0.000 OA
ATOM     50  H   UNL     1      -7.239   7.244  17.582  0.00  0.00    +0.000 HD
ENDBRANCH   7  49
BRANCH   7  52
ATOM     51  O   UNL     1      -7.334   7.459  21.345  0.00  0.00    +0.000 OA
ATOM     52  C   UNL     1      -7.287   7.431  20.123  0.00  0.00    +0.000 C 
BRANCH  52  53
ATOM     53  O   UNL     1      -7.449   8.543  19.332  0.00  0.00    +0.000 OA
ATOM     54  C   UNL     1      -7.179   9.776  20.002  0.00  0.00    +0.000 C 
ENDBRANCH  52  53
ENDBRANCH   7  52
BRANCH  20  55
ATOM     55  O   UNL     1     -10.896   0.927  22.492  0.00  0.00    +0.000 OA
ATOM     56  C   UNL     1     -11.712   1.590  23.453  0.00  0.00    +0.000 C 
ENDBRANCH  20  55
BRANCH   6  57
ATOM     57  C   UNL     1      -5.494   4.180  17.212  0.00  0.00    +0.000 C 
ATOM     58  C   UNL     1      -4.972   4.994  16.026  0.00  0.00    +0.000 C 
ENDBRANCH   6  57
BRANCH   9  59
ATOM     59  O   UNL     1      -4.622   6.567  20.052  0.00  0.00    +0.000 OA
BRANCH  59  61
ATOM     60  O   UNL     1      -4.008   8.470  18.934  0.00  0.00    +0.000 OA
ATOM     61  C   UNL     1      -3.804   7.622  19.791  0.00  0.00    +0.000 C 
ATOM     62  C   UNL     1      -2.637   7.615  20.729  0.00  0.00    +0.000 C 
ENDBRANCH  59  61
ENDBRANCH   9  59
TORSDOF 12
ENDMDL
MODEL 2
REMARK VINA RESULT:      -6.6      1.602      1.924
REMARK  Name = 
REMARK  19 active torsions:
REMARK  status: ('A' for Active; 'I' for Inactive)
REMARK    1  A    between atoms: O_1  and  C_20
REMARK    2  A    between atoms: O_1  and  C_36
REMARK    3  A    between atoms: O_2  and  C_18
REMARK    4  A    between atoms: O_3  and  C_28
REMARK    5  A    between atoms: O_3  and  C_42
REMARK    6  A    between atoms: O_5  and  C_34
REMARK    7  A    between atoms: O_5  and  C_50
REMARK    8  A    between atoms: O_7  and  C_40
REMARK    9  A    between atoms: O_7  and  C_56
REMARK   10  A    between atoms: O_9  and  C_46
REMARK   11  A    between atoms: N_11  and  C_30
REMARK   12  A    between atoms: C_17  and  C_23
REMARK   13  A    between atoms: C_18  and  C_28
REMARK   14  A    between atoms: C_23  and  C_32
REMARK   15  A    between atoms: C_33  and  C_35
REMARK   16  A    between atoms: C_35  and  C_40
REMARK   17  A    between atoms: C_36  and  C_41
REMARK   18  A    between atoms: C_46  and  C_53
REMARK   19  A    between atoms: C_53  and  C_57
REMARK                            x       y       z     vdW  Elec       q    Type
REMARK                         _______ _______ _______ _____ _____    ______ ____
ROOT
ATOM      1  N   UNL     1      -3.352   1.754  21.305  0.00  0.00    +0.000 NA
ATOM      2  N   UNL     1      -6.913   4.790  22.243  0.00  0.00    +0.000 N 
ATOM      3  C   UNL     1      -5.085   3.256  21.730  0.00  0.00    +0.000 C 
ATOM      4  C   UNL     1      -4.250   2.671  20.577  0.00  0.00    +0.000 C 
ATOM      5  C   UNL     1      -5.802   4.543  21.278  0.00  0.00    +0.000 C 
ATOM      6  C   UNL     1      -3.568   3.780  19.650  0.00  0.00    +0.000 C 
ATOM      7  C   UNL     1      -4.890   5.719  20.889  0.00  0.00    +0.000 C 
ATOM      8  C   UNL     1      -4.131   3.285  22.940  0.00  0.00    +0.000 C 
ATOM      9  C   UNL     1      -3.517   5.220  20.329  0.00  0.00    +0.000 C 
ATOM     10  C   UNL     1      -6.328   2.512  22.177  0.00  0.00    +0.000 A 
ATOM     11  C   UNL     1      -2.949   2.403  22.547  0.00  0.00    +0.000 C 
ATOM     12  C   UNL     1      -7.317   3.446  22.513  0.00  0.00    +0.000 A 
ATOM     13  C   UNL     1      -2.135   3.395  19.275  0.00  0.00    +0.000 C 
ATOM     14  C   UNL     1      -2.245   1.232  20.519  0.00  0.00    +0.000 C 
ATOM     15  C   UNL     1      -1.562   2.246  19.660  0.00  0.00    +0.000 C 
ATOM     16  C   UNL     1      -6.528   1.143  22.322  0.00  0.00    +0.000 A 
ATOM     17  C   UNL     1      -7.995   5.676  21.816  0.00  0.00    +0.000 C 
ATOM     18  C   UNL     1      -8.516   3.010  23.042  0.00  0.00    +0.000 A 
ATOM     19  C   UNL     1      -7.742   0.665  22.854  0.00  0.00    +0.000 A 
ATOM     20  C   UNL     1      -8.725   1.632  23.220  0.00  0.00    +0.000 A 
ENDROOT
BRANCH  19  23
ATOM     21  N   UNL     1      -9.222  -4.889  24.092  0.00  0.00    +0.000 NA
ATOM     22  N   UNL     1      -9.258  -0.723  20.862  0.00  0.00    +0.000 N 
ATOM     23  C   UNL     1      -8.013  -0.878  23.066  0.00  0.00    +0.000 C 
ATOM     24  C   UNL     1      -9.097  -1.125  24.213  0.00  0.00    +0.000 C 
ATOM     25  C   UNL     1      -8.575  -1.529  21.757  0.00  0.00    +0.000 A 
ATOM     26  C   UNL     1      -9.716  -2.531  24.293  0.00  0.00    +0.000 C 
ATOM     27  C   UNL     1     -10.856  -2.674  25.300  0.00  0.00    +0.000 C 
ATOM     28  C   UNL     1      -8.718  -3.633  24.619  0.00  0.00    +0.000 C 
ATOM     29  C   UNL     1      -8.657  -2.837  21.244  0.00  0.00    +0.000 A 
ATOM     30  C   UNL     1     -11.451  -4.114  25.292  0.00  0.00    +0.000 C 
ATOM     31  C   UNL     1     -10.511  -5.253  24.720  0.00  0.00    +0.000 C 
ATOM     32  C   UNL     1      -8.180  -4.167  21.805  0.00  0.00    +0.000 C 
ATOM     33  C   UNL     1      -9.266  -4.945  22.608  0.00  0.00    +0.000 C 
ATOM     34  C   UNL     1      -9.370  -2.752  19.991  0.00  0.00    +0.000 A 
ATOM     35  C   UNL     1      -9.725  -1.427  19.787  0.00  0.00    +0.000 A 
ATOM     36  C   UNL     1      -9.759  -3.700  19.017  0.00  0.00    +0.000 A 
ATOM     37  C   UNL     1     -10.438  -0.987  18.665  0.00  0.00    +0.000 A 
ATOM     38  C   UNL     1     -10.471  -3.283  17.887  0.00  0.00    +0.000 A 
ATOM     39  C   UNL     1     -10.805  -1.943  17.715  0.00  0.00    +0.000 A 
ATOM     40  H   UNL     1      -9.385   0.275  20.970  0.00  0.00    +0.000 HD
BRANCH  23  42
ATOM     41  O   UNL     1      -5.802  -2.014  22.755  0.00  0.00    +0.000 OA
ATOM     42  C   UNL     1      -6.631  -1.481  23.482  0.00  0.00    +0.000 C 
BRANCH  42  43
ATOM     43  O   UNL     1      -6.431  -1.305  24.832  0.00  0.00    +0.000 OA
ATOM     44  C   UNL     1      -5.129  -0.825  25.167  0.00  0.00    +0.000 C 
ENDBRANCH  42  43
ENDBRANCH  23  42
BRANCH  30  45
ATOM     45  O   UNL     1     -11.706  -4.429  26.684  0.00  0.00    +0.000 OA
ATOM     46  H   UNL     1     -12.136  -3.652  27.083  0.00  0.00    +0.000 HD
ENDBRANCH  30  45
BRANCH  30  47
ATOM     47  C   UNL     1     -12.854  -4.146  24.643  0.00  0.00    +0.000 C 
ATOM     48  C   UNL     1     -12.915  -3.889  23.147  0.00  0.00    +0.000 C 
ENDBRANCH  30  47
ENDBRANCH  19  23
BRANCH   7  49
ATOM     49  O   UNL     1      -5.564   6.383  19.771  0.00  0.00    +0.000 OA
ATOM     50  H   UNL     1      -6.453   6.627  20.100  0.00  0.00    +0.000 HD
ENDBRANCH   7  49
BRANCH   7  52
ATOM     51  O   UNL     1      -4.424   6.501  23.199  0.00  0.00    +0.000 OA
ATOM     52  C   UNL     1      -4.724   6.744  22.039  0.00  0.00    +0.000 C 
BRANCH  52  53
ATOM     53  O   UNL     1      -4.886   8.017  21.547  0.00  0.00    +0.000 OA
ATOM     54  C   UNL     1      -3.790   8.890  21.824  0.00  0.00    +0.000 C 
ENDBRANCH  52  53
ENDBRANCH   7  52
BRANCH  20  55
ATOM     55  O   UNL     1      -9.920   1.161  23.700  0.00  0.00    +0.000 OA
ATOM     56  C   UNL     1     -11.079   1.810  23.184  0.00  0.00    +0.000 C 
ENDBRANCH  20  55
BRANCH   6  57
ATOM     57  C   UNL     1      -4.357   3.896  18.295  0.00  0.00    +0.000 C 
ATOM     58  C   UNL     1      -3.816   4.898  17.273  0.00  0.00    +0.000 C 
ENDBRANCH   6  57
BRANCH   9  59
ATOM     59  O   UNL     1      -2.487   5.203  21.347  0.00  0.00    +0.000 OA
BRANCH  59  61
ATOM     60  O   UNL     1      -1.321   6.887  20.322  0.00  0.00    +0.000 OA
ATOM     61  C   UNL     1      -1.387   5.974  21.132  0.00  0.00    +0.000 C 
ATOM     62  C   UNL     1      -0.282   5.565  22.055  0.00  0.00    +0.000 C 
ENDBRANCH  59  61
ENDBRANCH   9  59
TORSDOF 12
ENDMDL
MODEL 3
REMARK VINA RESULT:      -6.6     16.677     21.424
REMARK  Name = 
REMARK  19 active torsions:
REMARK  status: ('A' for Active; 'I' for Inactive)
REMARK    1  A    between atoms: O_1  and  C_20
REMARK    2  A    between atoms: O_1  and  C_36
REMARK    3  A    between atoms: O_2  and  C_18
REMARK    4  A    between atoms: O_3  and  C_28
REMARK    5  A    between atoms: O_3  and  C_42
REMARK    6  A    between atoms: O_5  and  C_34
REMARK    7  A    between atoms: O_5  and  C_50
REMARK    8  A    between atoms: O_7  and  C_40
REMARK    9  A    between atoms: O_7  and  C_56
REMARK   10  A    between atoms: O_9  and  C_46
REMARK   11  A    between atoms: N_11  and  C_30
REMARK   12  A    between atoms: C_17  and  C_23
REMARK   13  A    between atoms: C_18  and  C_28
REMARK   14  A    between atoms: C_23  and  C_32
REMARK   15  A    between atoms: C_33  and  C_35
REMARK   16  A    between atoms: C_35  and  C_40
REMARK   17  A    between atoms: C_36  and  C_41
REMARK   18  A    between atoms: C_46  and  C_53
REMARK   19  A    between atoms: C_53  and  C_57
REMARK                            x       y       z     vdW  Elec       q    Type
REMARK                         _______ _______ _______ _____ _____    ______ ____
ROOT
ATOM      1  N   UNL     1       2.331 -12.498  20.042  0.00  0.00    +0.000 NA
ATOM      2  N   UNL     1       2.933 -16.230  17.128  0.00  0.00    +0.000 N 
ATOM      3  C   UNL     1       2.587 -14.328  18.619  0.00  0.00    +0.000 C 
ATOM      4  C   UNL     1       1.540 -13.305  19.094  0.00  0.00    +0.000 C 
ATOM      5  C   UNL     1       1.898 -15.533  17.948  0.00  0.00    +0.000 C 
ATOM      6  C   UNL     1       0.195 -13.970  19.645  0.00  0.00    +0.000 C 
ATOM      7  C   UNL     1       0.987 -16.376  18.856  0.00  0.00    +0.000 C 
ATOM      8  C   UNL     1       3.515 -14.542  19.830  0.00  0.00    +0.000 C 
ATOM      9  C   UNL     1       0.358 -15.514  19.999  0.00  0.00    +0.000 C 
ATOM     10  C   UNL     1       3.480 -13.964  17.449  0.00  0.00    +0.000 A 
ATOM     11  C   UNL     1       3.199 -13.398  20.791  0.00  0.00    +0.000 C 
ATOM     12  C   UNL     1       3.688 -15.108  16.667  0.00  0.00    +0.000 A 
ATOM     13  C   UNL     1      -0.311 -13.258  20.901  0.00  0.00    +0.000 C 
ATOM     14  C   UNL     1       1.552 -11.594  20.873  0.00  0.00    +0.000 C 
ATOM     15  C   UNL     1       0.299 -12.188  21.431  0.00  0.00    +0.000 C 
ATOM     16  C   UNL     1       4.088 -12.748  17.153  0.00  0.00    +0.000 A 
ATOM     17  C   UNL     1       2.466 -17.125  16.070  0.00  0.00    +0.000 C 
ATOM     18  C   UNL     1       4.551 -15.050  15.590  0.00  0.00    +0.000 A 
ATOM     19  C   UNL     1       4.970 -12.655  16.058  0.00  0.00    +0.000 A 
ATOM     20  C   UNL     1       5.194 -13.837  15.293  0.00  0.00    +0.000 A 
ENDROOT
BRANCH  19  23
ATOM     21  N   UNL     1       8.243  -8.023  14.507  0.00  0.00    +0.000 NA
ATOM     22  N   UNL     1       4.236 -11.333  13.627  0.00  0.00    +0.000 N 
ATOM     23  C   UNL     1       5.709 -11.306  15.692  0.00  0.00    +0.000 C 
ATOM     24  C   UNL     1       7.209 -11.577  15.214  0.00  0.00    +0.000 C 
ATOM     25  C   UNL     1       4.978 -10.574  14.515  0.00  0.00    +0.000 A 
ATOM     26  C   UNL     1       7.931 -10.421  14.502  0.00  0.00    +0.000 C 
ATOM     27  C   UNL     1       9.301 -10.776  13.927  0.00  0.00    +0.000 C 
ATOM     28  C   UNL     1       8.139  -9.188  15.369  0.00  0.00    +0.000 C 
ATOM     29  C   UNL     1       4.944  -9.256  14.024  0.00  0.00    +0.000 A 
ATOM     30  C   UNL     1       9.947  -9.564  13.191  0.00  0.00    +0.000 C 
ATOM     31  C   UNL     1       9.406  -8.133  13.600  0.00  0.00    +0.000 C 
ATOM     32  C   UNL     1       5.629  -7.987  14.505  0.00  0.00    +0.000 C 
ATOM     33  C   UNL     1       6.983  -7.687  13.795  0.00  0.00    +0.000 C 
ATOM     34  C   UNL     1       4.108  -9.269  12.845  0.00  0.00    +0.000 A 
ATOM     35  C   UNL     1       3.688 -10.573  12.632  0.00  0.00    +0.000 A 
ATOM     36  C   UNL     1       3.689  -8.278  11.929  0.00  0.00    +0.000 A 
ATOM     37  C   UNL     1       2.864 -10.949  11.563  0.00  0.00    +0.000 A 
ATOM     38  C   UNL     1       2.864  -8.631  10.854  0.00  0.00    +0.000 A 
ATOM     39  C   UNL     1       2.459  -9.949  10.676  0.00  0.00    +0.000 A 
ATOM     40  H   UNL     1       4.092 -12.332  13.707  0.00  0.00    +0.000 HD
BRANCH  23  42
ATOM     41  O   UNL     1       4.901  -9.592  17.331  0.00  0.00    +0.000 OA
ATOM     42  C   UNL     1       5.699 -10.465  17.011  0.00  0.00    +0.000 C 
BRANCH  42  43
ATOM     43  O   UNL     1       6.731 -10.864  17.828  0.00  0.00    +0.000 OA
ATOM     44  C   UNL     1       6.459 -10.711  19.221  0.00  0.00    +0.000 C 
ENDBRANCH  42  43
ENDBRANCH  23  42
BRANCH  30  45
ATOM     45  O   UNL     1      11.352  -9.608  13.545  0.00  0.00    +0.000 OA
ATOM     46  H   UNL     1      11.774  -8.821  13.156  0.00  0.00    +0.000 HD
ENDBRANCH  30  45
BRANCH  30  47
ATOM     47  C   UNL     1       9.945  -9.764  11.657  0.00  0.00    +0.000 C 
ATOM     48  C   UNL     1      11.276 -10.122  11.018  0.00  0.00    +0.000 C 
ENDBRANCH  30  47
ENDBRANCH  19  23
BRANCH   7  49
ATOM     49  O   UNL     1      -0.130 -16.795  18.006  0.00  0.00    +0.000 OA
ATOM     50  H   UNL     1      -0.803 -16.087  18.078  0.00  0.00    +0.000 HD
ENDBRANCH   7  49
BRANCH   7  52
ATOM     51  O   UNL     1       2.847 -17.725  19.797  0.00  0.00    +0.000 OA
ATOM     52  C   UNL     1       1.696 -17.645  19.391  0.00  0.00    +0.000 C 
BRANCH  52  53
ATOM     53  O   UNL     1       0.806 -18.691  19.426  0.00  0.00    +0.000 OA
ATOM     54  C   UNL     1       1.014 -19.595  20.513  0.00  0.00    +0.000 C 
ENDBRANCH  52  53
ENDBRANCH   7  52
BRANCH  20  55
ATOM     55  O   UNL     1       6.022 -13.732  14.203  0.00  0.00    +0.000 OA
ATOM     56  C   UNL     1       6.601 -14.956  13.761  0.00  0.00    +0.000 C 
ENDBRANCH  20  55
BRANCH   6  57
ATOM     57  C   UNL     1      -0.946 -13.823  18.572  0.00  0.00    +0.000 C 
ATOM     58  C   UNL     1      -2.351 -14.243  19.008  0.00  0.00    +0.000 C 
ENDBRANCH   6  57
BRANCH   9  59
ATOM     59  O   UNL     1       1.108 -15.617  21.234  0.00  0.00    +0.000 OA
BRANCH  59  61
ATOM     60  O   UNL     1      -0.465 -16.912  22.282  0.00  0.00    +0.000 OA
ATOM     61  C   UNL     1       0.451 -16.103  22.321  0.00  0.00    +0.000 C 
ATOM     62  C   UNL     1       1.035 -15.530  23.575  0.00  0.00    +0.000 C 
ENDBRANCH  59  61
ENDBRANCH   9  59
TORSDOF 12
ENDMDL
MODEL 4
REMARK VINA RESULT:      -6.4      4.554     12.493
REMARK  Name = 
REMARK  19 active torsions:
REMARK  status: ('A' for Active; 'I' for Inactive)
REMARK    1  A    between atoms: O_1  and  C_20
REMARK    2  A    between atoms: O_1  and  C_36
REMARK    3  A    between atoms: O_2  and  C_18
REMARK    4  A    between atoms: O_3  and  C_28
REMARK    5  A    between atoms: O_3  and  C_42
REMARK    6  A    between atoms: O_5  and  C_34
REMARK    7  A    between atoms: O_5  and  C_50
REMARK    8  A    between atoms: O_7  and  C_40
REMARK    9  A    between atoms: O_7  and  C_56
REMARK   10  A    between atoms: O_9  and  C_46
REMARK   11  A    between atoms: N_11  and  C_30
REMARK   12  A    between atoms: C_17  and  C_23
REMARK   13  A    between atoms: C_18  and  C_28
REMARK   14  A    between atoms: C_23  and  C_32
REMARK   15  A    between atoms: C_33  and  C_35
REMARK   16  A    between atoms: C_35  and  C_40
REMARK   17  A    between atoms: C_36  and  C_41
REMARK   18  A    between atoms: C_46  and  C_53
REMARK   19  A    between atoms: C_53  and  C_57
REMARK                            x       y       z     vdW  Elec       q    Type
REMARK                         _______ _______ _______ _____ _____    ______ ____
ROOT
ATOM      1  N   UNL     1      -7.284  -5.812  28.426  0.00  0.00    +0.000 NA
ATOM      2  N   UNL     1     -11.136  -8.151  26.855  0.00  0.00    +0.000 N 
ATOM      3  C   UNL     1      -9.178  -6.959  27.696  0.00  0.00    +0.000 C 
ATOM      4  C   UNL     1      -8.643  -6.148  28.890  0.00  0.00    +0.000 C 
ATOM      5  C   UNL     1     -10.419  -7.774  28.110  0.00  0.00    +0.000 C 
ATOM      6  C   UNL     1      -8.772  -6.907  30.291  0.00  0.00    +0.000 C 
ATOM      7  C   UNL     1     -10.186  -8.857  29.177  0.00  0.00    +0.000 C 
ATOM      8  C   UNL     1      -7.943  -7.671  27.111  0.00  0.00    +0.000 C 
ATOM      9  C   UNL     1      -9.011  -8.474  30.136  0.00  0.00    +0.000 C 
ATOM     10  C   UNL     1      -9.833  -6.215  26.548  0.00  0.00    +0.000 A 
ATOM     11  C   UNL     1      -6.738  -6.974  27.736  0.00  0.00    +0.000 C 
ATOM     12  C   UNL     1     -10.910  -6.977  26.073  0.00  0.00    +0.000 A 
ATOM     13  C   UNL     1      -7.522  -6.712  31.152  0.00  0.00    +0.000 C 
ATOM     14  C   UNL     1      -6.409  -5.262  29.450  0.00  0.00    +0.000 C 
ATOM     15  C   UNL     1      -6.479  -5.962  30.768  0.00  0.00    +0.000 C 
ATOM     16  C   UNL     1      -9.464  -5.012  25.956  0.00  0.00    +0.000 A 
ATOM     17  C   UNL     1     -12.540  -8.542  26.972  0.00  0.00    +0.000 C 
ATOM     18  C   UNL     1     -11.609  -6.550  24.960  0.00  0.00    +0.000 A 
ATOM     19  C   UNL     1     -10.159  -4.547  24.823  0.00  0.00    +0.000 A 
ATOM     20  C   UNL     1     -11.232  -5.350  24.334  0.00  0.00    +0.000 A 
ENDROOT
BRANCH  19  23
ATOM     21  N   UNL     1      -8.106   0.423  22.444  0.00  0.00    +0.000 NA
ATOM     22  N   UNL     1      -9.370  -4.681  22.074  0.00  0.00    +0.000 N 
ATOM     23  C   UNL     1      -9.766  -3.200  24.094  0.00  0.00    +0.000 C 
ATOM     24  C   UNL     1      -8.342  -2.668  24.585  0.00  0.00    +0.000 C 
ATOM     25  C   UNL     1      -9.666  -3.413  22.545  0.00  0.00    +0.000 A 
ATOM     26  C   UNL     1      -7.674  -1.578  23.730  0.00  0.00    +0.000 C 
ATOM     27  C   UNL     1      -6.251  -1.215  24.149  0.00  0.00    +0.000 C 
ATOM     28  C   UNL     1      -8.449  -0.269  23.674  0.00  0.00    +0.000 C 
ATOM     29  C   UNL     1      -9.710  -2.578  21.415  0.00  0.00    +0.000 A 
ATOM     30  C   UNL     1      -5.634  -0.134  23.212  0.00  0.00    +0.000 C 
ATOM     31  C   UNL     1      -6.665   0.754  22.402  0.00  0.00    +0.000 C 
ATOM     32  C   UNL     1      -9.906  -1.076  21.283  0.00  0.00    +0.000 C 
ATOM     33  C   UNL     1      -8.577  -0.265  21.214  0.00  0.00    +0.000 C 
ATOM     34  C   UNL     1      -9.481  -3.418  20.262  0.00  0.00    +0.000 A 
ATOM     35  C   UNL     1      -9.276  -4.714  20.710  0.00  0.00    +0.000 A 
ATOM     36  C   UNL     1      -9.414  -3.179  18.871  0.00  0.00    +0.000 A 
ATOM     37  C   UNL     1      -9.016  -5.791  19.853  0.00  0.00    +0.000 A 
ATOM     38  C   UNL     1      -9.157  -4.241  17.995  0.00  0.00    +0.000 A 
ATOM     39  C   UNL     1      -8.961  -5.529  18.482  0.00  0.00    +0.000 A 
ATOM     40  H   UNL     1      -9.256  -5.499  22.659  0.00  0.00    +0.000 HD
BRANCH  23  42
ATOM     41  O   UNL     1     -11.778  -1.746  23.760  0.00  0.00    +0.000 OA
ATOM     42  C   UNL     1     -10.891  -2.184  24.481  0.00  0.00    +0.000 C 
BRANCH  42  43
ATOM     43  O   UNL     1     -10.778  -1.844  25.809  0.00  0.00    +0.000 OA
ATOM     44  C   UNL     1     -11.390  -0.599  26.143  0.00  0.00    +0.000 C 
ENDBRANCH  42  43
ENDBRANCH  23  42
BRANCH  30  45
ATOM     45  O   UNL     1      -4.899   0.756  24.089  0.00  0.00    +0.000 OA
ATOM     46  H   UNL     1      -4.926   0.371  24.983  0.00  0.00    +0.000 HD
ENDBRANCH  30  45
BRANCH  30  47
ATOM     47  C   UNL     1      -4.544  -0.733  22.294  0.00  0.00    +0.000 C 
ATOM     48  C   UNL     1      -3.145  -0.158  22.437  0.00  0.00    +0.000 C 
ENDBRANCH  30  47
ENDBRANCH  19  23
BRANCH   7  49
ATOM     49  O   UNL     1     -11.396  -8.858  30.002  0.00  0.00    +0.000 OA
ATOM     50  H   UNL     1     -11.161  -8.379  30.824  0.00  0.00    +0.000 HD
ENDBRANCH   7  49
BRANCH   7  52
ATOM     51  O   UNL     1      -9.276 -10.578  27.635  0.00  0.00    +0.000 OA
ATOM     52  C   UNL     1     -10.013 -10.268  28.561  0.00  0.00    +0.000 C 
BRANCH  52  53
ATOM     53  O   UNL     1     -10.764 -11.174  29.269  0.00  0.00    +0.000 OA
ATOM     54  C   UNL     1     -11.568 -12.026  28.450  0.00  0.00    +0.000 C 
ENDBRANCH  52  53
ENDBRANCH   7  52
BRANCH  20  55
ATOM     55  O   UNL     1     -11.933  -4.873  23.256  0.00  0.00    +0.000 OA
ATOM     56  C   UNL     1     -13.345  -4.803  23.432  0.00  0.00    +0.000 C 
ENDBRANCH  20  55
BRANCH   6  57
ATOM     57  C   UNL     1      -9.967  -6.299  31.113  0.00  0.00    +0.000 C 
ATOM     58  C   UNL     1     -10.078  -6.731  32.577  0.00  0.00    +0.000 C 
ENDBRANCH   6  57
BRANCH   9  59
ATOM     59  O   UNL     1      -7.760  -9.084  29.735  0.00  0.00    +0.000 OA
BRANCH  59  61
ATOM     60  O   UNL     1      -7.812 -10.869  31.170  0.00  0.00    +0.000 OA
ATOM     61  C   UNL     1      -7.202  -9.979  30.594  0.00  0.00    +0.000 C 
ATOM     62  C   UNL     1      -5.728  -9.740  30.703  0.00  0.00    +0.000 C 
ENDBRANCH  59  61
ENDBRANCH   9  59
TORSDOF 12
ENDMDL
MODEL 5
REMARK VINA RESULT:      -6.4     15.717     20.540
REMARK  Name = 
REMARK  19 active torsions:
REMARK  status: ('A' for Active; 'I' for Inactive)
REMARK    1  A    between atoms: O_1  and  C_20
REMARK    2  A    between atoms: O_1  and  C_36
REMARK    3  A    between atoms: O_2  and  C_18
REMARK    4  A    between atoms: O_3  and  C_28
REMARK    5  A    between atoms: O_3  and  C_42
REMARK    6  A    between atoms: O_5  and  C_34
REMARK    7  A    between atoms: O_5  and  C_50
REMARK    8  A    between atoms: O_7  and  C_40
REMARK    9  A    between atoms: O_7  and  C_56
REMARK   10  A    between atoms: O_9  and  C_46
REMARK   11  A    between atoms: N_11  and  C_30
REMARK   12  A    between atoms: C_17  and  C_23
REMARK   13  A    between atoms: C_18  and  C_28
REMARK   14  A    between atoms: C_23  and  C_32
REMARK   15  A    between atoms: C_33  and  C_35
REMARK   16  A    between atoms: C_35  and  C_40
REMARK   17  A    between atoms: C_36  and  C_41
REMARK   18  A    between atoms: C_46  and  C_53
REMARK   19  A    between atoms: C_53  and  C_57
REMARK                            x       y       z     vdW  Elec       q    Type
REMARK                         _______ _______ _______ _____ _____    ______ ____
ROOT
ATOM      1  N   UNL     1     -23.341  -2.498   9.047  0.00  0.00    +0.000 NA
ATOM      2  N   UNL     1     -24.300  -6.777  10.932  0.00  0.00    +0.000 N 
ATOM      3  C   UNL     1     -23.778  -4.602   9.950  0.00  0.00    +0.000 C 
ATOM      4  C   UNL     1     -22.633  -3.749   9.375  0.00  0.00    +0.000 C 
ATOM      5  C   UNL     1     -23.381  -6.092   9.974  0.00  0.00    +0.000 C 
ATOM      6  C   UNL     1     -21.828  -4.466   8.195  0.00  0.00    +0.000 C 
ATOM      7  C   UNL     1     -23.129  -6.742   8.604  0.00  0.00    +0.000 C 
ATOM      8  C   UNL     1     -25.037  -4.149   9.187  0.00  0.00    +0.000 C 
ATOM      9  C   UNL     1     -22.611  -5.699   7.560  0.00  0.00    +0.000 C 
ATOM     10  C   UNL     1     -24.101  -4.484  11.427  0.00  0.00    +0.000 A 
ATOM     11  C   UNL     1     -24.647  -2.844   8.498  0.00  0.00    +0.000 C 
ATOM     12  C   UNL     1     -24.449  -5.751  11.916  0.00  0.00    +0.000 A 
ATOM     13  C   UNL     1     -21.504  -3.489   7.062  0.00  0.00    +0.000 C 
ATOM     14  C   UNL     1     -22.582  -1.563   8.231  0.00  0.00    +0.000 C 
ATOM     15  C   UNL     1     -21.836  -2.191   7.098  0.00  0.00    +0.000 C 
ATOM     16  C   UNL     1     -24.137  -3.350  12.231  0.00  0.00    +0.000 A 
ATOM     17  C   UNL     1     -23.878  -8.072  11.463  0.00  0.00    +0.000 C 
ATOM     18  C   UNL     1     -24.879  -5.884  13.222  0.00  0.00    +0.000 A 
ATOM     19  C   UNL     1     -24.566  -3.452  13.569  0.00  0.00    +0.000 A 
ATOM     20  C   UNL     1     -24.946  -4.744  14.039  0.00  0.00    +0.000 A 
ENDROOT
BRANCH  19  23
ATOM     21  N   UNL     1     -24.531   0.870  17.554  0.00  0.00    +0.000 NA
ATOM     22  N   UNL     1     -22.824  -1.243  13.036  0.00  0.00    +0.000 N 
ATOM     23  C   UNL     1     -24.650  -2.191  14.519  0.00  0.00    +0.000 C 
ATOM     24  C   UNL     1     -24.000  -2.495  15.946  0.00  0.00    +0.000 C 
ATOM     25  C   UNL     1     -23.868  -0.980  13.907  0.00  0.00    +0.000 A 
ATOM     26  C   UNL     1     -23.695  -1.284  16.843  0.00  0.00    +0.000 C 
ATOM     27  C   UNL     1     -22.933  -1.610  18.126  0.00  0.00    +0.000 C 
ATOM     28  C   UNL     1     -24.926  -0.497  17.267  0.00  0.00    +0.000 C 
ATOM     29  C   UNL     1     -23.881   0.415  14.088  0.00  0.00    +0.000 A 
ATOM     30  C   UNL     1     -22.632  -0.327  18.958  0.00  0.00    +0.000 C 
ATOM     31  C   UNL     1     -23.561   0.922  18.670  0.00  0.00    +0.000 C 
ATOM     32  C   UNL     1     -24.731   1.303  14.983  0.00  0.00    +0.000 C 
ATOM     33  C   UNL     1     -24.078   1.630  16.360  0.00  0.00    +0.000 C 
ATOM     34  C   UNL     1     -22.839   0.958  13.248  0.00  0.00    +0.000 A 
ATOM     35  C   UNL     1     -22.207  -0.099  12.611  0.00  0.00    +0.000 A 
ATOM     36  C   UNL     1     -22.368   2.265  12.989  0.00  0.00    +0.000 A 
ATOM     37  C   UNL     1     -21.138   0.068  11.723  0.00  0.00    +0.000 A 
ATOM     38  C   UNL     1     -21.301   2.457  12.104  0.00  0.00    +0.000 A 
ATOM     39  C   UNL     1     -20.696   1.371  11.480  0.00  0.00    +0.000 A 
ATOM     40  H   UNL     1     -22.554  -2.168  12.727  0.00  0.00    +0.000 HD
BRANCH  23  42
ATOM     41  O   UNL     1     -26.886  -2.104  15.646  0.00  0.00    +0.000 OA
ATOM     42  C   UNL     1     -26.179  -1.896  14.667  0.00  0.00    +0.000 C 
BRANCH  42  43
ATOM     43  O   UNL     1     -26.658  -1.315  13.516  0.00  0.00    +0.000 OA
ATOM     44  C   UNL     1     -27.797  -0.480  13.719  0.00  0.00    +0.000 C 
ENDBRANCH  42  43
ENDBRANCH  23  42
BRANCH  30  45
ATOM     45  O   UNL     1     -22.844  -0.710  20.340  0.00  0.00    +0.000 OA
ATOM     46  H   UNL     1     -22.171  -1.377  20.563  0.00  0.00    +0.000 HD
ENDBRANCH  30  45
BRANCH  30  47
ATOM     47  C   UNL     1     -21.132   0.045  18.903  0.00  0.00    +0.000 C 
ATOM     48  C   UNL     1     -20.146  -1.056  19.249  0.00  0.00    +0.000 C 
ENDBRANCH  30  47
ENDBRANCH  19  23
BRANCH   7  49
ATOM     49  O   UNL     1     -22.026  -7.683   8.815  0.00  0.00    +0.000 OA
ATOM     50  H   UNL     1     -22.321  -8.533   8.429  0.00  0.00    +0.000 HD
ENDBRANCH   7  49
BRANCH   7  52
ATOM     51  O   UNL     1     -25.533  -7.223   8.211  0.00  0.00    +0.000 OA
ATOM     52  C   UNL     1     -24.356  -7.535   8.090  0.00  0.00    +0.000 C 
BRANCH  52  53
ATOM     53  O   UNL     1     -23.932  -8.636   7.386  0.00  0.00    +0.000 OA
ATOM     54  C   UNL     1     -24.861  -9.087   6.399  0.00  0.00    +0.000 C 
ENDBRANCH  52  53
ENDBRANCH   7  52
BRANCH  20  55
ATOM     55  O   UNL     1     -25.324  -4.846  15.354  0.00  0.00    +0.000 OA
ATOM     56  C   UNL     1     -26.464  -5.665  15.596  0.00  0.00    +0.000 C 
ENDBRANCH  20  55
BRANCH   6  57
ATOM     57  C   UNL     1     -20.443  -4.980   8.736  0.00  0.00    +0.000 C 
ATOM     58  C   UNL     1     -19.278  -4.972   7.745  0.00  0.00    +0.000 C 
ENDBRANCH   6  57
BRANCH   9  59
ATOM     59  O   UNL     1     -23.680  -5.178   6.734  0.00  0.00    +0.000 OA
BRANCH  59  61
ATOM     60  O   UNL     1     -24.694  -5.453   4.698  0.00  0.00    +0.000 OA
ATOM     61  C   UNL     1     -23.741  -5.616   5.448  0.00  0.00    +0.000 C 
ATOM     62  C   UNL     1     -22.461  -6.294   5.072  0.00  0.00    +0.000 C 
ENDBRANCH  59  61
ENDBRANCH   9  59
TORSDOF 12
ENDMDL
MODEL 6
REMARK VINA RESULT:      -6.1     16.606     19.391
REMARK  Name = 
REMARK  19 active torsions:
REMARK  status: ('A' for Active; 'I' for Inactive)
REMARK    1  A    between atoms: O_1  and  C_20
REMARK    2  A    between atoms: O_1  and  C_36
REMARK    3  A    between atoms: O_2  and  C_18
REMARK    4  A    between atoms: O_3  and  C_28
REMARK    5  A    between atoms: O_3  and  C_42
REMARK    6  A    between atoms: O_5  and  C_34
REMARK    7  A    between atoms: O_5  and  C_50
REMARK    8  A    between atoms: O_7  and  C_40
REMARK    9  A    between atoms: O_7  and  C_56
REMARK   10  A    between atoms: O_9  and  C_46
REMARK   11  A    between atoms: N_11  and  C_30
REMARK   12  A    between atoms: C_17  and  C_23
REMARK   13  A    between atoms: C_18  and  C_28
REMARK   14  A    between atoms: C_23  and  C_32
REMARK   15  A    between atoms: C_33  and  C_35
REMARK   16  A    between atoms: C_35  and  C_40
REMARK   17  A    between atoms: C_36  and  C_41
REMARK   18  A    between atoms: C_46  and  C_53
REMARK   19  A    between atoms: C_53  and  C_57
REMARK                            x       y       z     vdW  Elec       q    Type
REMARK                         _______ _______ _______ _____ _____    ______ ____
ROOT
ATOM      1  N   UNL     1       6.261 -12.603  13.616  0.00  0.00    +0.000 NA
ATOM      2  N   UNL     1       6.361  -8.717  16.385  0.00  0.00    +0.000 N 
ATOM      3  C   UNL     1       6.300 -10.683  14.938  0.00  0.00    +0.000 C 
ATOM      4  C   UNL     1       5.705 -11.237  13.632  0.00  0.00    +0.000 C 
ATOM      5  C   UNL     1       6.209  -9.144  14.963  0.00  0.00    +0.000 C 
ATOM      6  C   UNL     1       5.989 -10.317  12.356  0.00  0.00    +0.000 C 
ATOM      7  C   UNL     1       7.017  -8.406  13.882  0.00  0.00    +0.000 C 
ATOM      8  C   UNL     1       7.667 -11.380  15.083  0.00  0.00    +0.000 C 
ATOM      9  C   UNL     1       7.166  -9.270  12.587  0.00  0.00    +0.000 C 
ATOM     10  C   UNL     1       5.553 -10.922  16.236  0.00  0.00    +0.000 A 
ATOM     11  C   UNL     1       7.639 -12.539  14.090  0.00  0.00    +0.000 C 
ATOM     12  C   UNL     1       5.675  -9.784  17.044  0.00  0.00    +0.000 A 
ATOM     13  C   UNL     1       6.350 -11.156  11.127  0.00  0.00    +0.000 C 
ATOM     14  C   UNL     1       6.098 -13.315  12.358  0.00  0.00    +0.000 C 
ATOM     15  C   UNL     1       6.382 -12.496  11.141  0.00  0.00    +0.000 C 
ATOM     16  C   UNL     1       4.885 -12.064  16.667  0.00  0.00    +0.000 A 
ATOM     17  C   UNL     1       5.890  -7.380  16.743  0.00  0.00    +0.000 C 
ATOM     18  C   UNL     1       5.155  -9.797  18.324  0.00  0.00    +0.000 A 
ATOM     19  C   UNL     1       4.339 -12.107  17.965  0.00  0.00    +0.000 A 
ATOM     20  C   UNL     1       4.501 -10.951  18.785  0.00  0.00    +0.000 A 
ENDROOT
BRANCH  19  23
ATOM     21  N   UNL     1       1.057 -16.452  20.183  0.00  0.00    +0.000 NA
ATOM     22  N   UNL     1       3.131 -13.884  16.073  0.00  0.00    +0.000 N 
ATOM     23  C   UNL     1       3.593 -13.388  18.517  0.00  0.00    +0.000 C 
ATOM     24  C   UNL     1       2.202 -13.001  19.199  0.00  0.00    +0.000 C 
ATOM     25  C   UNL     1       3.271 -14.388  17.355  0.00  0.00    +0.000 A 
ATOM     26  C   UNL     1       1.215 -14.149  19.465  0.00  0.00    +0.000 C 
ATOM     27  C   UNL     1      -0.159 -13.711  19.972  0.00  0.00    +0.000 C 
ATOM     28  C   UNL     1       1.721 -15.190  20.453  0.00  0.00    +0.000 C 
ATOM     29  C   UNL     1       2.973 -15.760  17.269  0.00  0.00    +0.000 A 
ATOM     30  C   UNL     1      -1.109 -14.929  20.180  0.00  0.00    +0.000 C 
ATOM     31  C   UNL     1      -0.406 -16.336  20.368  0.00  0.00    +0.000 C 
ATOM     32  C   UNL     1       2.872 -16.835  18.340  0.00  0.00    +0.000 C 
ATOM     33  C   UNL     1       1.427 -17.061  18.879  0.00  0.00    +0.000 C 
ATOM     34  C   UNL     1       2.705 -16.045  15.878  0.00  0.00    +0.000 A 
ATOM     35  C   UNL     1       2.814 -14.859  15.169  0.00  0.00    +0.000 A 
ATOM     36  C   UNL     1       2.360 -17.216  15.165  0.00  0.00    +0.000 A 
ATOM     37  C   UNL     1       2.609 -14.770  13.786  0.00  0.00    +0.000 A 
ATOM     38  C   UNL     1       2.152 -17.150  13.782  0.00  0.00    +0.000 A 
ATOM     39  C   UNL     1       2.275 -15.943  13.104  0.00  0.00    +0.000 A 
ATOM     40  H   UNL     1       3.266 -12.914  15.820  0.00  0.00    +0.000 HD
BRANCH  23  42
ATOM     41  O   UNL     1       4.446 -13.991  20.794  0.00  0.00    +0.000 OA
ATOM     42  C   UNL     1       4.568 -14.002  19.575  0.00  0.00    +0.000 C 
BRANCH  42  43
ATOM     43  O   UNL     1       5.622 -14.617  18.940  0.00  0.00    +0.000 OA
ATOM     44  C   UNL     1       6.186 -15.703  19.673  0.00  0.00    +0.000 C 
ENDBRANCH  42  43
ENDBRANCH  23  42
BRANCH  30  45
ATOM     45  O   UNL     1      -1.832 -14.644  21.404  0.00  0.00    +0.000 OA
ATOM     46  H   UNL     1      -2.537 -15.310  21.486  0.00  0.00    +0.000 HD
ENDBRANCH  30  45
BRANCH  30  47
ATOM     47  C   UNL     1      -2.215 -14.977  19.100  0.00  0.00    +0.000 C 
ATOM     48  C   UNL     1      -2.343 -13.756  18.205  0.00  0.00    +0.000 C 
ENDBRANCH  30  47
ENDBRANCH  19  23
BRANCH   7  49
ATOM     49  O   UNL     1       6.200  -7.251  13.505  0.00  0.00    +0.000 OA
ATOM     50  H   UNL     1       5.503  -7.179  14.189  0.00  0.00    +0.000 HD
ENDBRANCH   7  49
BRANCH   7  52
ATOM     51  O   UNL     1       9.145  -8.482  15.160  0.00  0.00    +0.000 OA
ATOM     52  C   UNL     1       8.379  -7.891  14.411  0.00  0.00    +0.000 C 
BRANCH  52  53
ATOM     53  O   UNL     1       8.660  -6.671  13.846  0.00  0.00    +0.000 OA
ATOM     54  C   UNL     1      10.054  -6.358  13.806  0.00  0.00    +0.000 C 
ENDBRANCH  52  53
ENDBRANCH   7  52
BRANCH  20  55
ATOM     55  O   UNL     1       3.932 -10.983  20.033  0.00  0.00    +0.000 OA
ATOM     56  C   UNL     1       4.733 -10.438  21.078  0.00  0.00    +0.000 C 
ENDBRANCH  20  55
BRANCH   6  57
ATOM     57  C   UNL     1       4.684  -9.526  11.974  0.00  0.00    +0.000 C 
ATOM     58  C   UNL     1       3.396 -10.344  11.865  0.00  0.00    +0.000 C 
ENDBRANCH   6  57
BRANCH   9  59
ATOM     59  O   UNL     1       8.423  -9.987  12.552  0.00  0.00    +0.000 OA
BRANCH  59  61
ATOM     60  O   UNL     1       9.281  -8.509  11.026  0.00  0.00    +0.000 OA
ATOM     61  C   UNL     1       9.389  -9.508  11.724  0.00  0.00    +0.000 C 
ATOM     62  C   UNL     1      10.617 -10.360  11.816  0.00  0.00    +0.000 C 
ENDBRANCH  59  61
ENDBRANCH   9  59
TORSDOF 12
ENDMDL
MODEL 7
REMARK VINA RESULT:      -6.1      4.366      7.228
REMARK  Name = 
REMARK  19 active torsions:
REMARK  status: ('A' for Active; 'I' for Inactive)
REMARK    1  A    between atoms: O_1  and  C_20
REMARK    2  A    between atoms: O_1  and  C_36
REMARK    3  A    between atoms: O_2  and  C_18
REMARK    4  A    between atoms: O_3  and  C_28
REMARK    5  A    between atoms: O_3  and  C_42
REMARK    6  A    between atoms: O_5  and  C_34
REMARK    7  A    between atoms: O_5  and  C_50
REMARK    8  A    between atoms: O_7  and  C_40
REMARK    9  A    between atoms: O_7  and  C_56
REMARK   10  A    between atoms: O_9  and  C_46
REMARK   11  A    between atoms: N_11  and  C_30
REMARK   12  A    between atoms: C_17  and  C_23
REMARK   13  A    between atoms: C_18  and  C_28
REMARK   14  A    between atoms: C_23  and  C_32
REMARK   15  A    between atoms: C_33  and  C_35
REMARK   16  A    between atoms: C_35  and  C_40
REMARK   17  A    between atoms: C_36  and  C_41
REMARK   18  A    between atoms: C_46  and  C_53
REMARK   19  A    between atoms: C_53  and  C_57
REMARK                            x       y       z     vdW  Elec       q    Type
REMARK                         _______ _______ _______ _____ _____    ______ ____
ROOT
ATOM      1  N   UNL     1      -3.932   0.015  22.958  0.00  0.00    +0.000 NA
ATOM      2  N   UNL     1      -4.835   0.330  27.634  0.00  0.00    +0.000 N 
ATOM      3  C   UNL     1      -4.361   0.206  25.242  0.00  0.00    +0.000 C 
ATOM      4  C   UNL     1      -4.189   1.056  23.971  0.00  0.00    +0.000 C 
ATOM      5  C   UNL     1      -4.219   1.084  26.502  0.00  0.00    +0.000 C 
ATOM      6  C   UNL     1      -3.101   2.219  24.118  0.00  0.00    +0.000 C 
ATOM      7  C   UNL     1      -2.843   1.737  26.714  0.00  0.00    +0.000 C 
ATOM      8  C   UNL     1      -3.437  -1.010  25.038  0.00  0.00    +0.000 C 
ATOM      9  C   UNL     1      -2.120   2.007  25.354  0.00  0.00    +0.000 C 
ATOM     10  C   UNL     1      -5.736  -0.345  25.567  0.00  0.00    +0.000 A 
ATOM     11  C   UNL     1      -3.072  -0.999  23.555  0.00  0.00    +0.000 C 
ATOM     12  C   UNL     1      -5.923  -0.301  26.956  0.00  0.00    +0.000 A 
ATOM     13  C   UNL     1      -2.240   2.344  22.859  0.00  0.00    +0.000 C 
ATOM     14  C   UNL     1      -3.461   0.515  21.675  0.00  0.00    +0.000 C 
ATOM     15  C   UNL     1      -2.421   1.584  21.770  0.00  0.00    +0.000 C 
ATOM     16  C   UNL     1      -6.691  -0.883  24.711  0.00  0.00    +0.000 A 
ATOM     17  C   UNL     1      -5.220   1.091  28.822  0.00  0.00    +0.000 C 
ATOM     18  C   UNL     1      -7.069  -0.841  27.507  0.00  0.00    +0.000 A 
ATOM     19  C   UNL     1      -7.874  -1.436  25.241  0.00  0.00    +0.000 A 
ATOM     20  C   UNL     1      -8.033  -1.411  26.659  0.00  0.00    +0.000 A 
ENDROOT
BRANCH  19  23
ATOM     21  N   UNL     1     -11.545  -3.794  21.300  0.00  0.00    +0.000 NA
ATOM     22  N   UNL     1      -8.309  -4.259  25.435  0.00  0.00    +0.000 N 
ATOM     23  C   UNL     1      -8.981  -2.084  24.318  0.00  0.00    +0.000 C 
ATOM     24  C   UNL     1      -8.500  -2.157  22.797  0.00  0.00    +0.000 C 
ATOM     25  C   UNL     1      -9.295  -3.551  24.770  0.00  0.00    +0.000 A 
ATOM     26  C   UNL     1      -9.308  -3.064  21.854  0.00  0.00    +0.000 C 
ATOM     27  C   UNL     1      -8.718  -3.224  20.454  0.00  0.00    +0.000 C 
ATOM     28  C   UNL     1     -10.754  -2.631  21.661  0.00  0.00    +0.000 C 
ATOM     29  C   UNL     1     -10.364  -4.447  24.589  0.00  0.00    +0.000 A 
ATOM     30  C   UNL     1      -9.575  -4.185  19.576  0.00  0.00    +0.000 C 
ATOM     31  C   UNL     1     -11.081  -4.381  20.025  0.00  0.00    +0.000 C 
ATOM     32  C   UNL     1     -11.691  -4.294  23.863  0.00  0.00    +0.000 C 
ATOM     33  C   UNL     1     -11.669  -4.799  22.388  0.00  0.00    +0.000 C 
ATOM     34  C   UNL     1      -9.982  -5.689  25.221  0.00  0.00    +0.000 A 
ATOM     35  C   UNL     1      -8.703  -5.533  25.735  0.00  0.00    +0.000 A 
ATOM     36  C   UNL     1     -10.614  -6.943  25.384  0.00  0.00    +0.000 A 
ATOM     37  C   UNL     1      -8.018  -6.551  26.411  0.00  0.00    +0.000 A 
ATOM     38  C   UNL     1      -9.949  -7.974  26.057  0.00  0.00    +0.000 A 
ATOM     39  C   UNL     1      -8.668  -7.778  26.563  0.00  0.00    +0.000 A 
ATOM     40  H   UNL     1      -7.406  -3.882  25.693  0.00  0.00    +0.000 HD
BRANCH  23  42
ATOM     41  O   UNL     1     -11.270  -1.373  25.047  0.00  0.00    +0.000 OA
ATOM     42  C   UNL     1     -10.224  -1.143  24.452  0.00  0.00    +0.000 C 
BRANCH  42  43
ATOM     43  O   UNL     1      -9.979   0.050  23.813  0.00  0.00    +0.000 OA
ATOM     44  C   UNL     1     -11.151   0.685  23.303  0.00  0.00    +0.000 C 
ENDBRANCH  42  43
ENDBRANCH  23  42
BRANCH  30  45
ATOM     45  O   UNL     1      -9.595  -3.582  18.258  0.00  0.00    +0.000 OA
ATOM     46  H   UNL     1     -10.529  -3.463  18.008  0.00  0.00    +0.000 HD
ENDBRANCH  30  45
BRANCH  30  47
ATOM     47  C   UNL     1      -8.860  -5.538  19.353  0.00  0.00    +0.000 C 
ATOM     48  C   UNL     1      -8.332  -5.804  17.953  0.00  0.00    +0.000 C 
ENDBRANCH  30  47
ENDBRANCH  19  23
BRANCH   7  49
ATOM     49  O   UNL     1      -3.121   3.053  27.292  0.00  0.00    +0.000 OA
ATOM     50  H   UNL     1      -3.300   3.647  26.534  0.00  0.00    +0.000 HD
ENDBRANCH   7  49
BRANCH   7  52
ATOM     51  O   UNL     1      -1.863  -0.273  27.794  0.00  0.00    +0.000 OA
ATOM     52  C   UNL     1      -1.959   0.943  27.709  0.00  0.00    +0.000 C 
BRANCH  52  53
ATOM     53  O   UNL     1      -1.210   1.818  28.457  0.00  0.00    +0.000 OA
ATOM     54  C   UNL     1       0.085   1.322  28.805  0.00  0.00    +0.000 C 
ENDBRANCH  52  53
ENDBRANCH   7  52
BRANCH  20  55
ATOM     55  O   UNL     1      -9.203  -1.914  27.167  0.00  0.00    +0.000 OA
ATOM     56  C   UNL     1      -9.129  -2.385  28.510  0.00  0.00    +0.000 C 
ENDBRANCH  20  55
BRANCH   6  57
ATOM     57  C   UNL     1      -3.827   3.604  24.289  0.00  0.00    +0.000 C 
ATOM     58  C   UNL     1      -5.324   3.633  23.975  0.00  0.00    +0.000 C 
ENDBRANCH   6  57
BRANCH   9  59
ATOM     59  O   UNL     1      -1.187   0.953  25.015  0.00  0.00    +0.000 OA
BRANCH  59  61
ATOM     60  O   UNL     1       0.624   2.295  25.428  0.00  0.00    +0.000 OA
ATOM     61  C   UNL     1       0.129   1.288  24.940  0.00  0.00    +0.000 C 
ATOM     62  C   UNL     1       0.891   0.229  24.205  0.00  0.00    +0.000 C 
ENDBRANCH  59  61
ENDBRANCH   9  59
TORSDOF 12
ENDMDL
MODEL 8
REMARK VINA RESULT:      -5.9      7.030     12.585
REMARK  Name = 
REMARK  19 active torsions:
REMARK  status: ('A' for Active; 'I' for Inactive)
REMARK    1  A    between atoms: O_1  and  C_20
REMARK    2  A    between atoms: O_1  and  C_36
REMARK    3  A    between atoms: O_2  and  C_18
REMARK    4  A    between atoms: O_3  and  C_28
REMARK    5  A    between atoms: O_3  and  C_42
REMARK    6  A    between atoms: O_5  and  C_34
REMARK    7  A    between atoms: O_5  and  C_50
REMARK    8  A    between atoms: O_7  and  C_40
REMARK    9  A    between atoms: O_7  and  C_56
REMARK   10  A    between atoms: O_9  and  C_46
REMARK   11  A    between atoms: N_11  and  C_30
REMARK   12  A    between atoms: C_17  and  C_23
REMARK   13  A    between atoms: C_18  and  C_28
REMARK   14  A    between atoms: C_23  and  C_32
REMARK   15  A    between atoms: C_33  and  C_35
REMARK   16  A    between atoms: C_35  and  C_40
REMARK   17  A    between atoms: C_36  and  C_41
REMARK   18  A    between atoms: C_46  and  C_53
REMARK   19  A    between atoms: C_53  and  C_57
REMARK                            x       y       z     vdW  Elec       q    Type
REMARK                         _______ _______ _______ _____ _____    ______ ____
ROOT
ATOM      1  N   UNL     1     -13.502  -4.515  26.063  0.00  0.00    +0.000 NA
ATOM      2  N   UNL     1      -9.505  -7.026  25.355  0.00  0.00    +0.000 N 
ATOM      3  C   UNL     1     -11.529  -5.712  25.731  0.00  0.00    +0.000 C 
ATOM      4  C   UNL     1     -12.109  -4.544  26.548  0.00  0.00    +0.000 C 
ATOM      5  C   UNL     1      -9.988  -5.669  25.748  0.00  0.00    +0.000 C 
ATOM      6  C   UNL     1     -11.264  -3.193  26.428  0.00  0.00    +0.000 C 
ATOM      7  C   UNL     1      -9.343  -4.439  25.087  0.00  0.00    +0.000 C 
ATOM      8  C   UNL     1     -12.289  -5.680  24.391  0.00  0.00    +0.000 C 
ATOM      9  C   UNL     1     -10.271  -3.183  25.183  0.00  0.00    +0.000 C 
ATOM     10  C   UNL     1     -11.670  -7.121  26.275  0.00  0.00    +0.000 A 
ATOM     11  C   UNL     1     -13.489  -4.766  24.627  0.00  0.00    +0.000 C 
ATOM     12  C   UNL     1     -10.504  -7.839  25.976  0.00  0.00    +0.000 A 
ATOM     13  C   UNL     1     -12.176  -1.970  26.302  0.00  0.00    +0.000 C 
ATOM     14  C   UNL     1     -14.260  -3.337  26.454  0.00  0.00    +0.000 C 
ATOM     15  C   UNL     1     -13.513  -2.048  26.329  0.00  0.00    +0.000 C 
ATOM     16  C   UNL     1     -12.754  -7.710  26.916  0.00  0.00    +0.000 A 
ATOM     17  C   UNL     1      -8.131  -7.381  25.704  0.00  0.00    +0.000 C 
ATOM     18  C   UNL     1     -10.432  -9.183  26.288  0.00  0.00    +0.000 A 
ATOM     19  C   UNL     1     -12.710  -9.077  27.252  0.00  0.00    +0.000 A 
ATOM     20  C   UNL     1     -11.528  -9.800  26.912  0.00  0.00    +0.000 A 
ENDROOT
BRANCH  19  23
ATOM     21  N   UNL     1     -17.479 -11.164  29.987  0.00  0.00    +0.000 NA
ATOM     22  N   UNL     1     -14.688 -10.319  25.596  0.00  0.00    +0.000 N 
ATOM     23  C   UNL     1     -13.923  -9.805  27.959  0.00  0.00    +0.000 C 
ATOM     24  C   UNL     1     -14.952  -8.751  28.577  0.00  0.00    +0.000 C 
ATOM     25  C   UNL     1     -14.723 -10.678  26.932  0.00  0.00    +0.000 A 
ATOM     26  C   UNL     1     -16.336  -9.285  28.981  0.00  0.00    +0.000 C 
ATOM     27  C   UNL     1     -17.335  -8.216  29.420  0.00  0.00    +0.000 C 
ATOM     28  C   UNL     1     -16.302 -10.319  30.098  0.00  0.00    +0.000 C 
ATOM     29  C   UNL     1     -15.612 -11.763  27.021  0.00  0.00    +0.000 A 
ATOM     30  C   UNL     1     -18.720  -8.835  29.776  0.00  0.00    +0.000 C 
ATOM     31  C   UNL     1     -18.719 -10.375  30.147  0.00  0.00    +0.000 C 
ATOM     32  C   UNL     1     -16.131 -12.542  28.220  0.00  0.00    +0.000 C 
ATOM     33  C   UNL     1     -17.492 -12.022  28.774  0.00  0.00    +0.000 C 
ATOM     34  C   UNL     1     -16.053 -12.056  25.677  0.00  0.00    +0.000 A 
ATOM     35  C   UNL     1     -15.458 -11.141  24.821  0.00  0.00    +0.000 A 
ATOM     36  C   UNL     1     -16.926 -13.017  25.117  0.00  0.00    +0.000 A 
ATOM     37  C   UNL     1     -15.673 -11.131  23.438  0.00  0.00    +0.000 A 
ATOM     38  C   UNL     1     -17.155 -13.026  23.736  0.00  0.00    +0.000 A 
ATOM     39  C   UNL     1     -16.535 -12.095  22.909  0.00  0.00    +0.000 A 
ATOM     40  H   UNL     1     -14.143  -9.553  25.221  0.00  0.00    +0.000 HD
BRANCH  23  42
ATOM     41  O   UNL     1     -13.194 -11.887  29.145  0.00  0.00    +0.000 OA
ATOM     42  C   UNL     1     -13.277 -10.666  29.093  0.00  0.00    +0.000 C 
BRANCH  42  43
ATOM     43  O   UNL     1     -12.757  -9.845  30.066  0.00  0.00    +0.000 OA
ATOM     44  C   UNL     1     -11.571 -10.350  30.678  0.00  0.00    +0.000 C 
ENDBRANCH  42  43
ENDBRANCH  23  42
BRANCH  30  45
ATOM     45  O   UNL     1     -19.171  -8.112  30.949  0.00  0.00    +0.000 OA
ATOM     46  H   UNL     1     -18.448  -8.138  31.601  0.00  0.00    +0.000 HD
ENDBRANCH  30  45
BRANCH  30  47
ATOM     47  C   UNL     1     -19.784  -8.501  28.704  0.00  0.00    +0.000 C 
ATOM     48  C   UNL     1     -20.193  -9.634  27.778  0.00  0.00    +0.000 C 
ENDBRANCH  30  47
ENDBRANCH  19  23
BRANCH   7  49
ATOM     49  O   UNL     1      -8.164  -4.133  25.901  0.00  0.00    +0.000 OA
ATOM     50  H   UNL     1      -7.794  -4.997  26.175  0.00  0.00    +0.000 HD
ENDBRANCH   7  49
BRANCH   7  52
ATOM     51  O   UNL     1      -9.542  -5.214  22.737  0.00  0.00    +0.000 OA
ATOM     52  C   UNL     1      -8.876  -4.723  23.638  0.00  0.00    +0.000 C 
BRANCH  52  53
ATOM     53  O   UNL     1      -7.593  -4.260  23.468  0.00  0.00    +0.000 OA
ATOM     54  C   UNL     1      -7.436  -3.383  22.352  0.00  0.00    +0.000 C 
ENDBRANCH  52  53
ENDBRANCH   7  52
BRANCH  20  55
ATOM     55  O   UNL     1     -11.473 -11.121  27.278  0.00  0.00    +0.000 OA
ATOM     56  C   UNL     1     -10.161 -11.660  27.408  0.00  0.00    +0.000 C 
ENDBRANCH  20  55
BRANCH   6  57
ATOM     57  C   UNL     1     -10.423  -2.977  27.739  0.00  0.00    +0.000 C 
ATOM     58  C   UNL     1     -10.786  -3.858  28.936  0.00  0.00    +0.000 C 
ENDBRANCH   6  57
BRANCH   9  59
ATOM     59  O   UNL     1     -11.054  -2.992  23.981  0.00  0.00    +0.000 OA
BRANCH  59  61
ATOM     60  O   UNL     1     -10.259  -0.881  23.580  0.00  0.00    +0.000 OA
ATOM     61  C   UNL     1     -10.723  -1.941  23.184  0.00  0.00    +0.000 C 
ATOM     62  C   UNL     1     -10.975  -2.282  21.748  0.00  0.00    +0.000 C 
ENDBRANCH  59  61
ENDBRANCH   9  59
TORSDOF 12
ENDMDL
MODEL 9
REMARK VINA RESULT:      -5.8     21.199     26.011
REMARK  Name = 
REMARK  19 active torsions:
REMARK  status: ('A' for Active; 'I' for Inactive)
REMARK    1  A    between atoms: O_1  and  C_20
REMARK    2  A    between atoms: O_1  and  C_36
REMARK    3  A    between atoms: O_2  and  C_18
REMARK    4  A    between atoms: O_3  and  C_28
REMARK    5  A    between atoms: O_3  and  C_42
REMARK    6  A    between atoms: O_5  and  C_34
REMARK    7  A    between atoms: O_5  and  C_50
REMARK    8  A    between atoms: O_7  and  C_40
REMARK    9  A    between atoms: O_7  and  C_56
REMARK   10  A    between atoms: O_9  and  C_46
REMARK   11  A    between atoms: N_11  and  C_30
REMARK   12  A    between atoms: C_17  and  C_23
REMARK   13  A    between atoms: C_18  and  C_28
REMARK   14  A    between atoms: C_23  and  C_32
REMARK   15  A    between atoms: C_33  and  C_35
REMARK   16  A    between atoms: C_35  and  C_40
REMARK   17  A    between atoms: C_36  and  C_41
REMARK   18  A    between atoms: C_46  and  C_53
REMARK   19  A    between atoms: C_53  and  C_57
REMARK                            x       y       z     vdW  Elec       q    Type
REMARK                         _______ _______ _______ _____ _____    ______ ____
ROOT
ATOM      1  N   UNL     1      -9.094  -7.383  -1.068  0.00  0.00    +0.000 NA
ATOM      2  N   UNL     1      -5.978 -10.081  -3.475  0.00  0.00    +0.000 N 
ATOM      3  C   UNL     1      -7.593  -8.697  -2.276  0.00  0.00    +0.000 C 
ATOM      4  C   UNL     1      -8.679  -7.622  -2.463  0.00  0.00    +0.000 C 
ATOM      5  C   UNL     1      -7.305  -9.411  -3.612  0.00  0.00    +0.000 C 
ATOM      6  C   UNL     1      -9.818  -8.034  -3.506  0.00  0.00    +0.000 C 
ATOM      7  C   UNL     1      -8.474 -10.211  -4.211  0.00  0.00    +0.000 C 
ATOM      8  C   UNL     1      -8.041  -9.508  -1.045  0.00  0.00    +0.000 C 
ATOM      9  C   UNL     1      -9.856  -9.598  -3.808  0.00  0.00    +0.000 C 
ATOM     10  C   UNL     1      -6.169  -8.252  -2.006  0.00  0.00    +0.000 A 
ATOM     11  C   UNL     1      -9.126  -8.666  -0.377  0.00  0.00    +0.000 C 
ATOM     12  C   UNL     1      -5.291  -9.119  -2.672  0.00  0.00    +0.000 A 
ATOM     13  C   UNL     1     -11.207  -7.625  -3.010  0.00  0.00    +0.000 C 
ATOM     14  C   UNL     1     -10.309  -6.597  -0.919  0.00  0.00    +0.000 C 
ATOM     15  C   UNL     1     -11.410  -6.971  -1.858  0.00  0.00    +0.000 C 
ATOM     16  C   UNL     1      -5.710  -7.215  -1.200  0.00  0.00    +0.000 A 
ATOM     17  C   UNL     1      -5.280 -10.454  -4.705  0.00  0.00    +0.000 C 
ATOM     18  C   UNL     1      -3.928  -8.974  -2.499  0.00  0.00    +0.000 A 
ATOM     19  C   UNL     1      -4.326  -7.037  -1.008  0.00  0.00    +0.000 A 
ATOM     20  C   UNL     1      -3.449  -7.948  -1.668  0.00  0.00    +0.000 A 
ENDROOT
BRANCH  19  23
ATOM     21  N   UNL     1      -1.641  -2.778   2.028  0.00  0.00    +0.000 NA
ATOM     22  N   UNL     1      -5.373  -4.391  -1.327  0.00  0.00    +0.000 N 
ATOM     23  C   UNL     1      -3.750  -5.892  -0.083  0.00  0.00    +0.000 C 
ATOM     24  C   UNL     1      -2.274  -5.474  -0.526  0.00  0.00    +0.000 C 
ATOM     25  C   UNL     1      -4.638  -4.604  -0.173  0.00  0.00    +0.000 A 
ATOM     26  C   UNL     1      -1.724  -4.156   0.043  0.00  0.00    +0.000 C 
ATOM     27  C   UNL     1      -0.376  -3.721  -0.530  0.00  0.00    +0.000 C 
ATOM     28  C   UNL     1      -1.565  -4.150   1.557  0.00  0.00    +0.000 C 
ATOM     29  C   UNL     1      -4.836  -3.467   0.630  0.00  0.00    +0.000 A 
ATOM     30  C   UNL     1       0.092  -2.361   0.071  0.00  0.00    +0.000 C 
ATOM     31  C   UNL     1      -0.549  -1.957   1.461  0.00  0.00    +0.000 C 
ATOM     32  C   UNL     1      -4.239  -3.067   1.970  0.00  0.00    +0.000 C 
ATOM     33  C   UNL     1      -2.980  -2.156   1.858  0.00  0.00    +0.000 C 
ATOM     34  C   UNL     1      -5.757  -2.608  -0.078  0.00  0.00    +0.000 A 
ATOM     35  C   UNL     1      -6.068  -3.215  -1.285  0.00  0.00    +0.000 A 
ATOM     36  C   UNL     1      -6.341  -1.351   0.202  0.00  0.00    +0.000 A 
ATOM     37  C   UNL     1      -6.934  -2.649  -2.229  0.00  0.00    +0.000 A 
ATOM     38  C   UNL     1      -7.210  -0.767  -0.726  0.00  0.00    +0.000 A 
ATOM     39  C   UNL     1      -7.501  -1.409  -1.925  0.00  0.00    +0.000 A 
ATOM     40  H   UNL     1      -5.415  -5.034  -2.107  0.00  0.00    +0.000 HD
BRANCH  23  42
ATOM     41  O   UNL     1      -2.796  -7.046   1.926  0.00  0.00    +0.000 OA
ATOM     42  C   UNL     1      -3.735  -6.502   1.358  0.00  0.00    +0.000 C 
BRANCH  42  43
ATOM     43  O   UNL     1      -4.960  -6.318   1.957  0.00  0.00    +0.000 OA
ATOM     44  C   UNL     1      -5.339  -7.377   2.836  0.00  0.00    +0.000 C 
ENDBRANCH  42  43
ENDBRANCH  23  42
BRANCH  30  45
ATOM     45  O   UNL     1       1.518  -2.508   0.282  0.00  0.00    +0.000 OA
ATOM     46  H   UNL     1       1.927  -1.639   0.120  0.00  0.00    +0.000 HD
ENDBRANCH  30  45
BRANCH  30  47
ATOM     47  C   UNL     1      -0.013  -1.218  -0.965  0.00  0.00    +0.000 C 
ATOM     48  C   UNL     1      -1.398  -0.643  -1.205  0.00  0.00    +0.000 C 
ENDBRANCH  30  47
ENDBRANCH  19  23
BRANCH   7  49
ATOM     49  O   UNL     1      -8.363 -10.037  -5.661  0.00  0.00    +0.000 OA
ATOM     50  H   UNL     1      -8.609  -9.106  -5.840  0.00  0.00    +0.000 HD
ENDBRANCH   7  49
BRANCH   7  52
ATOM     51  O   UNL     1      -8.155 -12.230  -2.802  0.00  0.00    +0.000 OA
ATOM     52  C   UNL     1      -8.381 -11.724  -3.892  0.00  0.00    +0.000 C 
BRANCH  52  53
ATOM     53  O   UNL     1      -8.675 -12.451  -5.020  0.00  0.00    +0.000 OA
ATOM     54  C   UNL     1      -7.741 -13.497  -5.296  0.00  0.00    +0.000 C 
ENDBRANCH  52  53
ENDBRANCH   7  52
BRANCH  20  55
ATOM     55  O   UNL     1      -2.101  -7.746  -1.511  0.00  0.00    +0.000 OA
ATOM     56  C   UNL     1      -1.267  -8.539  -2.350  0.00  0.00    +0.000 C 
ENDBRANCH  20  55
BRANCH   6  57
ATOM     57  C   UNL     1      -9.596  -7.269  -4.862  0.00  0.00    +0.000 C 
ATOM     58  C   UNL     1      -8.623  -6.089  -4.829  0.00  0.00    +0.000 C 
ENDBRANCH   6  57
BRANCH   9  59
ATOM     59  O   UNL     1     -10.435 -10.266  -2.662  0.00  0.00    +0.000 OA
BRANCH  59  61
ATOM     60  O   UNL     1     -12.096 -11.213  -3.923  0.00  0.00    +0.000 OA
ATOM     61  C   UNL     1     -11.636 -10.879  -2.841  0.00  0.00    +0.000 C 
ATOM     62  C   UNL     1     -12.296 -11.117  -1.518  0.00  0.00    +0.000 C 
ENDBRANCH  59  61
ENDBRANCH   9  59
TORSDOF 12
ENDMDL
