MODEL 1
REMARK VINA RESULT:      -5.0      0.000      0.000
REMARK  Name = Vorinostat.pdbqt.pdb
REMARK  6 active torsions:
REMARK  status: ('A' for Active; 'I' for Inactive)
REMARK    1  A    between atoms: C_1  and  C_2
REMARK    2  A    between atoms: C_3  and  C_4
REMARK    3  A    between atoms: C_5  and  C_8
REMARK    4  A    between atoms: N_7  and  O_10
REMARK    5  A    between atoms: C_12  and  C_15
REMARK    6  A    between atoms: N_14  and  C_17
REMARK                            x       y       z     vdW  Elec       q    Type
REMARK                         _______ _______ _______ _____ _____    ______ ____
ROOT
ATOM      1  C   UNL     1       4.802  -8.103  12.636  0.00  0.00    +0.000 C 
ATOM      2  C   UNL     1       5.164  -6.617  12.722  0.00  0.00    +0.000 C 
ENDROOT
BRANCH   2   5
ATOM      3  O   UNL     1       5.009  -4.549  13.698  0.00  0.00    +0.000 OA
ATOM      4  N   UNL     1       6.378  -4.793  11.827  0.00  0.00    +0.000 N 
ATOM      5  C   UNL     1       5.505  -5.216  12.803  0.00  0.00    +0.000 C 
ATOM      6  H   UNL     1       6.694  -5.483  11.157  0.00  0.00    +0.000 HD
BRANCH   4   7
ATOM      7  C   UNL     1       6.869  -3.485  11.678  0.00  0.00    +0.000 A 
ATOM      8  C   UNL     1       6.488  -2.772  10.540  0.00  0.00    +0.000 A 
ATOM      9  C   UNL     1       7.709  -2.882  12.613  0.00  0.00    +0.000 A 
ATOM     10  C   UNL     1       6.944  -1.471  10.338  0.00  0.00    +0.000 A 
ATOM     11  C   UNL     1       8.165  -1.580  12.414  0.00  0.00    +0.000 A 
ATOM     12  C   UNL     1       7.782  -0.875  11.276  0.00  0.00    +0.000 A 
ENDBRANCH   4   7
ENDBRANCH   2   5
BRANCH   1  13
ATOM     13  C   UNL     1       4.440  -9.588  12.552  0.00  0.00    +0.000 C 
ATOM     14  C   UNL     1       4.077 -11.074  12.469  0.00  0.00    +0.000 C 
BRANCH  14  15
ATOM     15  C   UNL     1       3.714 -12.559  12.386  0.00  0.00    +0.000 C 
ATOM     16  C   UNL     1       3.350 -14.045  12.304  0.00  0.00    +0.000 C 
BRANCH  16  19
ATOM     17  O   UNL     1       3.393 -16.223  13.086  0.00  0.00    +0.000 OA
ATOM     18  N   UNL     1       2.236 -15.808  11.161  0.00  0.00    +0.000 N 
ATOM     19  C   UNL     1       3.007 -15.440  12.228  0.00  0.00    +0.000 C 
ATOM     20  H   UNL     1       1.874 -15.168  10.464  0.00  0.00    +0.000 HD
BRANCH  18  21
ATOM     21  O   UNL     1       1.849 -17.163  11.068  0.00  0.00    +0.000 OA
ATOM     22  H   UNL     1       1.653 -17.266  10.111  0.00  0.00    +0.000 HD
ENDBRANCH  18  21
ENDBRANCH  16  19
ENDBRANCH  14  15
ENDBRANCH   1  13
TORSDOF 6
ENDMDL
MODEL 2
REMARK VINA RESULT:      -5.0     13.518     16.934
REMARK  Name = Vorinostat.pdbqt.pdb
REMARK  6 active torsions:
REMARK  status: ('A' for Active; 'I' for Inactive)
REMARK    1  A    between atoms: C_1  and  C_2
REMARK    2  A    between atoms: C_3  and  C_4
REMARK    3  A    between atoms: C_5  and  C_8
REMARK    4  A    between atoms: N_7  and  O_10
REMARK    5  A    between atoms: C_12  and  C_15
REMARK    6  A    between atoms: N_14  and  C_17
REMARK                            x       y       z     vdW  Elec       q    Type
REMARK                         _______ _______ _______ _____ _____    ______ ____
ROOT
ATOM      1  C   UNL     1      -2.987  -3.572   2.209  0.00  0.00    +0.000 C 
ATOM      2  C   UNL     1      -3.391  -4.553   1.104  0.00  0.00    +0.000 C 
ENDROOT
BRANCH   2   5
ATOM      3  O   UNL     1      -4.505  -5.076  -0.830  0.00  0.00    +0.000 OA
ATOM      4  N   UNL     1      -3.245  -6.738   0.209  0.00  0.00    +0.000 N 
ATOM      5  C   UNL     1      -3.773  -5.476   0.061  0.00  0.00    +0.000 C 
ATOM      6  H   UNL     1      -2.652  -6.902   1.014  0.00  0.00    +0.000 HD
BRANCH   4   7
ATOM      7  C   UNL     1      -3.457  -7.822  -0.660  0.00  0.00    +0.000 A 
ATOM      8  C   UNL     1      -2.429  -8.161  -1.540  0.00  0.00    +0.000 A 
ATOM      9  C   UNL     1      -4.640  -8.560  -0.674  0.00  0.00    +0.000 A 
ATOM     10  C   UNL     1      -2.582  -9.226  -2.426  0.00  0.00    +0.000 A 
ATOM     11  C   UNL     1      -4.795  -9.626  -1.558  0.00  0.00    +0.000 A 
ATOM     12  C   UNL     1      -3.766  -9.958  -2.434  0.00  0.00    +0.000 A 
ENDBRANCH   4   7
ENDBRANCH   2   5
BRANCH   1  13
ATOM     13  C   UNL     1      -2.582  -2.590   3.312  0.00  0.00    +0.000 C 
ATOM     14  C   UNL     1      -2.176  -1.608   4.415  0.00  0.00    +0.000 C 
BRANCH  14  15
ATOM     15  C   UNL     1      -1.770  -0.628   5.519  0.00  0.00    +0.000 C 
ATOM     16  C   UNL     1      -1.365   0.354   6.624  0.00  0.00    +0.000 C 
BRANCH  16  19
ATOM     17  O   UNL     1      -1.605   2.319   7.822  0.00  0.00    +0.000 OA
ATOM     18  N   UNL     1       0.078   0.900   8.433  0.00  0.00    +0.000 N 
ATOM     19  C   UNL     1      -0.987   1.274   7.662  0.00  0.00    +0.000 C 
ATOM     20  H   UNL     1       0.575   0.023   8.341  0.00  0.00    +0.000 HD
BRANCH  18  21
ATOM     21  O   UNL     1       0.459   1.762   9.485  0.00  0.00    +0.000 OA
ATOM     22  H   UNL     1      -0.369   2.256   9.670  0.00  0.00    +0.000 HD
ENDBRANCH  18  21
ENDBRANCH  16  19
ENDBRANCH  14  15
ENDBRANCH   1  13
TORSDOF 6
ENDMDL
MODEL 3
REMARK VINA RESULT:      -5.0     11.816     17.713
REMARK  Name = Vorinostat.pdbqt.pdb
REMARK  6 active torsions:
REMARK  status: ('A' for Active; 'I' for Inactive)
REMARK    1  A    between atoms: C_1  and  C_2
REMARK    2  A    between atoms: C_3  and  C_4
REMARK    3  A    between atoms: C_5  and  C_8
REMARK    4  A    between atoms: N_7  and  O_10
REMARK    5  A    between atoms: C_12  and  C_15
REMARK    6  A    between atoms: N_14  and  C_17
REMARK                            x       y       z     vdW  Elec       q    Type
REMARK                         _______ _______ _______ _____ _____    ______ ____
ROOT
ATOM      1  C   UNL     1      -3.432 -15.180  20.562  0.00  0.00    +0.000 C 
ATOM      2  C   UNL     1      -4.597 -16.174  20.540  0.00  0.00    +0.000 C 
ENDROOT
BRANCH   2   5
ATOM      3  O   UNL     1      -5.527 -18.214  21.018  0.00  0.00    +0.000 OA
ATOM      4  N   UNL     1      -6.833 -16.629  19.915  0.00  0.00    +0.000 N 
ATOM      5  C   UNL     1      -5.694 -17.113  20.518  0.00  0.00    +0.000 C 
ATOM      6  H   UNL     1      -6.800 -15.685  19.550  0.00  0.00    +0.000 HD
BRANCH   4   7
ATOM      7  C   UNL     1      -8.039 -17.334  19.760  0.00  0.00    +0.000 A 
ATOM      8  C   UNL     1      -9.070 -17.064  20.662  0.00  0.00    +0.000 A 
ATOM      9  C   UNL     1      -8.240 -18.277  18.754  0.00  0.00    +0.000 A 
ATOM     10  C   UNL     1     -10.289 -17.732  20.558  0.00  0.00    +0.000 A 
ATOM     11  C   UNL     1      -9.459 -18.945  18.648  0.00  0.00    +0.000 A 
ATOM     12  C   UNL     1     -10.483 -18.672  19.550  0.00  0.00    +0.000 A 
ENDBRANCH   4   7
ENDBRANCH   2   5
BRANCH   1  13
ATOM     13  C   UNL     1      -2.266 -14.187  20.585  0.00  0.00    +0.000 C 
ATOM     14  C   UNL     1      -1.101 -13.193  20.607  0.00  0.00    +0.000 C 
BRANCH  14  15
ATOM     15  C   UNL     1       0.065 -12.201  20.628  0.00  0.00    +0.000 C 
ATOM     16  C   UNL     1       1.231 -11.206  20.649  0.00  0.00    +0.000 C 
BRANCH  16  19
ATOM     17  O   UNL     1       3.438 -10.626  21.031  0.00  0.00    +0.000 OA
ATOM     18  N   UNL     1       2.030  -9.001  20.257  0.00  0.00    +0.000 N 
ATOM     19  C   UNL     1       2.323 -10.271  20.668  0.00  0.00    +0.000 C 
ATOM     20  H   UNL     1       1.125  -8.701  19.916  0.00  0.00    +0.000 HD
BRANCH  18  21
ATOM     21  O   UNL     1       3.084  -8.062  20.231  0.00  0.00    +0.000 OA
ATOM     22  H   UNL     1       3.430  -8.100  21.149  0.00  0.00    +0.000 HD
ENDBRANCH  18  21
ENDBRANCH  16  19
ENDBRANCH  14  15
ENDBRANCH   1  13
TORSDOF 6
ENDMDL
MODEL 4
REMARK VINA RESULT:      -4.7      5.342      8.580
REMARK  Name = Vorinostat.pdbqt.pdb
REMARK  6 active torsions:
REMARK  status: ('A' for Active; 'I' for Inactive)
REMARK    1  A    between atoms: C_1  and  C_2
REMARK    2  A    between atoms: C_3  and  C_4
REMARK    3  A    between atoms: C_5  and  C_8
REMARK    4  A    between atoms: N_7  and  O_10
REMARK    5  A    between atoms: C_12  and  C_15
REMARK    6  A    between atoms: N_14  and  C_17
REMARK                            x       y       z     vdW  Elec       q    Type
REMARK                         _______ _______ _______ _____ _____    ______ ____
ROOT
ATOM      1  C   UNL     1       2.795 -16.169  12.822  0.00  0.00    +0.000 C 
ATOM      2  C   UNL     1       3.330 -14.788  12.434  0.00  0.00    +0.000 C 
ENDROOT
BRANCH   2   5
ATOM      3  O   UNL     1       4.904 -13.418  11.483  0.00  0.00    +0.000 OA
ATOM      4  N   UNL     1       3.014 -12.443  12.437  0.00  0.00    +0.000 N 
ATOM      5  C   UNL     1       3.834 -13.484  12.067  0.00  0.00    +0.000 C 
ATOM      6  H   UNL     1       2.155 -12.677  12.920  0.00  0.00    +0.000 HD
BRANCH   4   7
ATOM      7  C   UNL     1       3.265 -11.080  12.203  0.00  0.00    +0.000 A 
ATOM      8  C   UNL     1       4.278 -10.469  12.943  0.00  0.00    +0.000 A 
ATOM      9  C   UNL     1       2.550 -10.329  11.271  0.00  0.00    +0.000 A 
ATOM     10  C   UNL     1       4.573  -9.121  12.755  0.00  0.00    +0.000 A 
ATOM     11  C   UNL     1       2.843  -8.979  11.081  0.00  0.00    +0.000 A 
ATOM     12  C   UNL     1       3.855  -8.376  11.823  0.00  0.00    +0.000 A 
ENDBRANCH   4   7
ENDBRANCH   2   5
BRANCH   1  13
ATOM     13  C   UNL     1       2.259 -17.550  13.211  0.00  0.00    +0.000 C 
ATOM     14  C   UNL     1       1.724 -18.931  13.601  0.00  0.00    +0.000 C 
BRANCH  14  15
ATOM     15  C   UNL     1       1.189 -20.312  13.990  0.00  0.00    +0.000 C 
ATOM     16  C   UNL     1       0.652 -21.693  14.380  0.00  0.00    +0.000 C 
BRANCH  16  19
ATOM     17  O   UNL     1       0.752 -24.005  14.428  0.00  0.00    +0.000 OA
ATOM     18  N   UNL     1      -1.020 -22.996  15.457  0.00  0.00    +0.000 N 
ATOM     19  C   UNL     1       0.147 -22.989  14.746  0.00  0.00    +0.000 C 
ATOM     20  H   UNL     1      -1.513 -22.166  15.763  0.00  0.00    +0.000 HD
BRANCH  18  21
ATOM     21  O   UNL     1      -1.531 -24.248  15.864  0.00  0.00    +0.000 OA
ATOM     22  H   UNL     1      -1.223 -24.315  16.794  0.00  0.00    +0.000 HD
ENDBRANCH  18  21
ENDBRANCH  16  19
ENDBRANCH  14  15
ENDBRANCH   1  13
TORSDOF 6
ENDMDL
MODEL 5
REMARK VINA RESULT:      -4.7     17.770     21.019
REMARK  Name = Vorinostat.pdbqt.pdb
REMARK  6 active torsions:
REMARK  status: ('A' for Active; 'I' for Inactive)
REMARK    1  A    between atoms: C_1  and  C_2
REMARK    2  A    between atoms: C_3  and  C_4
REMARK    3  A    between atoms: C_5  and  C_8
REMARK    4  A    between atoms: N_7  and  O_10
REMARK    5  A    between atoms: C_12  and  C_15
REMARK    6  A    between atoms: N_14  and  C_17
REMARK                            x       y       z     vdW  Elec       q    Type
REMARK                         _______ _______ _______ _____ _____    ______ ____
ROOT
ATOM      1  C   UNL     1      -7.546   5.268   6.986  0.00  0.00    +0.000 C 
ATOM      2  C   UNL     1      -8.960   5.577   6.487  0.00  0.00    +0.000 C 
ENDROOT
BRANCH   2   5
ATOM      3  O   UNL     1     -10.617   5.485   4.905  0.00  0.00    +0.000 OA
ATOM      4  N   UNL     1     -11.065   6.569   6.919  0.00  0.00    +0.000 N 
ATOM      5  C   UNL     1     -10.295   5.869   6.018  0.00  0.00    +0.000 C 
ATOM      6  H   UNL     1     -10.638   6.811   7.805  0.00  0.00    +0.000 HD
BRANCH   4   7
ATOM      7  C   UNL     1     -12.394   6.980   6.716  0.00  0.00    +0.000 A 
ATOM      8  C   UNL     1     -12.619   8.317   6.387  0.00  0.00    +0.000 A 
ATOM      9  C   UNL     1     -13.478   6.111   6.828  0.00  0.00    +0.000 A 
ATOM     10  C   UNL     1     -13.915   8.782   6.174  0.00  0.00    +0.000 A 
ATOM     11  C   UNL     1     -14.776   6.573   6.615  0.00  0.00    +0.000 A 
ATOM     12  C   UNL     1     -14.994   7.909   6.288  0.00  0.00    +0.000 A 
ENDBRANCH   4   7
ENDBRANCH   2   5
BRANCH   1  13
ATOM     13  C   UNL     1      -6.132   4.960   7.485  0.00  0.00    +0.000 C 
ATOM     14  C   UNL     1      -4.717   4.650   7.985  0.00  0.00    +0.000 C 
BRANCH  14  15
ATOM     15  C   UNL     1      -3.303   4.342   8.486  0.00  0.00    +0.000 C 
ATOM     16  C   UNL     1      -1.889   4.032   8.986  0.00  0.00    +0.000 C 
BRANCH  16  19
ATOM     17  O   UNL     1       0.186   4.644   9.810  0.00  0.00    +0.000 OA
ATOM     18  N   UNL     1      -0.212   2.419   9.475  0.00  0.00    +0.000 N 
ATOM     19  C   UNL     1      -0.560   3.740   9.454  0.00  0.00    +0.000 C 
ATOM     20  H   UNL     1      -0.828   1.656   9.223  0.00  0.00    +0.000 HD
BRANCH  18  21
ATOM     21  O   UNL     1       1.073   2.089   9.959  0.00  0.00    +0.000 OA
ATOM     22  H   UNL     1       1.457   2.968  10.170  0.00  0.00    +0.000 HD
ENDBRANCH  18  21
ENDBRANCH  16  19
ENDBRANCH  14  15
ENDBRANCH   1  13
TORSDOF 6
ENDMDL
MODEL 6
REMARK VINA RESULT:      -4.7     27.498     28.611
REMARK  Name = Vorinostat.pdbqt.pdb
REMARK  6 active torsions:
REMARK  status: ('A' for Active; 'I' for Inactive)
REMARK    1  A    between atoms: C_1  and  C_2
REMARK    2  A    between atoms: C_3  and  C_4
REMARK    3  A    between atoms: C_5  and  C_8
REMARK    4  A    between atoms: N_7  and  O_10
REMARK    5  A    between atoms: C_12  and  C_15
REMARK    6  A    between atoms: N_14  and  C_17
REMARK                            x       y       z     vdW  Elec       q    Type
REMARK                         _______ _______ _______ _____ _____    ______ ____
ROOT
ATOM      1  C   UNL     1     -21.832  -6.267   5.502  0.00  0.00    +0.000 C 
ATOM      2  C   UNL     1     -21.852  -6.347   3.972  0.00  0.00    +0.000 C 
ENDROOT
BRANCH   2   5
ATOM      3  O   UNL     1     -22.812  -5.923   1.934  0.00  0.00    +0.000 OA
ATOM      4  N   UNL     1     -20.781  -7.065   1.988  0.00  0.00    +0.000 N 
ATOM      5  C   UNL     1     -21.870  -6.420   2.530  0.00  0.00    +0.000 C 
ATOM      6  H   UNL     1     -20.085  -7.422   2.631  0.00  0.00    +0.000 HD
BRANCH   4   7
ATOM      7  C   UNL     1     -20.552  -7.274   0.617  0.00  0.00    +0.000 A 
ATOM      8  C   UNL     1     -19.520  -6.556   0.013  0.00  0.00    +0.000 A 
ATOM      9  C   UNL     1     -21.308  -8.160  -0.149  0.00  0.00    +0.000 A 
ATOM     10  C   UNL     1     -19.246  -6.720  -1.343  0.00  0.00    +0.000 A 
ATOM     11  C   UNL     1     -21.036  -8.328  -1.506  0.00  0.00    +0.000 A 
ATOM     12  C   UNL     1     -20.004  -7.608  -2.102  0.00  0.00    +0.000 A 
ENDBRANCH   4   7
ENDBRANCH   2   5
BRANCH   1  13
ATOM     13  C   UNL     1     -21.811  -6.188   7.031  0.00  0.00    +0.000 C 
ATOM     14  C   UNL     1     -21.790  -6.109   8.560  0.00  0.00    +0.000 C 
BRANCH  14  15
ATOM     15  C   UNL     1     -21.769  -6.030  10.089  0.00  0.00    +0.000 C 
ATOM     16  C   UNL     1     -21.750  -5.951  11.619  0.00  0.00    +0.000 C 
BRANCH  16  19
ATOM     17  O   UNL     1     -21.338  -6.829  13.721  0.00  0.00    +0.000 OA
ATOM     18  N   UNL     1     -22.173  -4.705  13.600  0.00  0.00    +0.000 N 
ATOM     19  C   UNL     1     -21.733  -5.880  13.056  0.00  0.00    +0.000 C 
ATOM     20  H   UNL     1     -22.465  -3.897  13.066  0.00  0.00    +0.000 HD
BRANCH  18  21
ATOM     21  O   UNL     1     -22.140  -4.584  15.006  0.00  0.00    +0.000 OA
ATOM     22  H   UNL     1     -21.231  -4.882  15.228  0.00  0.00    +0.000 HD
ENDBRANCH  18  21
ENDBRANCH  16  19
ENDBRANCH  14  15
ENDBRANCH   1  13
TORSDOF 6
ENDMDL
MODEL 7
REMARK VINA RESULT:      -4.6      5.295      8.391
REMARK  Name = Vorinostat.pdbqt.pdb
REMARK  6 active torsions:
REMARK  status: ('A' for Active; 'I' for Inactive)
REMARK    1  A    between atoms: C_1  and  C_2
REMARK    2  A    between atoms: C_3  and  C_4
REMARK    3  A    between atoms: C_5  and  C_8
REMARK    4  A    between atoms: N_7  and  O_10
REMARK    5  A    between atoms: C_12  and  C_15
REMARK    6  A    between atoms: N_14  and  C_17
REMARK                            x       y       z     vdW  Elec       q    Type
REMARK                         _______ _______ _______ _____ _____    ______ ____
ROOT
ATOM      1  C   UNL     1       2.594 -16.152  12.456  0.00  0.00    +0.000 C 
ATOM      2  C   UNL     1       2.899 -14.685  12.771  0.00  0.00    +0.000 C 
ENDROOT
BRANCH   2   5
ATOM      3  O   UNL     1       3.357 -12.978  14.231  0.00  0.00    +0.000 OA
ATOM      4  N   UNL     1       3.232 -12.489  11.956  0.00  0.00    +0.000 N 
ATOM      5  C   UNL     1       3.186 -13.300  13.066  0.00  0.00    +0.000 C 
ATOM      6  H   UNL     1       3.065 -12.922  11.056  0.00  0.00    +0.000 HD
BRANCH   4   7
ATOM      7  C   UNL     1       3.490 -11.107  11.962  0.00  0.00    +0.000 A 
ATOM      8  C   UNL     1       2.468 -10.252  11.548  0.00  0.00    +0.000 A 
ATOM      9  C   UNL     1       4.713 -10.568  12.361  0.00  0.00    +0.000 A 
ATOM     10  C   UNL     1       2.666  -8.873  11.533  0.00  0.00    +0.000 A 
ATOM     11  C   UNL     1       4.913  -9.189  12.347  0.00  0.00    +0.000 A 
ATOM     12  C   UNL     1       3.889  -8.342  11.933  0.00  0.00    +0.000 A 
ENDBRANCH   4   7
ENDBRANCH   2   5
BRANCH   1  13
ATOM     13  C   UNL     1       2.288 -17.619  12.142  0.00  0.00    +0.000 C 
ATOM     14  C   UNL     1       1.982 -19.087  11.827  0.00  0.00    +0.000 C 
BRANCH  14  15
ATOM     15  C   UNL     1       1.675 -20.554  11.512  0.00  0.00    +0.000 C 
ATOM     16  C   UNL     1       1.367 -22.021  11.197  0.00  0.00    +0.000 C 
BRANCH  16  19
ATOM     17  O   UNL     1       1.803 -24.041  10.154  0.00  0.00    +0.000 OA
ATOM     18  N   UNL     1      -0.033 -23.918  11.510  0.00  0.00    +0.000 N 
ATOM     19  C   UNL     1       1.077 -23.399  10.903  0.00  0.00    +0.000 C 
ATOM     20  H   UNL     1      -0.621 -23.414  12.162  0.00  0.00    +0.000 HD
BRANCH  18  21
ATOM     21  O   UNL     1      -0.334 -25.277  11.272  0.00  0.00    +0.000 OA
ATOM     22  H   UNL     1      -0.150 -25.373  10.312  0.00  0.00    +0.000 HD
ENDBRANCH  18  21
ENDBRANCH  16  19
ENDBRANCH  14  15
ENDBRANCH   1  13
TORSDOF 6
ENDMDL
MODEL 8
REMARK VINA RESULT:      -4.5     26.783     27.303
REMARK  Name = Vorinostat.pdbqt.pdb
REMARK  6 active torsions:
REMARK  status: ('A' for Active; 'I' for Inactive)
REMARK    1  A    between atoms: C_1  and  C_2
REMARK    2  A    between atoms: C_3  and  C_4
REMARK    3  A    between atoms: C_5  and  C_8
REMARK    4  A    between atoms: N_7  and  O_10
REMARK    5  A    between atoms: C_12  and  C_15
REMARK    6  A    between atoms: N_14  and  C_17
REMARK                            x       y       z     vdW  Elec       q    Type
REMARK                         _______ _______ _______ _____ _____    ______ ____
ROOT
ATOM      1  C   UNL     1     -20.113   2.547  11.536  0.00  0.00    +0.000 C 
ATOM      2  C   UNL     1     -19.445   3.364  12.646  0.00  0.00    +0.000 C 
ENDROOT
BRANCH   2   5
ATOM      3  O   UNL     1     -19.432   5.065  14.184  0.00  0.00    +0.000 OA
ATOM      4  N   UNL     1     -17.546   3.706  14.016  0.00  0.00    +0.000 N 
ATOM      5  C   UNL     1     -18.813   4.134  13.692  0.00  0.00    +0.000 C 
ATOM      6  H   UNL     1     -17.180   2.911  13.506  0.00  0.00    +0.000 HD
BRANCH   4   7
ATOM      7  C   UNL     1     -16.714   4.276  14.995  0.00  0.00    +0.000 A 
ATOM      8  C   UNL     1     -15.976   5.407  14.643  0.00  0.00    +0.000 A 
ATOM      9  C   UNL     1     -16.602   3.761  16.285  0.00  0.00    +0.000 A 
ATOM     10  C   UNL     1     -15.134   6.016  15.571  0.00  0.00    +0.000 A 
ATOM     11  C   UNL     1     -15.761   4.368  17.216  0.00  0.00    +0.000 A 
ATOM     12  C   UNL     1     -15.027   5.496  16.858  0.00  0.00    +0.000 A 
ENDBRANCH   4   7
ENDBRANCH   2   5
BRANCH   1  13
ATOM     13  C   UNL     1     -20.781   1.732  10.425  0.00  0.00    +0.000 C 
ATOM     14  C   UNL     1     -21.449   0.917   9.314  0.00  0.00    +0.000 C 
BRANCH  14  15
ATOM     15  C   UNL     1     -22.118   0.102   8.203  0.00  0.00    +0.000 C 
ATOM     16  C   UNL     1     -22.787  -0.713   7.092  0.00  0.00    +0.000 C 
BRANCH  16  19
ATOM     17  O   UNL     1     -24.466  -2.070   6.258  0.00  0.00    +0.000 OA
ATOM     18  N   UNL     1     -22.775  -1.478   4.840  0.00  0.00    +0.000 N 
ATOM     19  C   UNL     1     -23.416  -1.475   6.047  0.00  0.00    +0.000 C 
ATOM     20  H   UNL     1     -21.929  -0.961   4.637  0.00  0.00    +0.000 HD
BRANCH  18  21
ATOM     21  O   UNL     1     -23.378  -2.189   3.780  0.00  0.00    +0.000 OA
ATOM     22  H   UNL     1     -22.840  -1.917   3.004  0.00  0.00    +0.000 HD
ENDBRANCH  18  21
ENDBRANCH  16  19
ENDBRANCH  14  15
ENDBRANCH   1  13
TORSDOF 6
ENDMDL
MODEL 9
REMARK VINA RESULT:      -4.5      2.488      3.636
REMARK  Name = Vorinostat.pdbqt.pdb
REMARK  6 active torsions:
REMARK  status: ('A' for Active; 'I' for Inactive)
REMARK    1  A    between atoms: C_1  and  C_2
REMARK    2  A    between atoms: C_3  and  C_4
REMARK    3  A    between atoms: C_5  and  C_8
REMARK    4  A    between atoms: N_7  and  O_10
REMARK    5  A    between atoms: C_12  and  C_15
REMARK    6  A    between atoms: N_14  and  C_17
REMARK                            x       y       z     vdW  Elec       q    Type
REMARK                         _______ _______ _______ _____ _____    ______ ____
ROOT
ATOM      1  C   UNL     1       4.790 -11.274  12.774  0.00  0.00    +0.000 C 
ATOM      2  C   UNL     1       5.413  -9.875  12.767  0.00  0.00    +0.000 C 
ENDROOT
BRANCH   2   5
ATOM      3  O   UNL     1       7.073  -8.401  12.195  0.00  0.00    +0.000 OA
ATOM      4  N   UNL     1       5.255  -7.606  13.418  0.00  0.00    +0.000 N 
ATOM      5  C   UNL     1       6.003  -8.556  12.761  0.00  0.00    +0.000 C 
ATOM      6  H   UNL     1       4.383  -7.907  13.836  0.00  0.00    +0.000 HD
BRANCH   4   7
ATOM      7  C   UNL     1       5.597  -6.250  13.561  0.00  0.00    +0.000 A 
ATOM      8  C   UNL     1       5.796  -5.761  14.853  0.00  0.00    +0.000 A 
ATOM      9  C   UNL     1       5.744  -5.389  12.474  0.00  0.00    +0.000 A 
ATOM     10  C   UNL     1       6.137  -4.426  15.056  0.00  0.00    +0.000 A 
ATOM     11  C   UNL     1       6.085  -4.053  12.675  0.00  0.00    +0.000 A 
ATOM     12  C   UNL     1       6.282  -3.572  13.966  0.00  0.00    +0.000 A 
ENDBRANCH   4   7
ENDBRANCH   2   5
BRANCH   1  13
ATOM     13  C   UNL     1       4.168 -12.673  12.780  0.00  0.00    +0.000 C 
ATOM     14  C   UNL     1       3.547 -14.074  12.786  0.00  0.00    +0.000 C 
BRANCH  14  15
ATOM     15  C   UNL     1       2.927 -15.473  12.791  0.00  0.00    +0.000 C 
ATOM     16  C   UNL     1       2.305 -16.874  12.796  0.00  0.00    +0.000 C 
BRANCH  16  19
ATOM     17  O   UNL     1       1.586 -18.806  13.848  0.00  0.00    +0.000 OA
ATOM     18  N   UNL     1       1.329 -18.671  11.582  0.00  0.00    +0.000 N 
ATOM     19  C   UNL     1       1.719 -18.187  12.800  0.00  0.00    +0.000 C 
ATOM     20  H   UNL     1       1.394 -18.159  10.711  0.00  0.00    +0.000 HD
BRANCH  18  21
ATOM     21  O   UNL     1       0.719 -19.944  11.548  0.00  0.00    +0.000 OA
ATOM     22  H   UNL     1       0.652 -20.125  10.585  0.00  0.00    +0.000 HD
ENDBRANCH  18  21
ENDBRANCH  16  19
ENDBRANCH  14  15
ENDBRANCH   1  13
TORSDOF 6
ENDMDL
