MODEL 1
REMARK VINA RESULT:      -6.8      0.000      0.000
REMARK  Name = 10074640_Masitinib.pdbqt.pdb
REMARK  6 active torsions:
REMARK  status: ('A' for Active; 'I' for Inactive)
REMARK    1  A    between atoms: C_1  and  N_22
REMARK    2  A    between atoms: C_2  and  N_9
REMARK    3  A    between atoms: C_12  and  C_16
REMARK    4  A    between atoms: C_23  and  C_30
REMARK    5  A    between atoms: C_25  and  C_31
REMARK    6  A    between atoms: C_31  and  N_32
REMARK                            x       y       z     vdW  Elec       q    Type
REMARK                         _______ _______ _______ _____ _____    ______ ____
ROOT
ATOM      1  C   UNL     1      -9.412 -13.656   4.785  0.00  0.00    +0.000 A 
ATOM      2  C   UNL     1      -9.801 -12.906   2.486  0.00  0.00    +0.000 A 
ATOM      3  C   UNL     1     -10.273 -13.308   3.743  0.00  0.00    +0.000 A 
ATOM      4  C   UNL     1      -8.404 -12.864   2.308  0.00  0.00    +0.000 A 
ATOM      5  C   UNL     1      -8.036 -13.581   4.584  0.00  0.00    +0.000 A 
ATOM      6  C   UNL     1      -7.531 -13.195   3.345  0.00  0.00    +0.000 A 
ATOM      7  C   UNL     1      -7.808 -12.451   0.977  0.00  0.00    +0.000 C 
ENDROOT
BRANCH   2   9
ATOM      8  S   UNL     1     -12.655 -11.290   0.135  0.00  0.00    +0.000 S 
ATOM      9  N   UNL     1     -10.677 -12.513   1.446  0.00  0.00    +0.000 N 
ATOM     10  N   UNL     1     -11.740 -10.631   2.440  0.00  0.00    +0.000 NA
ATOM     11  C   UNL     1     -11.584 -11.512   1.476  0.00  0.00    +0.000 A 
ATOM     12  C   UNL     1     -12.764  -9.751   2.151  0.00  0.00    +0.000 A 
ATOM     13  C   UNL     1     -13.366  -9.974   0.937  0.00  0.00    +0.000 A 
ATOM     14  H   UNL     1     -10.567 -13.057   0.593  0.00  0.00    +0.000 HD
BRANCH  12  16
ATOM     15  N   UNL     1     -12.797  -7.575   5.185  0.00  0.00    +0.000 NA
ATOM     16  C   UNL     1     -13.138  -8.688   3.058  0.00  0.00    +0.000 A 
ATOM     17  C   UNL     1     -14.109  -7.747   2.729  0.00  0.00    +0.000 A 
ATOM     18  C   UNL     1     -12.521  -8.560   4.295  0.00  0.00    +0.000 A 
ATOM     19  C   UNL     1     -14.431  -6.729   3.619  0.00  0.00    +0.000 A 
ATOM     20  C   UNL     1     -13.749  -6.689   4.823  0.00  0.00    +0.000 A 
ENDBRANCH  12  16
ENDBRANCH   2   9
BRANCH   1  22
ATOM     21  O   UNL     1      -9.994 -16.351   5.699  0.00  0.00    +0.000 OA
ATOM     22  N   UNL     1      -9.873 -14.061   6.054  0.00  0.00    +0.000 N 
ATOM     23  C   UNL     1     -10.176 -15.368   6.407  0.00  0.00    +0.000 C 
ATOM     24  H   UNL     1      -9.954 -13.331   6.753  0.00  0.00    +0.000 HD
BRANCH  23  30
ATOM     25  C   UNL     1     -11.882 -15.914  10.282  0.00  0.00    +0.000 A 
ATOM     26  C   UNL     1     -10.497 -15.921  10.143  0.00  0.00    +0.000 A 
ATOM     27  C   UNL     1     -12.700 -15.736   9.170  0.00  0.00    +0.000 A 
ATOM     28  C   UNL     1      -9.926 -15.747   8.884  0.00  0.00    +0.000 A 
ATOM     29  C   UNL     1     -12.128 -15.564   7.912  0.00  0.00    +0.000 A 
ATOM     30  C   UNL     1     -10.738 -15.570   7.764  0.00  0.00    +0.000 A 
BRANCH  25  31
ATOM     31  C   UNL     1     -12.467 -16.090  11.571  0.00  0.00    +0.000 C 
BRANCH  31  32
ATOM     32  N   UNL     1     -13.067 -16.271  12.887  0.00  0.00    +0.000 N 
ATOM     33  N   UNL     1     -16.607 -16.019  12.998  0.00  0.00    +0.000 N 
ATOM     34  C   UNL     1     -13.979 -15.114  13.108  0.00  0.00    +0.000 C 
ATOM     35  C   UNL     1     -14.146 -17.287  12.734  0.00  0.00    +0.000 C 
ATOM     36  C   UNL     1     -15.529 -15.005  13.166  0.00  0.00    +0.000 C 
ATOM     37  C   UNL     1     -15.696 -17.178  12.791  0.00  0.00    +0.000 C 
ATOM     38  C   UNL     1     -17.232 -16.195  14.301  0.00  0.00    +0.000 C 
ENDBRANCH  31  32
ENDBRANCH  25  31
ENDBRANCH  23  30
ENDBRANCH   1  22
TORSDOF 6
ENDMDL
MODEL 2
REMARK VINA RESULT:      -6.6      2.145      2.844
REMARK  Name = 10074640_Masitinib.pdbqt.pdb
REMARK  6 active torsions:
REMARK  status: ('A' for Active; 'I' for Inactive)
REMARK    1  A    between atoms: C_1  and  N_22
REMARK    2  A    between atoms: C_2  and  N_9
REMARK    3  A    between atoms: C_12  and  C_16
REMARK    4  A    between atoms: C_23  and  C_30
REMARK    5  A    between atoms: C_25  and  C_31
REMARK    6  A    between atoms: C_31  and  N_32
REMARK                            x       y       z     vdW  Elec       q    Type
REMARK                         _______ _______ _______ _____ _____    ______ ____
ROOT
ATOM      1  C   UNL     1      -9.856 -14.934   4.779  0.00  0.00    +0.000 A 
ATOM      2  C   UNL     1      -8.497 -13.863   3.046  0.00  0.00    +0.000 A 
ATOM      3  C   UNL     1      -8.942 -13.962   4.371  0.00  0.00    +0.000 A 
ATOM      4  C   UNL     1      -9.013 -14.795   2.124  0.00  0.00    +0.000 A 
ATOM      5  C   UNL     1     -10.329 -15.855   3.848  0.00  0.00    +0.000 A 
ATOM      6  C   UNL     1      -9.918 -15.781   2.520  0.00  0.00    +0.000 A 
ATOM      7  C   UNL     1      -8.595 -14.753   0.668  0.00  0.00    +0.000 C 
ENDROOT
BRANCH   2   9
ATOM      8  S   UNL     1      -6.439 -10.739   1.531  0.00  0.00    +0.000 S 
ATOM      9  N   UNL     1      -7.537 -12.903   2.647  0.00  0.00    +0.000 N 
ATOM     10  N   UNL     1      -8.948 -11.152   1.872  0.00  0.00    +0.000 NA
ATOM     11  C   UNL     1      -7.772 -11.705   2.066  0.00  0.00    +0.000 A 
ATOM     12  C   UNL     1      -8.827  -9.927   1.244  0.00  0.00    +0.000 A 
ATOM     13  C   UNL     1      -7.529  -9.558   0.987  0.00  0.00    +0.000 A 
ATOM     14  H   UNL     1      -6.578 -13.173   2.854  0.00  0.00    +0.000 HD
BRANCH  12  16
ATOM     15  N   UNL     1     -12.171  -8.294   1.545  0.00  0.00    +0.000 NA
ATOM     16  C   UNL     1      -9.980  -9.120   0.914  0.00  0.00    +0.000 A 
ATOM     17  C   UNL     1     -10.043  -8.371  -0.257  0.00  0.00    +0.000 A 
ATOM     18  C   UNL     1     -11.069  -9.051   1.772  0.00  0.00    +0.000 A 
ATOM     19  C   UNL     1     -11.161  -7.592  -0.535  0.00  0.00    +0.000 A 
ATOM     20  C   UNL     1     -12.188  -7.589   0.394  0.00  0.00    +0.000 A 
ENDBRANCH  12  16
ENDBRANCH   2   9
BRANCH   1  22
ATOM     21  O   UNL     1      -9.046 -16.869   6.790  0.00  0.00    +0.000 OA
ATOM     22  N   UNL     1     -10.311 -15.046   6.109  0.00  0.00    +0.000 N 
ATOM     23  C   UNL     1      -9.912 -16.029   7.002  0.00  0.00    +0.000 C 
ATOM     24  H   UNL     1     -10.954 -14.328   6.422  0.00  0.00    +0.000 HD
BRANCH  23  30
ATOM     25  C   UNL     1     -11.925 -15.992  10.768  0.00  0.00    +0.000 A 
ATOM     26  C   UNL     1     -10.533 -16.033  10.742  0.00  0.00    +0.000 A 
ATOM     27  C   UNL     1     -12.650 -15.968   9.580  0.00  0.00    +0.000 A 
ATOM     28  C   UNL     1      -9.863 -16.049   9.520  0.00  0.00    +0.000 A 
ATOM     29  C   UNL     1     -11.979 -15.986   8.360  0.00  0.00    +0.000 A 
ATOM     30  C   UNL     1     -10.582 -16.027   8.325  0.00  0.00    +0.000 A 
BRANCH  25  31
ATOM     31  C   UNL     1     -12.611 -15.975  12.018  0.00  0.00    +0.000 C 
BRANCH  31  32
ATOM     32  N   UNL     1     -13.315 -15.957  13.294  0.00  0.00    +0.000 N 
ATOM     33  N   UNL     1     -16.859 -16.004  13.084  0.00  0.00    +0.000 N 
ATOM     34  C   UNL     1     -14.325 -14.865  13.216  0.00  0.00    +0.000 C 
ATOM     35  C   UNL     1     -14.299 -17.076  13.260  0.00  0.00    +0.000 C 
ATOM     36  C   UNL     1     -15.878 -14.886  13.133  0.00  0.00    +0.000 C 
ATOM     37  C   UNL     1     -15.851 -17.096  13.176  0.00  0.00    +0.000 C 
ATOM     38  C   UNL     1     -17.587 -15.988  14.344  0.00  0.00    +0.000 C 
ENDBRANCH  31  32
ENDBRANCH  25  31
ENDBRANCH  23  30
ENDBRANCH   1  22
TORSDOF 6
ENDMDL
MODEL 3
REMARK VINA RESULT:      -6.5     15.317     19.479
REMARK  Name = 10074640_Masitinib.pdbqt.pdb
REMARK  6 active torsions:
REMARK  status: ('A' for Active; 'I' for Inactive)
REMARK    1  A    between atoms: C_1  and  N_22
REMARK    2  A    between atoms: C_2  and  N_9
REMARK    3  A    between atoms: C_12  and  C_16
REMARK    4  A    between atoms: C_23  and  C_30
REMARK    5  A    between atoms: C_25  and  C_31
REMARK    6  A    between atoms: C_31  and  N_32
REMARK                            x       y       z     vdW  Elec       q    Type
REMARK                         _______ _______ _______ _____ _____    ______ ____
ROOT
ATOM      1  C   UNL     1     -19.741  -2.286  21.135  0.00  0.00    +0.000 A 
ATOM      2  C   UNL     1     -18.693  -0.350  22.209  0.00  0.00    +0.000 A 
ATOM      3  C   UNL     1     -18.820  -1.236  21.131  0.00  0.00    +0.000 A 
ATOM      4  C   UNL     1     -19.539  -0.559  23.316  0.00  0.00    +0.000 A 
ATOM      5  C   UNL     1     -20.579  -2.450  22.235  0.00  0.00    +0.000 A 
ATOM      6  C   UNL     1     -20.473  -1.595  23.329  0.00  0.00    +0.000 A 
ATOM      7  C   UNL     1     -19.459   0.346  24.529  0.00  0.00    +0.000 C 
ENDROOT
BRANCH   2   9
ATOM      8  S   UNL     1     -16.391   2.843  21.315  0.00  0.00    +0.000 S 
ATOM      9  N   UNL     1     -17.789   0.738  22.182  0.00  0.00    +0.000 N 
ATOM     10  N   UNL     1     -18.441   1.815  20.163  0.00  0.00    +0.000 NA
ATOM     11  C   UNL     1     -17.661   1.671  21.212  0.00  0.00    +0.000 A 
ATOM     12  C   UNL     1     -18.021   2.865  19.369  0.00  0.00    +0.000 A 
ATOM     13  C   UNL     1     -16.919   3.525  19.854  0.00  0.00    +0.000 A 
ATOM     14  H   UNL     1     -17.200   0.801  23.010  0.00  0.00    +0.000 HD
BRANCH  12  16
ATOM     15  N   UNL     1     -20.813   3.567  16.991  0.00  0.00    +0.000 NA
ATOM     16  C   UNL     1     -18.711   3.224  18.150  0.00  0.00    +0.000 A 
ATOM     17  C   UNL     1     -18.024   3.607  17.002  0.00  0.00    +0.000 A 
ATOM     18  C   UNL     1     -20.097   3.215  18.088  0.00  0.00    +0.000 A 
ATOM     19  C   UNL     1     -18.720   3.963  15.852  0.00  0.00    +0.000 A 
ATOM     20  C   UNL     1     -20.103   3.926  15.901  0.00  0.00    +0.000 A 
ENDBRANCH  12  16
ENDBRANCH   2   9
BRANCH   1  22
ATOM     21  O   UNL     1     -18.651  -4.967  20.889  0.00  0.00    +0.000 OA
ATOM     22  N   UNL     1     -19.881  -3.183  20.058  0.00  0.00    +0.000 N 
ATOM     23  C   UNL     1     -19.290  -4.437  19.989  0.00  0.00    +0.000 C 
ATOM     24  H   UNL     1     -20.485  -2.882  19.302  0.00  0.00    +0.000 HD
BRANCH  23  30
ATOM     25  C   UNL     1     -19.937  -6.631  16.384  0.00  0.00    +0.000 A 
ATOM     26  C   UNL     1     -18.649  -6.205  16.698  0.00  0.00    +0.000 A 
ATOM     27  C   UNL     1     -21.000  -6.340  17.233  0.00  0.00    +0.000 A 
ATOM     28  C   UNL     1     -18.423  -5.485  17.869  0.00  0.00    +0.000 A 
ATOM     29  C   UNL     1     -20.774  -5.619  18.403  0.00  0.00    +0.000 A 
ATOM     30  C   UNL     1     -19.484  -5.188  18.725  0.00  0.00    +0.000 A 
BRANCH  25  31
ATOM     31  C   UNL     1     -20.168  -7.369  15.185  0.00  0.00    +0.000 C 
BRANCH  31  32
ATOM     32  N   UNL     1     -20.402  -8.125  13.961  0.00  0.00    +0.000 N 
ATOM     33  N   UNL     1     -20.276  -6.238  10.956  0.00  0.00    +0.000 N 
ATOM     34  C   UNL     1     -21.451  -7.394  13.196  0.00  0.00    +0.000 C 
ATOM     35  C   UNL     1     -19.283  -7.800  13.033  0.00  0.00    +0.000 C 
ATOM     36  C   UNL     1     -21.397  -6.575  11.875  0.00  0.00    +0.000 C 
ATOM     37  C   UNL     1     -19.229  -6.980  11.712  0.00  0.00    +0.000 C 
ATOM     38  C   UNL     1     -20.505  -6.968   9.718  0.00  0.00    +0.000 C 
ENDBRANCH  31  32
ENDBRANCH  25  31
ENDBRANCH  23  30
ENDBRANCH   1  22
TORSDOF 6
ENDMDL
MODEL 4
REMARK VINA RESULT:      -6.0     16.355     22.179
REMARK  Name = 10074640_Masitinib.pdbqt.pdb
REMARK  6 active torsions:
REMARK  status: ('A' for Active; 'I' for Inactive)
REMARK    1  A    between atoms: C_1  and  N_22
REMARK    2  A    between atoms: C_2  and  N_9
REMARK    3  A    between atoms: C_12  and  C_16
REMARK    4  A    between atoms: C_23  and  C_30
REMARK    5  A    between atoms: C_25  and  C_31
REMARK    6  A    between atoms: C_31  and  N_32
REMARK                            x       y       z     vdW  Elec       q    Type
REMARK                         _______ _______ _______ _____ _____    ______ ____
ROOT
ATOM      1  C   UNL     1     -19.436  -0.015  20.650  0.00  0.00    +0.000 A 
ATOM      2  C   UNL     1     -20.823  -1.898  21.378  0.00  0.00    +0.000 A 
ATOM      3  C   UNL     1     -20.434  -0.962  20.411  0.00  0.00    +0.000 A 
ATOM      4  C   UNL     1     -20.163  -1.850  22.622  0.00  0.00    +0.000 A 
ATOM      5  C   UNL     1     -18.787  -0.010  21.883  0.00  0.00    +0.000 A 
ATOM      6  C   UNL     1     -19.155  -0.918  22.871  0.00  0.00    +0.000 A 
ATOM      7  C   UNL     1     -20.530  -2.818  23.728  0.00  0.00    +0.000 C 
ENDROOT
BRANCH   2   9
ATOM      8  S   UNL     1     -23.115  -4.900  19.954  0.00  0.00    +0.000 S 
ATOM      9  N   UNL     1     -21.805  -2.883  21.115  0.00  0.00    +0.000 N 
ATOM     10  N   UNL     1     -20.690  -4.204  19.481  0.00  0.00    +0.000 NA
ATOM     11  C   UNL     1     -21.737  -3.883  20.209  0.00  0.00    +0.000 A 
ATOM     12  C   UNL     1     -20.967  -5.273  18.651  0.00  0.00    +0.000 A 
ATOM     13  C   UNL     1     -22.243  -5.766  18.784  0.00  0.00    +0.000 A 
ATOM     14  H   UNL     1     -22.629  -2.806  21.708  0.00  0.00    +0.000 HD
BRANCH  12  16
ATOM     15  N   UNL     1     -19.451  -7.344  15.939  0.00  0.00    +0.000 NA
ATOM     16  C   UNL     1     -19.979  -5.814  17.745  0.00  0.00    +0.000 A 
ATOM     17  C   UNL     1     -18.665  -5.356  17.732  0.00  0.00    +0.000 A 
ATOM     18  C   UNL     1     -20.315  -6.809  16.838  0.00  0.00    +0.000 A 
ATOM     19  C   UNL     1     -17.744  -5.887  16.835  0.00  0.00    +0.000 A 
ATOM     20  C   UNL     1     -18.187  -6.871  15.967  0.00  0.00    +0.000 A 
ENDBRANCH  12  16
ENDBRANCH   2   9
BRANCH   1  22
ATOM     21  O   UNL     1     -20.571   2.610  20.140  0.00  0.00    +0.000 OA
ATOM     22  N   UNL     1     -19.034   0.931  19.687  0.00  0.00    +0.000 N 
ATOM     23  C   UNL     1     -19.655   2.152  19.467  0.00  0.00    +0.000 C 
ATOM     24  H   UNL     1     -18.210   0.695  19.146  0.00  0.00    +0.000 HD
BRANCH  23  30
ATOM     25  C   UNL     1     -18.081   4.515  16.278  0.00  0.00    +0.000 A 
ATOM     26  C   UNL     1     -19.404   4.083  16.215  0.00  0.00    +0.000 A 
ATOM     27  C   UNL     1     -17.282   4.175  17.366  0.00  0.00    +0.000 A 
ATOM     28  C   UNL     1     -19.930   3.309  17.247  0.00  0.00    +0.000 A 
ATOM     29  C   UNL     1     -17.809   3.400  18.396  0.00  0.00    +0.000 A 
ATOM     30  C   UNL     1     -19.135   2.962  18.340  0.00  0.00    +0.000 A 
BRANCH  25  31
ATOM     31  C   UNL     1     -17.543   5.309  15.223  0.00  0.00    +0.000 C 
BRANCH  31  32
ATOM     32  N   UNL     1     -16.994   6.120  14.143  0.00  0.00    +0.000 N 
ATOM     33  N   UNL     1     -14.237   8.173  15.026  0.00  0.00    +0.000 N 
ATOM     34  C   UNL     1     -16.913   7.517  14.651  0.00  0.00    +0.000 C 
ATOM     35  C   UNL     1     -15.524   5.879  14.126  0.00  0.00    +0.000 C 
ATOM     36  C   UNL     1     -15.704   8.420  15.029  0.00  0.00    +0.000 C 
ATOM     37  C   UNL     1     -14.316   6.781  14.505  0.00  0.00    +0.000 C 
ATOM     38  C   UNL     1     -13.669   8.994  13.966  0.00  0.00    +0.000 C 
ENDBRANCH  31  32
ENDBRANCH  25  31
ENDBRANCH  23  30
ENDBRANCH   1  22
TORSDOF 6
ENDMDL
MODEL 5
REMARK VINA RESULT:      -5.8      4.074      6.380
REMARK  Name = 10074640_Masitinib.pdbqt.pdb
REMARK  6 active torsions:
REMARK  status: ('A' for Active; 'I' for Inactive)
REMARK    1  A    between atoms: C_1  and  N_22
REMARK    2  A    between atoms: C_2  and  N_9
REMARK    3  A    between atoms: C_12  and  C_16
REMARK    4  A    between atoms: C_23  and  C_30
REMARK    5  A    between atoms: C_25  and  C_31
REMARK    6  A    between atoms: C_31  and  N_32
REMARK                            x       y       z     vdW  Elec       q    Type
REMARK                         _______ _______ _______ _____ _____    ______ ____
ROOT
ATOM      1  C   UNL     1      -8.477 -19.807   6.453  0.00  0.00    +0.000 A 
ATOM      2  C   UNL     1      -6.771 -19.814   4.695  0.00  0.00    +0.000 A 
ATOM      3  C   UNL     1      -7.554 -19.142   5.643  0.00  0.00    +0.000 A 
ATOM      4  C   UNL     1      -6.951 -21.207   4.584  0.00  0.00    +0.000 A 
ATOM      5  C   UNL     1      -8.613 -21.189   6.334  0.00  0.00    +0.000 A 
ATOM      6  C   UNL     1      -7.860 -21.887   5.395  0.00  0.00    +0.000 A 
ATOM      7  C   UNL     1      -6.154 -22.010   3.575  0.00  0.00    +0.000 C 
ENDROOT
BRANCH   2   9
ATOM      8  S   UNL     1      -4.637 -17.292   2.377  0.00  0.00    +0.000 S 
ATOM      9  N   UNL     1      -5.807 -19.142   3.907  0.00  0.00    +0.000 N 
ATOM     10  N   UNL     1      -6.788 -16.981   3.741  0.00  0.00    +0.000 NA
ATOM     11  C   UNL     1      -5.870 -17.874   3.443  0.00  0.00    +0.000 A 
ATOM     12  C   UNL     1      -6.556 -15.787   3.087  0.00  0.00    +0.000 A 
ATOM     13  C   UNL     1      -5.427 -15.791   2.304  0.00  0.00    +0.000 A 
ATOM     14  H   UNL     1      -4.982 -19.703   3.704  0.00  0.00    +0.000 HD
BRANCH  12  16
ATOM     15  N   UNL     1      -9.171 -13.539   4.517  0.00  0.00    +0.000 NA
ATOM     16  C   UNL     1      -7.429 -14.646   3.244  0.00  0.00    +0.000 A 
ATOM     17  C   UNL     1      -7.385 -13.560   2.374  0.00  0.00    +0.000 A 
ATOM     18  C   UNL     1      -8.341 -14.587   4.289  0.00  0.00    +0.000 A 
ATOM     19  C   UNL     1      -8.229 -12.472   2.565  0.00  0.00    +0.000 A 
ATOM     20  C   UNL     1      -9.095 -12.512   3.644  0.00  0.00    +0.000 A 
ENDBRANCH  12  16
ENDBRANCH   2   9
BRANCH   1  22
ATOM     21  O   UNL     1      -7.605 -18.484   8.887  0.00  0.00    +0.000 OA
ATOM     22  N   UNL     1      -9.269 -19.145   7.412  0.00  0.00    +0.000 N 
ATOM     23  C   UNL     1      -8.787 -18.574   8.580  0.00  0.00    +0.000 C 
ATOM     24  H   UNL     1     -10.257 -19.067   7.197  0.00  0.00    +0.000 HD
BRANCH  23  30
ATOM     25  C   UNL     1     -11.644 -16.868  11.255  0.00  0.00    +0.000 A 
ATOM     26  C   UNL     1     -11.745 -18.217  10.923  0.00  0.00    +0.000 A 
ATOM     27  C   UNL     1     -10.626 -16.086  10.718  0.00  0.00    +0.000 A 
ATOM     28  C   UNL     1     -10.822 -18.786  10.048  0.00  0.00    +0.000 A 
ATOM     29  C   UNL     1      -9.704 -16.656   9.843  0.00  0.00    +0.000 A 
ATOM     30  C   UNL     1      -9.800 -18.008   9.504  0.00  0.00    +0.000 A 
BRANCH  25  31
ATOM     31  C   UNL     1     -12.588 -16.285  12.152  0.00  0.00    +0.000 C 
BRANCH  31  32
ATOM     32  N   UNL     1     -13.552 -15.687  13.066  0.00  0.00    +0.000 N 
ATOM     33  N   UNL     1     -16.963 -16.345  12.331  0.00  0.00    +0.000 N 
ATOM     34  C   UNL     1     -14.550 -14.964  12.230  0.00  0.00    +0.000 C 
ATOM     35  C   UNL     1     -14.474 -16.776  13.495  0.00  0.00    +0.000 C 
ATOM     36  C   UNL     1     -16.047 -15.248  11.915  0.00  0.00    +0.000 C 
ATOM     37  C   UNL     1     -15.970 -17.060  13.179  0.00  0.00    +0.000 C 
ATOM     38  C   UNL     1     -17.948 -15.759  13.229  0.00  0.00    +0.000 C 
ENDBRANCH  31  32
ENDBRANCH  25  31
ENDBRANCH  23  30
ENDBRANCH   1  22
TORSDOF 6
ENDMDL
MODEL 6
REMARK VINA RESULT:      -5.7     14.028     19.107
REMARK  Name = 10074640_Masitinib.pdbqt.pdb
REMARK  6 active torsions:
REMARK  status: ('A' for Active; 'I' for Inactive)
REMARK    1  A    between atoms: C_1  and  N_22
REMARK    2  A    between atoms: C_2  and  N_9
REMARK    3  A    between atoms: C_12  and  C_16
REMARK    4  A    between atoms: C_23  and  C_30
REMARK    5  A    between atoms: C_25  and  C_31
REMARK    6  A    between atoms: C_31  and  N_32
REMARK                            x       y       z     vdW  Elec       q    Type
REMARK                         _______ _______ _______ _____ _____    ______ ____
ROOT
ATOM      1  C   UNL     1     -19.289  -5.709  17.993  0.00  0.00    +0.000 A 
ATOM      2  C   UNL     1     -20.207  -7.066  16.172  0.00  0.00    +0.000 A 
ATOM      3  C   UNL     1     -20.329  -6.446  17.423  0.00  0.00    +0.000 A 
ATOM      4  C   UNL     1     -18.978  -6.919  15.499  0.00  0.00    +0.000 A 
ATOM      5  C   UNL     1     -18.095  -5.564  17.291  0.00  0.00    +0.000 A 
ATOM      6  C   UNL     1     -17.935  -6.175  16.050  0.00  0.00    +0.000 A 
ATOM      7  C   UNL     1     -18.757  -7.566  14.147  0.00  0.00    +0.000 C 
ENDROOT
BRANCH   2   9
ATOM      8  S   UNL     1     -22.905  -9.772  14.874  0.00  0.00    +0.000 S 
ATOM      9  N   UNL     1     -21.279  -7.775  15.579  0.00  0.00    +0.000 N 
ATOM     10  N   UNL     1     -21.138  -9.850  16.733  0.00  0.00    +0.000 NA
ATOM     11  C   UNL     1     -21.641  -9.056  15.814  0.00  0.00    +0.000 A 
ATOM     12  C   UNL     1     -21.732 -11.097  16.695  0.00  0.00    +0.000 A 
ATOM     13  C   UNL     1     -22.711 -11.220  15.739  0.00  0.00    +0.000 A 
ATOM     14  H   UNL     1     -21.823  -7.219  14.923  0.00  0.00    +0.000 HD
BRANCH  12  16
ATOM     15  N   UNL     1     -21.512 -13.138  19.814  0.00  0.00    +0.000 NA
ATOM     16  C   UNL     1     -21.349 -12.155  17.603  0.00  0.00    +0.000 A 
ATOM     17  C   UNL     1     -20.529 -13.206  17.204  0.00  0.00    +0.000 A 
ATOM     18  C   UNL     1     -21.805 -12.166  18.914  0.00  0.00    +0.000 A 
ATOM     19  C   UNL     1     -20.194 -14.215  18.100  0.00  0.00    +0.000 A 
ATOM     20  C   UNL     1     -20.710 -14.133  19.382  0.00  0.00    +0.000 A 
ENDBRANCH  12  16
ENDBRANCH   2   9
BRANCH   1  22
ATOM     21  O   UNL     1     -20.170  -3.001  18.564  0.00  0.00    +0.000 OA
ATOM     22  N   UNL     1     -19.398  -5.080  19.249  0.00  0.00    +0.000 N 
ATOM     23  C   UNL     1     -19.783  -3.761  19.443  0.00  0.00    +0.000 C 
ATOM     24  H   UNL     1     -19.204  -5.659  20.058  0.00  0.00    +0.000 HD
BRANCH  23  30
ATOM     25  C   UNL     1     -19.638  -2.233  23.427  0.00  0.00    +0.000 A 
ATOM     26  C   UNL     1     -19.622  -3.611  23.227  0.00  0.00    +0.000 A 
ATOM     27  C   UNL     1     -19.704  -1.366  22.341  0.00  0.00    +0.000 A 
ATOM     28  C   UNL     1     -19.672  -4.124  21.933  0.00  0.00    +0.000 A 
ATOM     29  C   UNL     1     -19.756  -1.880  21.048  0.00  0.00    +0.000 A 
ATOM     30  C   UNL     1     -19.742  -3.261  20.839  0.00  0.00    +0.000 A 
BRANCH  25  31
ATOM     31  C   UNL     1     -19.584  -1.708  24.752  0.00  0.00    +0.000 C 
BRANCH  31  32
ATOM     32  N   UNL     1     -19.532  -1.170  26.106  0.00  0.00    +0.000 N 
ATOM     33  N   UNL     1     -16.329  -1.197  27.636  0.00  0.00    +0.000 N 
ATOM     34  C   UNL     1     -18.836  -2.184  26.946  0.00  0.00    +0.000 C 
ATOM     35  C   UNL     1     -18.429  -0.169  26.131  0.00  0.00    +0.000 C 
ATOM     36  C   UNL     1     -17.436  -2.192  27.624  0.00  0.00    +0.000 C 
ATOM     37  C   UNL     1     -17.029  -0.177  26.808  0.00  0.00    +0.000 C 
ATOM     38  C   UNL     1     -16.248  -0.665  28.989  0.00  0.00    +0.000 C 
ENDBRANCH  31  32
ENDBRANCH  25  31
ENDBRANCH  23  30
ENDBRANCH   1  22
TORSDOF 6
ENDMDL
MODEL 7
REMARK VINA RESULT:      -5.7     19.778     21.968
REMARK  Name = 10074640_Masitinib.pdbqt.pdb
REMARK  6 active torsions:
REMARK  status: ('A' for Active; 'I' for Inactive)
REMARK    1  A    between atoms: C_1  and  N_22
REMARK    2  A    between atoms: C_2  and  N_9
REMARK    3  A    between atoms: C_12  and  C_16
REMARK    4  A    between atoms: C_23  and  C_30
REMARK    5  A    between atoms: C_25  and  C_31
REMARK    6  A    between atoms: C_31  and  N_32
REMARK                            x       y       z     vdW  Elec       q    Type
REMARK                         _______ _______ _______ _____ _____    ______ ____
ROOT
ATOM      1  C   UNL     1      -9.498  -8.846  27.298  0.00  0.00    +0.000 A 
ATOM      2  C   UNL     1      -7.919  -7.022  26.876  0.00  0.00    +0.000 A 
ATOM      3  C   UNL     1      -9.065  -7.755  26.542  0.00  0.00    +0.000 A 
ATOM      4  C   UNL     1      -7.206  -7.431  28.020  0.00  0.00    +0.000 A 
ATOM      5  C   UNL     1      -8.783  -9.210  28.436  0.00  0.00    +0.000 A 
ATOM      6  C   UNL     1      -7.633  -8.511  28.793  0.00  0.00    +0.000 A 
ATOM      7  C   UNL     1      -5.948  -6.701  28.446  0.00  0.00    +0.000 C 
ENDROOT
BRANCH   2   9
ATOM      8  S   UNL     1      -7.447  -3.425  25.107  0.00  0.00    +0.000 S 
ATOM      9  N   UNL     1      -7.509  -5.891  26.131  0.00  0.00    +0.000 N 
ATOM     10  N   UNL     1      -8.875  -4.198  27.094  0.00  0.00    +0.000 NA
ATOM     11  C   UNL     1      -8.001  -4.635  26.214  0.00  0.00    +0.000 A 
ATOM     12  C   UNL     1      -9.166  -2.863  26.890  0.00  0.00    +0.000 A 
ATOM     13  C   UNL     1      -8.475  -2.295  25.847  0.00  0.00    +0.000 A 
ATOM     14  H   UNL     1      -6.745  -6.082  25.486  0.00  0.00    +0.000 HD
BRANCH  12  16
ATOM     15  N   UNL     1     -11.480  -0.181  28.070  0.00  0.00    +0.000 NA
ATOM     16  C   UNL     1     -10.106  -2.149  27.725  0.00  0.00    +0.000 A 
ATOM     17  C   UNL     1     -10.587  -2.685  28.916  0.00  0.00    +0.000 A 
ATOM     18  C   UNL     1     -10.577  -0.898  27.355  0.00  0.00    +0.000 A 
ATOM     19  C   UNL     1     -11.503  -1.978  29.686  0.00  0.00    +0.000 A 
ATOM     20  C   UNL     1     -11.914  -0.741  29.220  0.00  0.00    +0.000 A 
ENDBRANCH  12  16
ENDBRANCH   2   9
BRANCH   1  22
ATOM     21  O   UNL     1     -12.254  -8.285  28.025  0.00  0.00    +0.000 OA
ATOM     22  N   UNL     1     -10.650  -9.592  26.974  0.00  0.00    +0.000 N 
ATOM     23  C   UNL     1     -11.935  -9.287  27.398  0.00  0.00    +0.000 C 
ATOM     24  H   UNL     1     -10.509 -10.388  26.363  0.00  0.00    +0.000 HD
BRANCH  23  30
ATOM     25  C   UNL     1     -14.972 -12.122  26.412  0.00  0.00    +0.000 A 
ATOM     26  C   UNL     1     -14.494 -11.267  25.422  0.00  0.00    +0.000 A 
ATOM     27  C   UNL     1     -14.468 -12.049  27.707  0.00  0.00    +0.000 A 
ATOM     28  C   UNL     1     -13.505 -10.334  25.731  0.00  0.00    +0.000 A 
ATOM     29  C   UNL     1     -13.481 -11.116  28.014  0.00  0.00    +0.000 A 
ATOM     30  C   UNL     1     -12.997 -10.254  27.027  0.00  0.00    +0.000 A 
BRANCH  25  31
ATOM     31  C   UNL     1     -15.983 -13.078  26.097  0.00  0.00    +0.000 C 
BRANCH  31  32
ATOM     32  N   UNL     1     -17.017 -14.053  25.776  0.00  0.00    +0.000 N 
ATOM     33  N   UNL     1     -19.940 -12.731  24.253  0.00  0.00    +0.000 N 
ATOM     34  C   UNL     1     -18.292 -13.533  26.345  0.00  0.00    +0.000 C 
ATOM     35  C   UNL     1     -17.389 -13.834  24.349  0.00  0.00    +0.000 C 
ATOM     36  C   UNL     1     -19.576 -12.962  25.678  0.00  0.00    +0.000 C 
ATOM     37  C   UNL     1     -18.672 -13.263  23.682  0.00  0.00    +0.000 C 
ATOM     38  C   UNL     1     -20.990 -13.683  23.921  0.00  0.00    +0.000 C 
ENDBRANCH  31  32
ENDBRANCH  25  31
ENDBRANCH  23  30
ENDBRANCH   1  22
TORSDOF 6
ENDMDL
MODEL 8
REMARK VINA RESULT:      -5.5     15.364     21.755
REMARK  Name = 10074640_Masitinib.pdbqt.pdb
REMARK  6 active torsions:
REMARK  status: ('A' for Active; 'I' for Inactive)
REMARK    1  A    between atoms: C_1  and  N_22
REMARK    2  A    between atoms: C_2  and  N_9
REMARK    3  A    between atoms: C_12  and  C_16
REMARK    4  A    between atoms: C_23  and  C_30
REMARK    5  A    between atoms: C_25  and  C_31
REMARK    6  A    between atoms: C_31  and  N_32
REMARK                            x       y       z     vdW  Elec       q    Type
REMARK                         _______ _______ _______ _____ _____    ______ ____
ROOT
ATOM      1  C   UNL     1     -15.183  -8.990  27.743  0.00  0.00    +0.000 A 
ATOM      2  C   UNL     1     -13.285  -8.633  29.248  0.00  0.00    +0.000 A 
ATOM      3  C   UNL     1     -13.971  -9.402  28.299  0.00  0.00    +0.000 A 
ATOM      4  C   UNL     1     -13.870  -7.410  29.629  0.00  0.00    +0.000 A 
ATOM      5  C   UNL     1     -15.723  -7.763  28.123  0.00  0.00    +0.000 A 
ATOM      6  C   UNL     1     -15.074  -6.978  29.072  0.00  0.00    +0.000 A 
ATOM      7  C   UNL     1     -13.201  -6.522  30.659  0.00  0.00    +0.000 C 
ENDROOT
BRANCH   2   9
ATOM      8  S   UNL     1      -9.402  -9.391  30.051  0.00  0.00    +0.000 S 
ATOM      9  N   UNL     1     -12.035  -9.036  29.777  0.00  0.00    +0.000 N 
ATOM     10  N   UNL     1     -10.545  -7.770  28.423  0.00  0.00    +0.000 NA
ATOM     11  C   UNL     1     -10.808  -8.670  29.344  0.00  0.00    +0.000 A 
ATOM     12  C   UNL     1      -9.184  -7.647  28.218  0.00  0.00    +0.000 A 
ATOM     13  C   UNL     1      -8.424  -8.461  29.023  0.00  0.00    +0.000 A 
ATOM     14  H   UNL     1     -12.112  -9.653  30.582  0.00  0.00    +0.000 HD
BRANCH  12  16
ATOM     15  N   UNL     1      -7.373  -6.384  25.207  0.00  0.00    +0.000 NA
ATOM     16  C   UNL     1      -8.636  -6.725  27.249  0.00  0.00    +0.000 A 
ATOM     17  C   UNL     1      -8.842  -5.351  27.342  0.00  0.00    +0.000 A 
ATOM     18  C   UNL     1      -7.893  -7.185  26.171  0.00  0.00    +0.000 A 
ATOM     19  C   UNL     1      -8.314  -4.495  26.383  0.00  0.00    +0.000 A 
ATOM     20  C   UNL     1      -7.594  -5.060  25.344  0.00  0.00    +0.000 A 
ENDBRANCH  12  16
ENDBRANCH   2   9
BRANCH   1  22
ATOM     21  O   UNL     1     -17.023 -11.189  28.208  0.00  0.00    +0.000 OA
ATOM     22  N   UNL     1     -15.884  -9.751  26.786  0.00  0.00    +0.000 N 
ATOM     23  C   UNL     1     -16.713 -10.823  27.080  0.00  0.00    +0.000 C 
ATOM     24  H   UNL     1     -15.781  -9.459  25.821  0.00  0.00    +0.000 HD
BRANCH  23  30
ATOM     25  C   UNL     1     -18.265 -12.914  23.696  0.00  0.00    +0.000 A 
ATOM     26  C   UNL     1     -19.148 -12.418  24.652  0.00  0.00    +0.000 A 
ATOM     27  C   UNL     1     -16.893 -12.733  23.846  0.00  0.00    +0.000 A 
ATOM     28  C   UNL     1     -18.656 -11.737  25.763  0.00  0.00    +0.000 A 
ATOM     29  C   UNL     1     -16.402 -12.053  24.958  0.00  0.00    +0.000 A 
ATOM     30  C   UNL     1     -17.282 -11.553  25.921  0.00  0.00    +0.000 A 
BRANCH  25  31
ATOM     31  C   UNL     1     -18.768 -13.609  22.557  0.00  0.00    +0.000 C 
BRANCH  31  32
ATOM     32  N   UNL     1     -19.283 -14.323  21.395  0.00  0.00    +0.000 N 
ATOM     33  N   UNL     1     -17.348 -14.011  18.434  0.00  0.00    +0.000 N 
ATOM     34  C   UNL     1     -19.326 -13.345  20.272  0.00  0.00    +0.000 C 
ATOM     35  C   UNL     1     -18.155 -15.129  20.849  0.00  0.00    +0.000 C 
ATOM     36  C   UNL     1     -18.484 -13.213  18.971  0.00  0.00    +0.000 C 
ATOM     37  C   UNL     1     -17.313 -14.998  19.548  0.00  0.00    +0.000 C 
ATOM     38  C   UNL     1     -17.839 -14.714  17.257  0.00  0.00    +0.000 C 
ENDBRANCH  31  32
ENDBRANCH  25  31
ENDBRANCH  23  30
ENDBRANCH   1  22
TORSDOF 6
ENDMDL
MODEL 9
REMARK VINA RESULT:      -5.4      5.776     10.667
REMARK  Name = 10074640_Masitinib.pdbqt.pdb
REMARK  6 active torsions:
REMARK  status: ('A' for Active; 'I' for Inactive)
REMARK    1  A    between atoms: C_1  and  N_22
REMARK    2  A    between atoms: C_2  and  N_9
REMARK    3  A    between atoms: C_12  and  C_16
REMARK    4  A    between atoms: C_23  and  C_30
REMARK    5  A    between atoms: C_25  and  C_31
REMARK    6  A    between atoms: C_31  and  N_32
REMARK                            x       y       z     vdW  Elec       q    Type
REMARK                         _______ _______ _______ _____ _____    ______ ____
ROOT
ATOM      1  C   UNL     1     -12.500 -16.622  11.415  0.00  0.00    +0.000 A 
ATOM      2  C   UNL     1     -14.258 -15.407  12.612  0.00  0.00    +0.000 A 
ATOM      3  C   UNL     1     -13.528 -15.678  11.447  0.00  0.00    +0.000 A 
ATOM      4  C   UNL     1     -13.912 -16.132  13.770  0.00  0.00    +0.000 A 
ATOM      5  C   UNL     1     -12.200 -17.338  12.572  0.00  0.00    +0.000 A 
ATOM      6  C   UNL     1     -12.897 -17.088  13.750  0.00  0.00    +0.000 A 
ATOM      7  C   UNL     1     -14.643 -15.893  15.076  0.00  0.00    +0.000 C 
ENDROOT
BRANCH   2   9
ATOM      8  S   UNL     1     -17.494 -13.108  11.885  0.00  0.00    +0.000 S 
ATOM      9  N   UNL     1     -15.328 -14.481  12.629  0.00  0.00    +0.000 N 
ATOM     10  N   UNL     1     -16.638 -15.274  10.809  0.00  0.00    +0.000 NA
ATOM     11  C   UNL     1     -16.363 -14.412  11.762  0.00  0.00    +0.000 A 
ATOM     12  C   UNL     1     -17.765 -14.897  10.104  0.00  0.00    +0.000 A 
ATOM     13  C   UNL     1     -18.348 -13.740  10.561  0.00  0.00    +0.000 A 
ATOM     14  H   UNL     1     -15.286 -13.822  13.404  0.00  0.00    +0.000 HD
BRANCH  12  16
ATOM     15  N   UNL     1     -17.883 -17.403   7.338  0.00  0.00    +0.000 NA
ATOM     16  C   UNL     1     -18.272 -15.678   8.998  0.00  0.00    +0.000 A 
ATOM     17  C   UNL     1     -19.579 -15.541   8.539  0.00  0.00    +0.000 A 
ATOM     18  C   UNL     1     -17.469 -16.614   8.361  0.00  0.00    +0.000 A 
ATOM     19  C   UNL     1     -20.039 -16.321   7.484  0.00  0.00    +0.000 A 
ATOM     20  C   UNL     1     -19.157 -17.230   6.925  0.00  0.00    +0.000 A 
ENDBRANCH  12  16
ENDBRANCH   2   9
BRANCH   1  22
ATOM     21  O   UNL     1      -9.986 -15.442  10.565  0.00  0.00    +0.000 OA
ATOM     22  N   UNL     1     -11.759 -16.906  10.251  0.00  0.00    +0.000 N 
ATOM     23  C   UNL     1     -10.585 -16.266   9.884  0.00  0.00    +0.000 C 
ATOM     24  H   UNL     1     -12.114 -17.656   9.668  0.00  0.00    +0.000 HD
BRANCH  23  30
ATOM     25  C   UNL     1      -8.996 -17.299   6.058  0.00  0.00    +0.000 A 
ATOM     26  C   UNL     1      -8.718 -18.115   7.151  0.00  0.00    +0.000 A 
ATOM     27  C   UNL     1      -9.779 -16.159   6.212  0.00  0.00    +0.000 A 
ATOM     28  C   UNL     1      -9.227 -17.789   8.407  0.00  0.00    +0.000 A 
ATOM     29  C   UNL     1     -10.286 -15.833   7.468  0.00  0.00    +0.000 A 
ATOM     30  C   UNL     1     -10.010 -16.646   8.570  0.00  0.00    +0.000 A 
BRANCH  25  31
ATOM     31  C   UNL     1      -8.477 -17.634   4.772  0.00  0.00    +0.000 C 
BRANCH  31  32
ATOM     32  N   UNL     1      -7.945 -17.974   3.458  0.00  0.00    +0.000 N 
ATOM     33  N   UNL     1      -5.416 -15.806   2.229  0.00  0.00    +0.000 N 
ATOM     34  C   UNL     1      -8.006 -16.735   2.634  0.00  0.00    +0.000 C 
ATOM     35  C   UNL     1      -6.461 -17.997   3.586  0.00  0.00    +0.000 C 
ATOM     36  C   UNL     1      -6.898 -15.790   2.088  0.00  0.00    +0.000 C 
ATOM     37  C   UNL     1      -5.353 -17.052   3.041  0.00  0.00    +0.000 C 
ATOM     38  C   UNL     1      -4.867 -16.122   0.918  0.00  0.00    +0.000 C 
ENDBRANCH  31  32
ENDBRANCH  25  31
ENDBRANCH  23  30
ENDBRANCH   1  22
TORSDOF 6
ENDMDL
