MODEL 1
REMARK VINA RESULT:      -5.8      0.000      0.000
REMARK  Name = 101808841_CandidaspongiolideA.pdbqt.pdb
REMARK  13 active torsions:
REMARK  status: ('A' for Active; 'I' for Inactive)
REMARK    1  A    between atoms: C_6  and  C_39
REMARK    2  A    between atoms: C_9  and  O_27
REMARK    3  A    between atoms: C_9  and  C_51
REMARK    4  A    between atoms: C_10  and  O_29
REMARK    5  A    between atoms: C_14  and  O_31
REMARK    6  A    between atoms: C_15  and  O_33
REMARK    7  A    between atoms: C_20  and  O_35
REMARK    8  A    between atoms: O_35  and  C_37
REMARK    9  A    between atoms: C_39  and  C_41
REMARK   10  A    between atoms: C_39  and  O_49
REMARK   11  A    between atoms: C_42  and  C_44
REMARK   12  A    between atoms: C_44  and  C_46
REMARK   13  A    between atoms: C_51  and  O_52
REMARK                            x       y       z     vdW  Elec       q    Type
REMARK                         _______ _______ _______ _____ _____    ______ ____
ROOT
ATOM      1  O   UNL     1     -13.975  -6.139  28.656  0.00  0.00    +0.000 OA
ATOM      2  O   UNL     1     -12.052  -9.785  29.196  0.00  0.00    +0.000 OA
ATOM      3  O   UNL     1     -16.079  -7.020  29.000  0.00  0.00    +0.000 OA
ATOM      4  O   UNL     1      -7.838  -6.372  25.442  0.00  0.00    +0.000 OA
ATOM      5  O   UNL     1     -11.869  -4.243  28.902  0.00  0.00    +0.000 OA
ATOM      6  C   UNL     1     -13.035  -8.461  27.515  0.00  0.00    +0.000 C 
ATOM      7  C   UNL     1     -11.860  -9.087  28.198  0.00  0.00    +0.000 C 
ATOM      8  C   UNL     1     -13.555  -7.260  28.075  0.00  0.00    +0.000 C 
ATOM      9  C   UNL     1     -10.462  -8.716  27.635  0.00  0.00    +0.000 C 
ATOM     10  C   UNL     1     -10.081  -7.302  28.040  0.00  0.00    +0.000 C 
ATOM     11  C   UNL     1      -9.258  -6.463  27.233  0.00  0.00    +0.000 C 
ATOM     12  C   UNL     1     -15.226  -6.160  29.173  0.00  0.00    +0.000 C 
ATOM     13  C   UNL     1      -8.409  -5.724  26.312  0.00  0.00    +0.000 C 
ATOM     14  C   UNL     1     -15.458  -4.997  30.060  0.00  0.00    +0.000 C 
ATOM     15  C   UNL     1     -14.534  -3.895  30.235  0.00  0.00    +0.000 C 
ATOM     16  C   UNL     1      -8.262  -4.239  26.452  0.00  0.00    +0.000 C 
ATOM     17  C   UNL     1     -13.932  -3.091  29.177  0.00  0.00    +0.000 C 
ATOM     18  C   UNL     1     -11.721  -1.853  28.872  0.00  0.00    +0.000 C 
ATOM     19  C   UNL     1     -12.448  -3.160  28.999  0.00  0.00    +0.000 C 
ATOM     20  C   UNL     1     -10.355  -1.848  28.344  0.00  0.00    +0.000 C 
ATOM     21  C   UNL     1      -8.844  -3.522  27.528  0.00  0.00    +0.000 C 
ATOM     22  C   UNL     1      -9.371  -2.891  28.529  0.00  0.00    +0.000 C 
ATOM     23  C   UNL     1      -7.478  -3.389  25.475  0.00  0.00    +0.000 C 
ATOM     24  C   UNL     1     -14.760  -2.782  27.928  0.00  0.00    +0.000 C 
ATOM     25  C   UNL     1     -12.348  -0.559  29.377  0.00  0.00    +0.000 C 
ATOM     26  C   UNL     1      -9.027  -3.427  29.895  0.00  0.00    +0.000 C 
ENDROOT
BRANCH   9  27
ATOM     27  O   UNL     1     -10.501  -8.779  26.208  0.00  0.00    +0.000 OA
ATOM     28  H   UNL     1     -11.396  -9.076  25.960  0.00  0.00    +0.000 HD
ENDBRANCH   9  27
BRANCH  10  29
ATOM     29  O   UNL     1     -10.530  -6.828  29.256  0.00  0.00    +0.000 OA
ATOM     30  H   UNL     1      -9.960  -6.139  29.647  0.00  0.00    +0.000 HD
ENDBRANCH  10  29
BRANCH  14  31
ATOM     31  O   UNL     1     -16.609  -4.964  30.827  0.00  0.00    +0.000 OA
ATOM     32  H   UNL     1     -16.389  -4.862  31.777  0.00  0.00    +0.000 HD
ENDBRANCH  14  31
BRANCH  15  33
ATOM     33  O   UNL     1     -14.627  -3.270  31.467  0.00  0.00    +0.000 OA
ATOM     34  C   UNL     1     -13.673  -3.794  32.352  0.00  0.00    +0.000 C 
ENDBRANCH  15  33
BRANCH  20  35
ATOM     35  O   UNL     1      -9.793  -0.615  27.918  0.00  0.00    +0.000 OA
BRANCH  35  37
ATOM     36  O   UNL     1     -10.486  -0.949  25.715  0.00  0.00    +0.000 OA
ATOM     37  C   UNL     1     -10.123  -0.260  26.649  0.00  0.00    +0.000 C 
ATOM     38  C   UNL     1      -9.963   1.184  26.350  0.00  0.00    +0.000 C 
ENDBRANCH  35  37
ENDBRANCH  20  35
BRANCH   6  39
ATOM     39  C   UNL     1     -13.671  -9.120  26.393  0.00  0.00    +0.000 C 
BRANCH  39  41
ATOM     40  O   UNL     1     -14.810 -11.209  25.474  0.00  0.00    +0.000 OA
ATOM     41  C   UNL     1     -14.548 -10.310  26.581  0.00  0.00    +0.000 C 
ATOM     42  C   UNL     1     -13.873 -11.591  26.390  0.00  0.00    +0.000 C 
ATOM     43  C   UNL     1     -15.877 -10.122  27.391  0.00  0.00    +0.000 C 
BRANCH  42  44
ATOM     44  C   UNL     1     -14.142 -12.730  27.221  0.00  0.00    +0.000 C 
ATOM     45  C   UNL     1     -14.997 -13.859  26.704  0.00  0.00    +0.000 C 
BRANCH  44  46
ATOM     46  C   UNL     1     -13.213 -13.067  28.242  0.00  0.00    +0.000 C 
ATOM     47  C   UNL     1     -12.509 -13.387  29.158  0.00  0.00    +0.000 C 
ATOM     48  C   UNL     1     -11.728 -13.815  30.409  0.00  0.00    +0.000 C 
ENDBRANCH  44  46
ENDBRANCH  42  44
ENDBRANCH  39  41
BRANCH  39  49
ATOM     49  O   UNL     1     -13.692  -8.384  25.217  0.00  0.00    +0.000 OA
ATOM     50  H   UNL     1     -14.176  -7.541  25.311  0.00  0.00    +0.000 HD
ENDBRANCH  39  49
ENDBRANCH   6  39
BRANCH   9  51
ATOM     51  C   UNL     1      -9.428  -9.655  28.131  0.00  0.00    +0.000 C 
BRANCH  51  52
ATOM     52  O   UNL     1      -8.512 -10.501  28.601  0.00  0.00    +0.000 OA
ATOM     53  H   UNL     1      -7.877 -10.744  27.902  0.00  0.00    +0.000 HD
ENDBRANCH  51  52
ENDBRANCH   9  51
TORSDOF 13
ENDMDL
MODEL 2
REMARK VINA RESULT:      -5.6      2.167      6.373
REMARK  Name = 101808841_CandidaspongiolideA.pdbqt.pdb
REMARK  13 active torsions:
REMARK  status: ('A' for Active; 'I' for Inactive)
REMARK    1  A    between atoms: C_6  and  C_39
REMARK    2  A    between atoms: C_9  and  O_27
REMARK    3  A    between atoms: C_9  and  C_51
REMARK    4  A    between atoms: C_10  and  O_29
REMARK    5  A    between atoms: C_14  and  O_31
REMARK    6  A    between atoms: C_15  and  O_33
REMARK    7  A    between atoms: C_20  and  O_35
REMARK    8  A    between atoms: O_35  and  C_37
REMARK    9  A    between atoms: C_39  and  C_41
REMARK   10  A    between atoms: C_39  and  O_49
REMARK   11  A    between atoms: C_42  and  C_44
REMARK   12  A    between atoms: C_44  and  C_46
REMARK   13  A    between atoms: C_51  and  O_52
REMARK                            x       y       z     vdW  Elec       q    Type
REMARK                         _______ _______ _______ _____ _____    ______ ____
ROOT
ATOM      1  O   UNL     1      -9.850  -6.700  27.214  0.00  0.00    +0.000 OA
ATOM      2  O   UNL     1     -12.846  -9.168  25.726  0.00  0.00    +0.000 OA
ATOM      3  O   UNL     1      -8.181  -7.732  26.001  0.00  0.00    +0.000 OA
ATOM      4  O   UNL     1     -15.273  -7.131  31.510  0.00  0.00    +0.000 OA
ATOM      5  O   UNL     1     -11.292  -4.518  28.334  0.00  0.00    +0.000 OA
ATOM      6  C   UNL     1     -11.289  -9.030  27.486  0.00  0.00    +0.000 C 
ATOM      7  C   UNL     1     -12.679  -8.999  26.935  0.00  0.00    +0.000 C 
ATOM      8  C   UNL     1     -10.509  -7.846  27.362  0.00  0.00    +0.000 C 
ATOM      9  C   UNL     1     -13.809  -8.654  27.943  0.00  0.00    +0.000 C 
ATOM     10  C   UNL     1     -13.793  -7.172  28.277  0.00  0.00    +0.000 C 
ATOM     11  C   UNL     1     -14.204  -6.662  29.543  0.00  0.00    +0.000 C 
ATOM     12  C   UNL     1      -8.746  -6.736  26.430  0.00  0.00    +0.000 C 
ATOM     13  C   UNL     1     -14.654  -6.285  30.873  0.00  0.00    +0.000 C 
ATOM     14  C   UNL     1      -8.294  -5.369  26.081  0.00  0.00    +0.000 C 
ATOM     15  C   UNL     1      -8.853  -4.149  26.627  0.00  0.00    +0.000 C 
ATOM     16  C   UNL     1     -14.359  -4.915  31.407  0.00  0.00    +0.000 C 
ATOM     17  C   UNL     1      -9.033  -3.833  28.038  0.00  0.00    +0.000 C 
ATOM     18  C   UNL     1     -10.699  -2.454  29.393  0.00  0.00    +0.000 C 
ATOM     19  C   UNL     1     -10.429  -3.666  28.550  0.00  0.00    +0.000 C 
ATOM     20  C   UNL     1     -11.914  -2.413  30.210  0.00  0.00    +0.000 C 
ATOM     21  C   UNL     1     -13.738  -3.916  30.617  0.00  0.00    +0.000 C 
ATOM     22  C   UNL     1     -13.184  -3.013  29.871  0.00  0.00    +0.000 C 
ATOM     23  C   UNL     1     -14.708  -4.484  32.816  0.00  0.00    +0.000 C 
ATOM     24  C   UNL     1      -7.990  -4.330  29.041  0.00  0.00    +0.000 C 
ATOM     25  C   UNL     1      -9.782  -1.238  29.328  0.00  0.00    +0.000 C 
ATOM     26  C   UNL     1     -13.857  -2.758  28.545  0.00  0.00    +0.000 C 
ENDROOT
BRANCH   9  27
ATOM     27  O   UNL     1     -13.598  -9.389  29.150  0.00  0.00    +0.000 OA
ATOM     28  H   UNL     1     -14.445  -9.395  29.633  0.00  0.00    +0.000 HD
ENDBRANCH   9  27
BRANCH  10  29
ATOM     29  O   UNL     1     -13.389  -6.287  27.298  0.00  0.00    +0.000 OA
ATOM     30  H   UNL     1     -13.968  -6.275  26.512  0.00  0.00    +0.000 HD
ENDBRANCH  10  29
BRANCH  14  31
ATOM     31  O   UNL     1      -7.302  -5.220  25.127  0.00  0.00    +0.000 OA
ATOM     32  H   UNL     1      -7.025  -6.094  24.778  0.00  0.00    +0.000 HD
ENDBRANCH  14  31
BRANCH  15  33
ATOM     33  O   UNL     1      -8.742  -3.053  25.788  0.00  0.00    +0.000 OA
ATOM     34  C   UNL     1      -7.840  -2.121  26.322  0.00  0.00    +0.000 C 
ENDBRANCH  15  33
BRANCH  20  35
ATOM     35  O   UNL     1     -12.011  -1.440  31.240  0.00  0.00    +0.000 OA
BRANCH  35  37
ATOM     36  O   UNL     1     -11.541  -2.815  33.065  0.00  0.00    +0.000 OA
ATOM     37  C   UNL     1     -11.416  -1.801  32.407  0.00  0.00    +0.000 C 
ATOM     38  C   UNL     1     -10.517  -0.772  32.985  0.00  0.00    +0.000 C 
ENDBRANCH  35  37
ENDBRANCH  20  35
BRANCH   6  39
ATOM     39  C   UNL     1     -10.738 -10.257  28.026  0.00  0.00    +0.000 C 
BRANCH  39  41
ATOM     40  O   UNL     1      -9.267 -11.459  29.727  0.00  0.00    +0.000 OA
ATOM     41  C   UNL     1     -10.005 -10.279  29.324  0.00  0.00    +0.000 C 
ATOM     42  C   UNL     1      -8.558 -10.422  29.196  0.00  0.00    +0.000 C 
ATOM     43  C   UNL     1     -10.729  -9.692  30.584  0.00  0.00    +0.000 C 
BRANCH  42  44
ATOM     44  C   UNL     1      -7.641  -9.707  30.038  0.00  0.00    +0.000 C 
ATOM     45  C   UNL     1      -6.983 -10.404  31.201  0.00  0.00    +0.000 C 
BRANCH  44  46
ATOM     46  C   UNL     1      -6.939  -8.596  29.498  0.00  0.00    +0.000 C 
ATOM     47  C   UNL     1      -6.260  -7.710  29.060  0.00  0.00    +0.000 C 
ATOM     48  C   UNL     1      -5.275  -6.645  28.557  0.00  0.00    +0.000 C 
ENDBRANCH  44  46
ENDBRANCH  42  44
ENDBRANCH  39  41
BRANCH  39  49
ATOM     49  O   UNL     1     -11.225 -11.421  27.449  0.00  0.00    +0.000 OA
ATOM     50  H   UNL     1     -10.841 -11.590  26.567  0.00  0.00    +0.000 HD
ENDBRANCH  39  49
ENDBRANCH   6  39
BRANCH   9  51
ATOM     51  C   UNL     1     -15.136  -9.009  27.388  0.00  0.00    +0.000 C 
BRANCH  51  52
ATOM     52  O   UNL     1     -16.335  -9.344  26.911  0.00  0.00    +0.000 OA
ATOM     53  H   UNL     1     -16.336 -10.269  26.601  0.00  0.00    +0.000 HD
ENDBRANCH  51  52
ENDBRANCH   9  51
TORSDOF 13
ENDMDL
MODEL 3
REMARK VINA RESULT:      -5.5     24.928     29.329
REMARK  Name = 101808841_CandidaspongiolideA.pdbqt.pdb
REMARK  13 active torsions:
REMARK  status: ('A' for Active; 'I' for Inactive)
REMARK    1  A    between atoms: C_6  and  C_39
REMARK    2  A    between atoms: C_9  and  O_27
REMARK    3  A    between atoms: C_9  and  C_51
REMARK    4  A    between atoms: C_10  and  O_29
REMARK    5  A    between atoms: C_14  and  O_31
REMARK    6  A    between atoms: C_15  and  O_33
REMARK    7  A    between atoms: C_20  and  O_35
REMARK    8  A    between atoms: O_35  and  C_37
REMARK    9  A    between atoms: C_39  and  C_41
REMARK   10  A    between atoms: C_39  and  O_49
REMARK   11  A    between atoms: C_42  and  C_44
REMARK   12  A    between atoms: C_44  and  C_46
REMARK   13  A    between atoms: C_51  and  O_52
REMARK                            x       y       z     vdW  Elec       q    Type
REMARK                         _______ _______ _______ _____ _____    ______ ____
ROOT
ATOM      1  O   UNL     1      -7.026   9.053   4.059  0.00  0.00    +0.000 OA
ATOM      2  O   UNL     1      -7.993   9.889   8.015  0.00  0.00    +0.000 OA
ATOM      3  O   UNL     1      -9.078   8.108   3.593  0.00  0.00    +0.000 OA
ATOM      4  O   UNL     1      -1.411   9.486   8.100  0.00  0.00    +0.000 OA
ATOM      5  O   UNL     1      -4.730  10.666   3.589  0.00  0.00    +0.000 OA
ATOM      6  C   UNL     1      -7.064   8.192   6.673  0.00  0.00    +0.000 C 
ATOM      7  C   UNL     1      -6.974   9.268   7.709  0.00  0.00    +0.000 C 
ATOM      8  C   UNL     1      -7.052   8.595   5.308  0.00  0.00    +0.000 C 
ATOM      9  C   UNL     1      -5.553   9.579   8.252  0.00  0.00    +0.000 C 
ATOM     10  C   UNL     1      -4.746  10.353   7.223  0.00  0.00    +0.000 C 
ATOM     11  C   UNL     1      -3.329  10.241   7.109  0.00  0.00    +0.000 C 
ATOM     12  C   UNL     1      -8.136   8.837   3.314  0.00  0.00    +0.000 C 
ATOM     13  C   UNL     1      -1.891  10.030   7.112  0.00  0.00    +0.000 C 
ATOM     14  C   UNL     1      -8.121   9.658   2.081  0.00  0.00    +0.000 C 
ATOM     15  C   UNL     1      -7.002  10.466   1.641  0.00  0.00    +0.000 C 
ATOM     16  C   UNL     1      -1.064  10.472   5.942  0.00  0.00    +0.000 C 
ATOM     17  C   UNL     1      -5.622  10.023   1.480  0.00  0.00    +0.000 C 
ATOM     18  C   UNL     1      -3.327  11.117   1.702  0.00  0.00    +0.000 C 
ATOM     19  C   UNL     1      -4.581  10.629   2.367  0.00  0.00    +0.000 C 
ATOM     20  C   UNL     1      -2.143  11.380   2.524  0.00  0.00    +0.000 C 
ATOM     21  C   UNL     1      -1.620  11.195   4.857  0.00  0.00    +0.000 C 
ATOM     22  C   UNL     1      -2.146  11.868   3.883  0.00  0.00    +0.000 C 
ATOM     23  C   UNL     1       0.421  10.199   5.827  0.00  0.00    +0.000 C 
ATOM     24  C   UNL     1      -5.361   8.599   0.988  0.00  0.00    +0.000 C 
ATOM     25  C   UNL     1      -3.307  11.433   0.211  0.00  0.00    +0.000 C 
ATOM     26  C   UNL     1      -2.914  13.104   4.283  0.00  0.00    +0.000 C 
ENDROOT
BRANCH   9  27
ATOM     27  O   UNL     1      -4.876   8.350   8.522  0.00  0.00    +0.000 OA
ATOM     28  H   UNL     1      -4.984   8.167   9.473  0.00  0.00    +0.000 HD
ENDBRANCH   9  27
BRANCH  10  29
ATOM     29  O   UNL     1      -5.417  11.222   6.385  0.00  0.00    +0.000 OA
ATOM     30  H   UNL     1      -6.209  10.834   5.967  0.00  0.00    +0.000 HD
ENDBRANCH  10  29
BRANCH  14  31
ATOM     31  O   UNL     1      -9.265   9.712   1.305  0.00  0.00    +0.000 OA
ATOM     32  H   UNL     1      -9.635   8.814   1.171  0.00  0.00    +0.000 HD
ENDBRANCH  14  31
BRANCH  15  33
ATOM     33  O   UNL     1      -7.364  11.557   0.869  0.00  0.00    +0.000 OA
ATOM     34  C   UNL     1      -7.490  12.701   1.672  0.00  0.00    +0.000 C 
ENDBRANCH  15  33
BRANCH  20  35
ATOM     35  O   UNL     1      -0.884  11.519   1.880  0.00  0.00    +0.000 OA
BRANCH  35  37
ATOM     36  O   UNL     1      -0.926  13.781   1.310  0.00  0.00    +0.000 OA
ATOM     37  C   UNL     1      -0.426  12.796   1.819  0.00  0.00    +0.000 C 
ATOM     38  C   UNL     1       0.913  13.002   2.424  0.00  0.00    +0.000 C 
ENDBRANCH  35  37
ENDBRANCH  20  35
BRANCH   6  39
ATOM     39  C   UNL     1      -7.263   6.811   7.061  0.00  0.00    +0.000 C 
BRANCH  39  41
ATOM     40  O   UNL     1      -9.225   5.231   7.462  0.00  0.00    +0.000 OA
ATOM     41  C   UNL     1      -8.414   6.014   6.550  0.00  0.00    +0.000 C 
ATOM     42  C   UNL     1      -9.715   6.440   7.060  0.00  0.00    +0.000 C 
ATOM     43  C   UNL     1      -8.207   5.185   5.236  0.00  0.00    +0.000 C 
BRANCH  42  44
ATOM     44  C   UNL     1     -10.888   6.471   6.234  0.00  0.00    +0.000 C 
ATOM     45  C   UNL     1     -11.658   5.203   5.966  0.00  0.00    +0.000 C 
BRANCH  44  46
ATOM     46  C   UNL     1     -11.626   7.682   6.139  0.00  0.00    +0.000 C 
ATOM     47  C   UNL     1     -12.187   8.741   6.133  0.00  0.00    +0.000 C 
ATOM     48  C   UNL     1     -12.836  10.128   6.248  0.00  0.00    +0.000 C 
ENDBRANCH  44  46
ENDBRANCH  42  44
ENDBRANCH  39  41
BRANCH  39  49
ATOM     49  O   UNL     1      -6.158   6.200   7.637  0.00  0.00    +0.000 OA
ATOM     50  H   UNL     1      -6.346   5.850   8.529  0.00  0.00    +0.000 HD
ENDBRANCH  39  49
ENDBRANCH   6  39
BRANCH   9  51
ATOM     51  C   UNL     1      -5.629  10.372   9.501  0.00  0.00    +0.000 C 
BRANCH  51  52
ATOM     52  O   UNL     1      -5.677  11.071  10.635  0.00  0.00    +0.000 OA
ATOM     53  H   UNL     1      -5.279  11.953  10.513  0.00  0.00    +0.000 HD
ENDBRANCH  51  52
ENDBRANCH   9  51
TORSDOF 13
ENDMDL
MODEL 4
REMARK VINA RESULT:      -5.3     26.829     30.024
REMARK  Name = 101808841_CandidaspongiolideA.pdbqt.pdb
REMARK  13 active torsions:
REMARK  status: ('A' for Active; 'I' for Inactive)
REMARK    1  A    between atoms: C_6  and  C_39
REMARK    2  A    between atoms: C_9  and  O_27
REMARK    3  A    between atoms: C_9  and  C_51
REMARK    4  A    between atoms: C_10  and  O_29
REMARK    5  A    between atoms: C_14  and  O_31
REMARK    6  A    between atoms: C_15  and  O_33
REMARK    7  A    between atoms: C_20  and  O_35
REMARK    8  A    between atoms: O_35  and  C_37
REMARK    9  A    between atoms: C_39  and  C_41
REMARK   10  A    between atoms: C_39  and  O_49
REMARK   11  A    between atoms: C_42  and  C_44
REMARK   12  A    between atoms: C_44  and  C_46
REMARK   13  A    between atoms: C_51  and  O_52
REMARK                            x       y       z     vdW  Elec       q    Type
REMARK                         _______ _______ _______ _____ _____    ______ ____
ROOT
ATOM      1  O   UNL     1     -10.357 -10.995  -2.212  0.00  0.00    +0.000 OA
ATOM      2  O   UNL     1      -8.009  -7.826  -0.896  0.00  0.00    +0.000 OA
ATOM      3  O   UNL     1     -11.608  -9.681  -3.637  0.00  0.00    +0.000 OA
ATOM      4  O   UNL     1      -7.684 -12.142   4.080  0.00  0.00    +0.000 OA
ATOM      5  O   UNL     1      -8.882 -13.287  -1.398  0.00  0.00    +0.000 OA
ATOM      6  C   UNL     1     -10.016  -8.953  -0.399  0.00  0.00    +0.000 C 
ATOM      7  C   UNL     1      -8.598  -8.573  -0.112  0.00  0.00    +0.000 C 
ATOM      8  C   UNL     1     -10.237 -10.002  -1.334  0.00  0.00    +0.000 C 
ATOM      9  C   UNL     1      -7.945  -9.245   1.127  0.00  0.00    +0.000 C 
ATOM     10  C   UNL     1      -7.610 -10.697   0.832  0.00  0.00    +0.000 C 
ATOM     11  C   UNL     1      -7.620 -11.710   1.835  0.00  0.00    +0.000 C 
ATOM     12  C   UNL     1     -10.979 -10.698  -3.377  0.00  0.00    +0.000 C 
ATOM     13  C   UNL     1      -7.666 -12.634   2.957  0.00  0.00    +0.000 C 
ATOM     14  C   UNL     1     -10.768 -11.764  -4.383  0.00  0.00    +0.000 C 
ATOM     15  C   UNL     1     -10.119 -13.032  -4.119  0.00  0.00    +0.000 C 
ATOM     16  C   UNL     1      -7.687 -14.113   2.713  0.00  0.00    +0.000 C 
ATOM     17  C   UNL     1     -10.450 -13.970  -3.052  0.00  0.00    +0.000 C 
ATOM     18  C   UNL     1      -9.146 -15.655  -1.647  0.00  0.00    +0.000 C 
ATOM     19  C   UNL     1      -9.423 -14.221  -1.993  0.00  0.00    +0.000 C 
ATOM     20  C   UNL     1      -8.441 -15.961  -0.400  0.00  0.00    +0.000 C 
ATOM     21  C   UNL     1      -7.557 -14.665   1.414  0.00  0.00    +0.000 C 
ATOM     22  C   UNL     1      -7.420 -15.146   0.219  0.00  0.00    +0.000 C 
ATOM     23  C   UNL     1      -7.835 -15.133   3.823  0.00  0.00    +0.000 C 
ATOM     24  C   UNL     1     -11.914 -14.126  -2.639  0.00  0.00    +0.000 C 
ATOM     25  C   UNL     1      -9.497 -16.775  -2.620  0.00  0.00    +0.000 C 
ATOM     26  C   UNL     1      -6.215 -14.662  -0.547  0.00  0.00    +0.000 C 
ENDROOT
BRANCH   9  27
ATOM     27  O   UNL     1      -8.867  -9.209   2.217  0.00  0.00    +0.000 OA
ATOM     28  H   UNL     1      -9.297 -10.082   2.257  0.00  0.00    +0.000 HD
ENDBRANCH   9  27
BRANCH  10  29
ATOM     29  O   UNL     1      -7.254 -11.037  -0.458  0.00  0.00    +0.000 OA
ATOM     30  H   UNL     1      -7.820 -10.633  -1.144  0.00  0.00    +0.000 HD
ENDBRANCH  10  29
BRANCH  14  31
ATOM     31  O   UNL     1     -11.164 -11.534  -5.689  0.00  0.00    +0.000 OA
ATOM     32  H   UNL     1     -12.062 -11.141  -5.714  0.00  0.00    +0.000 HD
ENDBRANCH  14  31
BRANCH  15  33
ATOM     33  O   UNL     1      -9.505 -13.593  -5.226  0.00  0.00    +0.000 OA
ATOM     34  C   UNL     1      -8.147 -13.240  -5.260  0.00  0.00    +0.000 C 
ENDBRANCH  15  33
BRANCH  20  35
ATOM     35  O   UNL     1      -8.467 -17.295   0.088  0.00  0.00    +0.000 OA
BRANCH  35  37
ATOM     36  O   UNL     1      -6.676 -18.252  -1.062  0.00  0.00    +0.000 OA
ATOM     37  C   UNL     1      -7.293 -17.964  -0.055  0.00  0.00    +0.000 C 
ATOM     38  C   UNL     1      -6.708 -18.462   1.215  0.00  0.00    +0.000 C 
ENDBRANCH  35  37
ENDBRANCH  20  35
BRANCH   6  39
ATOM     39  C   UNL     1     -11.111  -8.201   0.181  0.00  0.00    +0.000 C 
BRANCH  39  41
ATOM     40  O   UNL     1     -11.521  -8.604   2.665  0.00  0.00    +0.000 OA
ATOM     41  C   UNL     1     -11.941  -8.758   1.287  0.00  0.00    +0.000 C 
ATOM     42  C   UNL     1     -12.480  -7.753   2.199  0.00  0.00    +0.000 C 
ATOM     43  C   UNL     1     -12.532 -10.199   1.107  0.00  0.00    +0.000 C 
BRANCH  42  44
ATOM     44  C   UNL     1     -13.807  -7.843   2.739  0.00  0.00    +0.000 C 
ATOM     45  C   UNL     1     -14.015  -7.868   4.232  0.00  0.00    +0.000 C 
BRANCH  44  46
ATOM     46  C   UNL     1     -14.895  -7.360   1.964  0.00  0.00    +0.000 C 
ATOM     47  C   UNL     1     -15.793  -6.857   1.347  0.00  0.00    +0.000 C 
ATOM     48  C   UNL     1     -16.921  -6.095   0.638  0.00  0.00    +0.000 C 
ENDBRANCH  44  46
ENDBRANCH  42  44
ENDBRANCH  39  41
BRANCH  39  49
ATOM     49  O   UNL     1     -11.109  -6.845  -0.112  0.00  0.00    +0.000 OA
ATOM     50  H   UNL     1     -11.180  -6.289   0.688  0.00  0.00    +0.000 HD
ENDBRANCH  39  49
ENDBRANCH   6  39
BRANCH   9  51
ATOM     51  C   UNL     1      -6.705  -8.534   1.519  0.00  0.00    +0.000 C 
BRANCH  51  52
ATOM     52  O   UNL     1      -5.576  -7.918   1.869  0.00  0.00    +0.000 OA
ATOM     53  H   UNL     1      -5.754  -6.994   2.126  0.00  0.00    +0.000 HD
ENDBRANCH  51  52
ENDBRANCH   9  51
TORSDOF 13
ENDMDL
MODEL 5
REMARK VINA RESULT:      -5.2     31.314     34.905
REMARK  Name = 101808841_CandidaspongiolideA.pdbqt.pdb
REMARK  13 active torsions:
REMARK  status: ('A' for Active; 'I' for Inactive)
REMARK    1  A    between atoms: C_6  and  C_39
REMARK    2  A    between atoms: C_9  and  O_27
REMARK    3  A    between atoms: C_9  and  C_51
REMARK    4  A    between atoms: C_10  and  O_29
REMARK    5  A    between atoms: C_14  and  O_31
REMARK    6  A    between atoms: C_15  and  O_33
REMARK    7  A    between atoms: C_20  and  O_35
REMARK    8  A    between atoms: O_35  and  C_37
REMARK    9  A    between atoms: C_39  and  C_41
REMARK   10  A    between atoms: C_39  and  O_49
REMARK   11  A    between atoms: C_42  and  C_44
REMARK   12  A    between atoms: C_44  and  C_46
REMARK   13  A    between atoms: C_51  and  O_52
REMARK                            x       y       z     vdW  Elec       q    Type
REMARK                         _______ _______ _______ _____ _____    ______ ____
ROOT
ATOM      1  O   UNL     1      -3.292  -9.288  -4.509  0.00  0.00    +0.000 OA
ATOM      2  O   UNL     1      -4.633  -8.222  -0.721  0.00  0.00    +0.000 OA
ATOM      3  O   UNL     1      -2.657 -11.408  -3.859  0.00  0.00    +0.000 OA
ATOM      4  O   UNL     1      -3.168  -2.429  -3.513  0.00  0.00    +0.000 OA
ATOM      5  O   UNL     1      -4.458  -7.317  -6.197  0.00  0.00    +0.000 OA
ATOM      6  C   UNL     1      -2.691  -8.201  -2.054  0.00  0.00    +0.000 C 
ATOM      7  C   UNL     1      -3.828  -7.530  -1.348  0.00  0.00    +0.000 C 
ATOM      8  C   UNL     1      -2.960  -8.780  -3.325  0.00  0.00    +0.000 C 
ATOM      9  C   UNL     1      -3.951  -5.995  -1.551  0.00  0.00    +0.000 C 
ATOM     10  C   UNL     1      -4.485  -5.681  -2.938  0.00  0.00    +0.000 C 
ATOM     11  C   UNL     1      -4.132  -4.498  -3.651  0.00  0.00    +0.000 C 
ATOM     12  C   UNL     1      -3.194 -10.632  -4.638  0.00  0.00    +0.000 C 
ATOM     13  C   UNL     1      -3.690  -3.252  -4.257  0.00  0.00    +0.000 C 
ATOM     14  C   UNL     1      -3.885 -11.104  -5.860  0.00  0.00    +0.000 C 
ATOM     15  C   UNL     1      -4.455 -10.239  -6.873  0.00  0.00    +0.000 C 
ATOM     16  C   UNL     1      -3.882  -3.020  -5.725  0.00  0.00    +0.000 C 
ATOM     17  C   UNL     1      -3.780  -9.145  -7.560  0.00  0.00    +0.000 C 
ATOM     18  C   UNL     1      -4.499  -6.908  -8.557  0.00  0.00    +0.000 C 
ATOM     19  C   UNL     1      -4.286  -7.755  -7.336  0.00  0.00    +0.000 C 
ATOM     20  C   UNL     1      -4.638  -5.458  -8.400  0.00  0.00    +0.000 C 
ATOM     21  C   UNL     1      -4.584  -3.937  -6.548  0.00  0.00    +0.000 C 
ATOM     22  C   UNL     1      -5.243  -4.781  -7.276  0.00  0.00    +0.000 C 
ATOM     23  C   UNL     1      -3.361  -1.795  -6.444  0.00  0.00    +0.000 C 
ATOM     24  C   UNL     1      -2.293  -9.290  -7.888  0.00  0.00    +0.000 C 
ATOM     25  C   UNL     1      -4.670  -7.548  -9.930  0.00  0.00    +0.000 C 
ATOM     26  C   UNL     1      -6.619  -5.144  -6.775  0.00  0.00    +0.000 C 
ENDROOT
BRANCH   9  27
ATOM     27  O   UNL     1      -2.658  -5.402  -1.422  0.00  0.00    +0.000 OA
ATOM     28  H   UNL     1      -2.336  -5.219  -2.324  0.00  0.00    +0.000 HD
ENDBRANCH   9  27
BRANCH  10  29
ATOM     29  O   UNL     1      -5.371  -6.570  -3.513  0.00  0.00    +0.000 OA
ATOM     30  H   UNL     1      -5.542  -7.364  -2.973  0.00  0.00    +0.000 HD
ENDBRANCH  10  29
BRANCH  14  31
ATOM     31  O   UNL     1      -4.054 -12.465  -6.044  0.00  0.00    +0.000 OA
ATOM     32  H   UNL     1      -4.885 -12.770  -5.621  0.00  0.00    +0.000 HD
ENDBRANCH  14  31
BRANCH  15  33
ATOM     33  O   UNL     1      -5.516 -10.802  -7.562  0.00  0.00    +0.000 OA
ATOM     34  C   UNL     1      -5.157 -11.042  -8.897  0.00  0.00    +0.000 C 
ENDBRANCH  15  33
BRANCH  20  35
ATOM     35  O   UNL     1      -4.510  -4.633  -9.550  0.00  0.00    +0.000 OA
BRANCH  35  37
ATOM     36  O   UNL     1      -6.688  -4.698 -10.385  0.00  0.00    +0.000 OA
ATOM     37  C   UNL     1      -5.684  -4.125 -10.006  0.00  0.00    +0.000 C 
ATOM     38  C   UNL     1      -5.721  -2.645 -10.102  0.00  0.00    +0.000 C 
ENDBRANCH  35  37
ENDBRANCH  20  35
BRANCH   6  39
ATOM     39  C   UNL     1      -1.402  -8.339  -1.407  0.00  0.00    +0.000 C 
BRANCH  39  41
ATOM     40  O   UNL     1       1.128  -8.589  -1.610  0.00  0.00    +0.000 OA
ATOM     41  C   UNL     1      -0.129  -8.105  -2.147  0.00  0.00    +0.000 C 
ATOM     42  C   UNL     1       0.538  -9.324  -2.597  0.00  0.00    +0.000 C 
ATOM     43  C   UNL     1       0.110  -6.685  -2.765  0.00  0.00    +0.000 C 
BRANCH  42  44
ATOM     44  C   UNL     1       1.186  -9.414  -3.874  0.00  0.00    +0.000 C 
ATOM     45  C   UNL     1       2.663  -9.138  -3.994  0.00  0.00    +0.000 C 
BRANCH  44  46
ATOM     46  C   UNL     1       0.627 -10.264  -4.867  0.00  0.00    +0.000 C 
ATOM     47  C   UNL     1       0.225 -11.052  -5.676  0.00  0.00    +0.000 C 
ATOM     48  C   UNL     1      -0.170 -12.139  -6.686  0.00  0.00    +0.000 C 
ENDBRANCH  44  46
ENDBRANCH  42  44
ENDBRANCH  39  41
BRANCH  39  49
ATOM     49  O   UNL     1      -1.442  -8.357  -0.020  0.00  0.00    +0.000 OA
ATOM     50  H   UNL     1      -0.595  -8.643   0.375  0.00  0.00    +0.000 HD
ENDBRANCH  39  49
ENDBRANCH   6  39
BRANCH   9  51
ATOM     51  C   UNL     1      -4.856  -5.402  -0.539  0.00  0.00    +0.000 C 
BRANCH  51  52
ATOM     52  O   UNL     1      -5.650  -4.867   0.389  0.00  0.00    +0.000 OA
ATOM     53  H   UNL     1      -5.399  -5.178   1.278  0.00  0.00    +0.000 HD
ENDBRANCH  51  52
ENDBRANCH   9  51
TORSDOF 13
ENDMDL
MODEL 6
REMARK VINA RESULT:      -5.2     26.303     30.323
REMARK  Name = 101808841_CandidaspongiolideA.pdbqt.pdb
REMARK  13 active torsions:
REMARK  status: ('A' for Active; 'I' for Inactive)
REMARK    1  A    between atoms: C_6  and  C_39
REMARK    2  A    between atoms: C_9  and  O_27
REMARK    3  A    between atoms: C_9  and  C_51
REMARK    4  A    between atoms: C_10  and  O_29
REMARK    5  A    between atoms: C_14  and  O_31
REMARK    6  A    between atoms: C_15  and  O_33
REMARK    7  A    between atoms: C_20  and  O_35
REMARK    8  A    between atoms: O_35  and  C_37
REMARK    9  A    between atoms: C_39  and  C_41
REMARK   10  A    between atoms: C_39  and  O_49
REMARK   11  A    between atoms: C_42  and  C_44
REMARK   12  A    between atoms: C_44  and  C_46
REMARK   13  A    between atoms: C_51  and  O_52
REMARK                            x       y       z     vdW  Elec       q    Type
REMARK                         _______ _______ _______ _____ _____    ______ ____
ROOT
ATOM      1  O   UNL     1     -14.861   6.880   2.153  0.00  0.00    +0.000 OA
ATOM      2  O   UNL     1     -12.067   6.296  -0.869  0.00  0.00    +0.000 OA
ATOM      3  O   UNL     1     -13.581   8.459   3.245  0.00  0.00    +0.000 OA
ATOM      4  O   UNL     1     -15.438   0.628  -0.783  0.00  0.00    +0.000 OA
ATOM      5  O   UNL     1     -17.234   5.731   1.085  0.00  0.00    +0.000 OA
ATOM      6  C   UNL     1     -12.653   5.497   1.267  0.00  0.00    +0.000 C 
ATOM      7  C   UNL     1     -12.530   5.358  -0.218  0.00  0.00    +0.000 C 
ATOM      8  C   UNL     1     -13.779   6.209   1.767  0.00  0.00    +0.000 C 
ATOM      9  C   UNL     1     -13.100   4.050  -0.833  0.00  0.00    +0.000 C 
ATOM     10  C   UNL     1     -14.618   4.087  -0.854  0.00  0.00    +0.000 C 
ATOM     11  C   UNL     1     -15.421   2.915  -0.735  0.00  0.00    +0.000 C 
ATOM     12  C   UNL     1     -14.646   8.048   2.805  0.00  0.00    +0.000 C 
ATOM     13  C   UNL     1     -16.109   1.640  -0.608  0.00  0.00    +0.000 C 
ATOM     14  C   UNL     1     -15.889   8.848   2.892  0.00  0.00    +0.000 C 
ATOM     15  C   UNL     1     -17.199   8.386   2.481  0.00  0.00    +0.000 C 
ATOM     16  C   UNL     1     -17.571   1.604  -0.280  0.00  0.00    +0.000 C 
ATOM     17  C   UNL     1     -17.851   7.149   2.893  0.00  0.00    +0.000 C 
ATOM     18  C   UNL     1     -19.503   5.523   1.823  0.00  0.00    +0.000 C 
ATOM     19  C   UNL     1     -18.124   6.115   1.846  0.00  0.00    +0.000 C 
ATOM     20  C   UNL     1     -19.729   4.278   1.085  0.00  0.00    +0.000 C 
ATOM     21  C   UNL     1     -18.352   2.783  -0.188  0.00  0.00    +0.000 C 
ATOM     22  C   UNL     1     -19.049   3.873  -0.124  0.00  0.00    +0.000 C 
ATOM     23  C   UNL     1     -18.332   0.319  -0.035  0.00  0.00    +0.000 C 
ATOM     24  C   UNL     1     -17.630   6.640   4.318  0.00  0.00    +0.000 C 
ATOM     25  C   UNL     1     -20.676   6.252   2.467  0.00  0.00    +0.000 C 
ATOM     26  C   UNL     1     -18.962   4.776  -1.329  0.00  0.00    +0.000 C 
ENDROOT
BRANCH   9  27
ATOM     27  O   UNL     1     -12.688   2.940  -0.034  0.00  0.00    +0.000 OA
ATOM     28  H   UNL     1     -11.802   3.151   0.313  0.00  0.00    +0.000 HD
ENDBRANCH   9  27
BRANCH  10  29
ATOM     29  O   UNL     1     -15.240   5.308  -1.023  0.00  0.00    +0.000 OA
ATOM     30  H   UNL     1     -16.029   5.274  -1.596  0.00  0.00    +0.000 HD
ENDBRANCH  10  29
BRANCH  14  31
ATOM     31  O   UNL     1     -15.810  10.152   3.349  0.00  0.00    +0.000 OA
ATOM     32  H   UNL     1     -14.877  10.452   3.378  0.00  0.00    +0.000 HD
ENDBRANCH  14  31
BRANCH  15  33
ATOM     33  O   UNL     1     -18.056   9.399   2.085  0.00  0.00    +0.000 OA
ATOM     34  C   UNL     1     -17.999   9.570   0.694  0.00  0.00    +0.000 C 
ENDBRANCH  15  33
BRANCH  20  35
ATOM     35  O   UNL     1     -20.926   3.550   1.326  0.00  0.00    +0.000 OA
BRANCH  35  37
ATOM     36  O   UNL     1     -22.370   4.621  -0.161  0.00  0.00    +0.000 OA
ATOM     37  C   UNL     1     -21.844   3.641   0.330  0.00  0.00    +0.000 C 
ATOM     38  C   UNL     1     -22.309   2.335  -0.201  0.00  0.00    +0.000 C 
ENDBRANCH  35  37
ENDBRANCH  20  35
BRANCH   6  39
ATOM     39  C   UNL     1     -11.604   5.012   2.141  0.00  0.00    +0.000 C 
BRANCH  39  41
ATOM     40  O   UNL     1      -9.732   6.606   1.462  0.00  0.00    +0.000 OA
ATOM     41  C   UNL     1     -10.165   5.281   1.857  0.00  0.00    +0.000 C 
ATOM     42  C   UNL     1      -9.541   6.241   2.763  0.00  0.00    +0.000 C 
ATOM     43  C   UNL     1      -9.377   4.228   1.003  0.00  0.00    +0.000 C 
BRANCH  42  44
ATOM     44  C   UNL     1      -8.200   6.076   3.246  0.00  0.00    +0.000 C 
ATOM     45  C   UNL     1      -7.060   6.796   2.571  0.00  0.00    +0.000 C 
BRANCH  44  46
ATOM     46  C   UNL     1      -8.001   5.733   4.611  0.00  0.00    +0.000 C 
ATOM     47  C   UNL     1      -7.817   5.346   5.731  0.00  0.00    +0.000 C 
ATOM     48  C   UNL     1      -7.591   4.716   7.112  0.00  0.00    +0.000 C 
ENDBRANCH  44  46
ENDBRANCH  42  44
ENDBRANCH  39  41
BRANCH  39  49
ATOM     49  O   UNL     1     -12.030   4.603   3.396  0.00  0.00    +0.000 OA
ATOM     50  H   UNL     1     -11.392   4.829   4.100  0.00  0.00    +0.000 HD
ENDBRANCH  39  49
ENDBRANCH   6  39
BRANCH   9  51
ATOM     51  C   UNL     1     -12.603   3.860  -2.216  0.00  0.00    +0.000 C 
BRANCH  51  52
ATOM     52  O   UNL     1     -12.179   3.674  -3.466  0.00  0.00    +0.000 OA
ATOM     53  H   UNL     1     -12.110   2.722  -3.668  0.00  0.00    +0.000 HD
ENDBRANCH  51  52
ENDBRANCH   9  51
TORSDOF 13
ENDMDL
MODEL 7
REMARK VINA RESULT:      -5.2      8.891     14.707
REMARK  Name = 101808841_CandidaspongiolideA.pdbqt.pdb
REMARK  13 active torsions:
REMARK  status: ('A' for Active; 'I' for Inactive)
REMARK    1  A    between atoms: C_6  and  C_39
REMARK    2  A    between atoms: C_9  and  O_27
REMARK    3  A    between atoms: C_9  and  C_51
REMARK    4  A    between atoms: C_10  and  O_29
REMARK    5  A    between atoms: C_14  and  O_31
REMARK    6  A    between atoms: C_15  and  O_33
REMARK    7  A    between atoms: C_20  and  O_35
REMARK    8  A    between atoms: O_35  and  C_37
REMARK    9  A    between atoms: C_39  and  C_41
REMARK   10  A    between atoms: C_39  and  O_49
REMARK   11  A    between atoms: C_42  and  C_44
REMARK   12  A    between atoms: C_44  and  C_46
REMARK   13  A    between atoms: C_51  and  O_52
REMARK                            x       y       z     vdW  Elec       q    Type
REMARK                         _______ _______ _______ _____ _____    ______ ____
ROOT
ATOM      1  O   UNL     1     -12.399   5.191  20.270  0.00  0.00    +0.000 OA
ATOM      2  O   UNL     1     -16.363   6.072  19.378  0.00  0.00    +0.000 OA
ATOM      3  O   UNL     1     -11.589   6.132  18.326  0.00  0.00    +0.000 OA
ATOM      4  O   UNL     1     -16.822   0.915  23.463  0.00  0.00    +0.000 OA
ATOM      5  O   UNL     1     -12.467   4.606  23.053  0.00  0.00    +0.000 OA
ATOM      6  C   UNL     1     -14.744   4.389  19.073  0.00  0.00    +0.000 C 
ATOM      7  C   UNL     1     -15.999   4.934  19.680  0.00  0.00    +0.000 C 
ATOM      8  C   UNL     1     -13.509   4.783  19.659  0.00  0.00    +0.000 C 
ATOM      9  C   UNL     1     -16.697   4.032  20.734  0.00  0.00    +0.000 C 
ATOM     10  C   UNL     1     -15.927   4.050  22.044  0.00  0.00    +0.000 C 
ATOM     11  C   UNL     1     -15.892   2.936  22.934  0.00  0.00    +0.000 C 
ATOM     12  C   UNL     1     -11.549   5.945  19.534  0.00  0.00    +0.000 C 
ATOM     13  C   UNL     1     -15.949   1.729  23.742  0.00  0.00    +0.000 C 
ATOM     14  C   UNL     1     -10.535   6.600  20.393  0.00  0.00    +0.000 C 
ATOM     15  C   UNL     1     -10.368   6.351  21.810  0.00  0.00    +0.000 C 
ATOM     16  C   UNL     1     -14.969   1.526  24.859  0.00  0.00    +0.000 C 
ATOM     17  C   UNL     1     -10.209   5.050  22.449  0.00  0.00    +0.000 C 
ATOM     18  C   UNL     1     -10.832   4.051  24.714  0.00  0.00    +0.000 C 
ATOM     19  C   UNL     1     -11.281   4.592  23.387  0.00  0.00    +0.000 C 
ATOM     20  C   UNL     1     -11.774   3.267  25.516  0.00  0.00    +0.000 C 
ATOM     21  C   UNL     1     -14.037   2.525  25.236  0.00  0.00    +0.000 C 
ATOM     22  C   UNL     1     -13.205   3.459  25.572  0.00  0.00    +0.000 C 
ATOM     23  C   UNL     1     -14.902   0.255  25.679  0.00  0.00    +0.000 C 
ATOM     24  C   UNL     1      -9.430   3.960  21.712  0.00  0.00    +0.000 C 
ATOM     25  C   UNL     1      -9.456   4.394  25.271  0.00  0.00    +0.000 C 
ATOM     26  C   UNL     1     -13.817   4.808  25.857  0.00  0.00    +0.000 C 
ENDROOT
BRANCH   9  27
ATOM     27  O   UNL     1     -16.731   2.689  20.251  0.00  0.00    +0.000 OA
ATOM     28  H   UNL     1     -16.008   2.207  20.693  0.00  0.00    +0.000 HD
ENDBRANCH   9  27
BRANCH  10  29
ATOM     29  O   UNL     1     -15.260   5.207  22.395  0.00  0.00    +0.000 OA
ATOM     30  H   UNL     1     -14.625   5.517  21.722  0.00  0.00    +0.000 HD
ENDBRANCH  10  29
BRANCH  14  31
ATOM     31  O   UNL     1      -9.711   7.562  19.834  0.00  0.00    +0.000 OA
ATOM     32  H   UNL     1     -10.206   8.395  19.682  0.00  0.00    +0.000 HD
ENDBRANCH  14  31
BRANCH  15  33
ATOM     33  O   UNL     1      -9.837   7.420  22.512  0.00  0.00    +0.000 OA
ATOM     34  C   UNL     1     -10.864   8.192  23.074  0.00  0.00    +0.000 C 
ENDBRANCH  15  33
BRANCH  20  35
ATOM     35  O   UNL     1     -11.269   2.489  26.592  0.00  0.00    +0.000 OA
BRANCH  35  37
ATOM     36  O   UNL     1     -11.362   0.381  25.596  0.00  0.00    +0.000 OA
ATOM     37  C   UNL     1     -10.813   1.262  26.229  0.00  0.00    +0.000 C 
ATOM     38  C   UNL     1      -9.454   0.937  26.727  0.00  0.00    +0.000 C 
ENDBRANCH  35  37
ENDBRANCH  20  35
BRANCH   6  39
ATOM     39  C   UNL     1     -14.798   3.581  17.871  0.00  0.00    +0.000 C 
BRANCH  39  41
ATOM     40  O   UNL     1     -16.084   2.894  15.779  0.00  0.00    +0.000 OA
ATOM     41  C   UNL     1     -15.728   3.907  16.753  0.00  0.00    +0.000 C 
ATOM     42  C   UNL     1     -16.980   3.157  16.773  0.00  0.00    +0.000 C 
ATOM     43  C   UNL     1     -15.523   5.266  16.000  0.00  0.00    +0.000 C 
BRANCH  42  44
ATOM     44  C   UNL     1     -18.238   3.757  16.431  0.00  0.00    +0.000 C 
ATOM     45  C   UNL     1     -18.829   4.827  17.313  0.00  0.00    +0.000 C 
BRANCH  44  46
ATOM     46  C   UNL     1     -18.636   3.782  15.068  0.00  0.00    +0.000 C 
ATOM     47  C   UNL     1     -19.007   3.705  13.930  0.00  0.00    +0.000 C 
ATOM     48  C   UNL     1     -19.497   3.465  12.494  0.00  0.00    +0.000 C 
ENDBRANCH  44  46
ENDBRANCH  42  44
ENDBRANCH  39  41
BRANCH  39  49
ATOM     49  O   UNL     1     -13.719   2.727  17.692  0.00  0.00    +0.000 OA
ATOM     50  H   UNL     1     -13.881   2.062  16.995  0.00  0.00    +0.000 HD
ENDBRANCH  39  49
ENDBRANCH   6  39
BRANCH   9  51
ATOM     51  C   UNL     1     -18.084   4.491  20.983  0.00  0.00    +0.000 C 
BRANCH  51  52
ATOM     52  O   UNL     1     -19.323   4.913  21.232  0.00  0.00    +0.000 OA
ATOM     53  H   UNL     1     -19.464   5.022  22.191  0.00  0.00    +0.000 HD
ENDBRANCH  51  52
ENDBRANCH   9  51
TORSDOF 13
ENDMDL
MODEL 8
REMARK VINA RESULT:      -5.0     17.985     23.070
REMARK  Name = 101808841_CandidaspongiolideA.pdbqt.pdb
REMARK  13 active torsions:
REMARK  status: ('A' for Active; 'I' for Inactive)
REMARK    1  A    between atoms: C_6  and  C_39
REMARK    2  A    between atoms: C_9  and  O_27
REMARK    3  A    between atoms: C_9  and  C_51
REMARK    4  A    between atoms: C_10  and  O_29
REMARK    5  A    between atoms: C_14  and  O_31
REMARK    6  A    between atoms: C_15  and  O_33
REMARK    7  A    between atoms: C_20  and  O_35
REMARK    8  A    between atoms: O_35  and  C_37
REMARK    9  A    between atoms: C_39  and  C_41
REMARK   10  A    between atoms: C_39  and  O_49
REMARK   11  A    between atoms: C_42  and  C_44
REMARK   12  A    between atoms: C_44  and  C_46
REMARK   13  A    between atoms: C_51  and  O_52
REMARK                            x       y       z     vdW  Elec       q    Type
REMARK                         _______ _______ _______ _____ _____    ______ ____
ROOT
ATOM      1  O   UNL     1       3.991 -15.446  14.045  0.00  0.00    +0.000 OA
ATOM      2  O   UNL     1       6.051 -12.110  15.429  0.00  0.00    +0.000 OA
ATOM      3  O   UNL     1       5.106 -15.491  12.027  0.00  0.00    +0.000 OA
ATOM      4  O   UNL     1       0.401 -11.939  18.827  0.00  0.00    +0.000 OA
ATOM      5  O   UNL     1       2.826 -16.524  16.406  0.00  0.00    +0.000 OA
ATOM      6  C   UNL     1       4.121 -12.702  14.217  0.00  0.00    +0.000 C 
ATOM      7  C   UNL     1       4.820 -12.162  15.425  0.00  0.00    +0.000 C 
ATOM      8  C   UNL     1       4.035 -14.116  14.088  0.00  0.00    +0.000 C 
ATOM      9  C   UNL     1       3.916 -11.795  16.633  0.00  0.00    +0.000 C 
ATOM     10  C   UNL     1       3.434 -13.051  17.340  0.00  0.00    +0.000 C 
ATOM     11  C   UNL     1       2.177 -13.126  18.009  0.00  0.00    +0.000 C 
ATOM     12  C   UNL     1       4.645 -16.039  13.019  0.00  0.00    +0.000 C 
ATOM     13  C   UNL     1       0.875 -13.057  18.653  0.00  0.00    +0.000 C 
ATOM     14  C   UNL     1       4.801 -17.493  13.252  0.00  0.00    +0.000 C 
ATOM     15  C   UNL     1       4.201 -18.222  14.351  0.00  0.00    +0.000 C 
ATOM     16  C   UNL     1       0.175 -14.314  19.071  0.00  0.00    +0.000 C 
ATOM     17  C   UNL     1       2.793 -18.213  14.732  0.00  0.00    +0.000 C 
ATOM     18  C   UNL     1       1.502 -18.452  16.921  0.00  0.00    +0.000 C 
ATOM     19  C   UNL     1       2.428 -17.639  16.064  0.00  0.00    +0.000 C 
ATOM     20  C   UNL     1       0.828 -17.807  18.050  0.00  0.00    +0.000 C 
ATOM     21  C   UNL     1       0.785 -15.589  18.960  0.00  0.00    +0.000 C 
ATOM     22  C   UNL     1       1.368 -16.742  18.863  0.00  0.00    +0.000 C 
ATOM     23  C   UNL     1      -1.222 -14.329  19.655  0.00  0.00    +0.000 C 
ATOM     24  C   UNL     1       1.735 -18.120  13.631  0.00  0.00    +0.000 C 
ATOM     25  C   UNL     1       1.339 -19.950  16.689  0.00  0.00    +0.000 C 
ATOM     26  C   UNL     1       2.728 -16.842  19.507  0.00  0.00    +0.000 C 
ENDROOT
BRANCH   9  27
ATOM     27  O   UNL     1       2.774 -11.079  16.162  0.00  0.00    +0.000 OA
ATOM     28  H   UNL     1       2.136 -11.040  16.898  0.00  0.00    +0.000 HD
ENDBRANCH   9  27
BRANCH  10  29
ATOM     29  O   UNL     1       4.266 -14.152  17.355  0.00  0.00    +0.000 OA
ATOM     30  H   UNL     1       4.066 -14.790  18.067  0.00  0.00    +0.000 HD
ENDBRANCH  10  29
BRANCH  14  31
ATOM     31  O   UNL     1       5.616 -18.219  12.402  0.00  0.00    +0.000 OA
ATOM     32  H   UNL     1       6.294 -18.712  12.911  0.00  0.00    +0.000 HD
ENDBRANCH  14  31
BRANCH  15  33
ATOM     33  O   UNL     1       4.906 -19.351  14.730  0.00  0.00    +0.000 OA
ATOM     34  C   UNL     1       5.777 -19.050  15.788  0.00  0.00    +0.000 C 
ENDBRANCH  15  33
BRANCH  20  35
ATOM     35  O   UNL     1      -0.278 -18.466  18.650  0.00  0.00    +0.000 OA
BRANCH  35  37
ATOM     36  O   UNL     1      -2.098 -17.190  17.942  0.00  0.00    +0.000 OA
ATOM     37  C   UNL     1      -1.468 -18.225  18.042  0.00  0.00    +0.000 C 
ATOM     38  C   UNL     1      -2.117 -19.424  17.458  0.00  0.00    +0.000 C 
ENDBRANCH  35  37
ENDBRANCH  20  35
BRANCH   6  39
ATOM     39  C   UNL     1       3.650 -11.809  13.179  0.00  0.00    +0.000 C 
BRANCH  39  41
ATOM     40  O   UNL     1       4.098 -10.031  11.406  0.00  0.00    +0.000 OA
ATOM     41  C   UNL     1       4.597 -11.025  12.335  0.00  0.00    +0.000 C 
ATOM     42  C   UNL     1       4.590  -9.588  12.599  0.00  0.00    +0.000 C 
ATOM     43  C   UNL     1       5.779 -11.793  11.651  0.00  0.00    +0.000 C 
BRANCH  42  44
ATOM     44  C   UNL     1       5.793  -8.806  12.604  0.00  0.00    +0.000 C 
ATOM     45  C   UNL     1       5.896  -7.572  11.743  0.00  0.00    +0.000 C 
BRANCH  44  46
ATOM     46  C   UNL     1       6.623  -8.833  13.757  0.00  0.00    +0.000 C 
ATOM     47  C   UNL     1       7.260  -8.929  14.768  0.00  0.00    +0.000 C 
ATOM     48  C   UNL     1       7.965  -9.128  16.118  0.00  0.00    +0.000 C 
ENDBRANCH  44  46
ENDBRANCH  42  44
ENDBRANCH  39  41
BRANCH  39  49
ATOM     49  O   UNL     1       2.328 -11.993  12.802  0.00  0.00    +0.000 OA
ATOM     50  H   UNL     1       1.734 -11.314  13.177  0.00  0.00    +0.000 HD
ENDBRANCH  39  49
ENDBRANCH   6  39
BRANCH   9  51
ATOM     51  C   UNL     1       4.650 -10.948  17.602  0.00  0.00    +0.000 C 
BRANCH  51  52
ATOM     52  O   UNL     1       5.314 -10.167  18.455  0.00  0.00    +0.000 OA
ATOM     53  H   UNL     1       5.869 -10.703  19.051  0.00  0.00    +0.000 HD
ENDBRANCH  51  52
ENDBRANCH   9  51
TORSDOF 13
ENDMDL
MODEL 9
REMARK VINA RESULT:      -4.9     27.378     30.559
REMARK  Name = 101808841_CandidaspongiolideA.pdbqt.pdb
REMARK  13 active torsions:
REMARK  status: ('A' for Active; 'I' for Inactive)
REMARK    1  A    between atoms: C_6  and  C_39
REMARK    2  A    between atoms: C_9  and  O_27
REMARK    3  A    between atoms: C_9  and  C_51
REMARK    4  A    between atoms: C_10  and  O_29
REMARK    5  A    between atoms: C_14  and  O_31
REMARK    6  A    between atoms: C_15  and  O_33
REMARK    7  A    between atoms: C_20  and  O_35
REMARK    8  A    between atoms: O_35  and  C_37
REMARK    9  A    between atoms: C_39  and  C_41
REMARK   10  A    between atoms: C_39  and  O_49
REMARK   11  A    between atoms: C_42  and  C_44
REMARK   12  A    between atoms: C_44  and  C_46
REMARK   13  A    between atoms: C_51  and  O_52
REMARK                            x       y       z     vdW  Elec       q    Type
REMARK                         _______ _______ _______ _____ _____    ______ ____
ROOT
ATOM      1  O   UNL     1     -15.566   2.197  -0.758  0.00  0.00    +0.000 OA
ATOM      2  O   UNL     1     -19.483   2.598  -2.092  0.00  0.00    +0.000 OA
ATOM      3  O   UNL     1     -15.206   0.237  -1.919  0.00  0.00    +0.000 OA
ATOM      4  O   UNL     1     -19.446   5.961   3.582  0.00  0.00    +0.000 OA
ATOM      5  O   UNL     1     -14.946   4.786   0.246  0.00  0.00    +0.000 OA
ATOM      6  C   UNL     1     -18.229   1.632  -0.349  0.00  0.00    +0.000 C 
ATOM      7  C   UNL     1     -19.194   2.637  -0.895  0.00  0.00    +0.000 C 
ATOM      8  C   UNL     1     -16.842   1.885  -0.542  0.00  0.00    +0.000 C 
ATOM      9  C   UNL     1     -19.684   3.726   0.099  0.00  0.00    +0.000 C 
ATOM     10  C   UNL     1     -18.592   4.751   0.349  0.00  0.00    +0.000 C 
ATOM     11  C   UNL     1     -18.454   5.445   1.587  0.00  0.00    +0.000 C 
ATOM     12  C   UNL     1     -14.862   1.349  -1.543  0.00  0.00    +0.000 C 
ATOM     13  C   UNL     1     -18.437   6.078   2.896  0.00  0.00    +0.000 C 
ATOM     14  C   UNL     1     -13.580   1.956  -1.971  0.00  0.00    +0.000 C 
ATOM     15  C   UNL     1     -13.065   3.223  -1.491  0.00  0.00    +0.000 C 
ATOM     16  C   UNL     1     -17.224   6.832   3.351  0.00  0.00    +0.000 C 
ATOM     17  C   UNL     1     -12.901   3.621  -0.098  0.00  0.00    +0.000 C 
ATOM     18  C   UNL     1     -13.003   5.824   1.186  0.00  0.00    +0.000 C 
ATOM     19  C   UNL     1     -13.725   4.761   0.410  0.00  0.00    +0.000 C 
ATOM     20  C   UNL     1     -13.781   6.758   2.005  0.00  0.00    +0.000 C 
ATOM     21  C   UNL     1     -16.108   7.048   2.503  0.00  0.00    +0.000 C 
ATOM     22  C   UNL     1     -15.107   7.246   1.705  0.00  0.00    +0.000 C 
ATOM     23  C   UNL     1     -17.093   7.431   4.735  0.00  0.00    +0.000 C 
ATOM     24  C   UNL     1     -12.493   2.560   0.926  0.00  0.00    +0.000 C 
ATOM     25  C   UNL     1     -11.496   6.002   1.049  0.00  0.00    +0.000 C 
ATOM     26  C   UNL     1     -15.447   7.862   0.371  0.00  0.00    +0.000 C 
ENDROOT
BRANCH   9  27
ATOM     27  O   UNL     1     -20.015   3.108   1.343  0.00  0.00    +0.000 OA
ATOM     28  H   UNL     1     -20.718   2.458   1.162  0.00  0.00    +0.000 HD
ENDBRANCH   9  27
BRANCH  10  29
ATOM     29  O   UNL     1     -17.717   5.038  -0.680  0.00  0.00    +0.000 OA
ATOM     30  H   UNL     1     -16.865   5.411  -0.383  0.00  0.00    +0.000 HD
ENDBRANCH  10  29
BRANCH  14  31
ATOM     31  O   UNL     1     -12.827   1.310  -2.935  0.00  0.00    +0.000 OA
ATOM     32  H   UNL     1     -11.877   1.536  -2.841  0.00  0.00    +0.000 HD
ENDBRANCH  14  31
BRANCH  15  33
ATOM     33  O   UNL     1     -12.236   3.871  -2.390  0.00  0.00    +0.000 OA
ATOM     34  C   UNL     1     -12.971   4.787  -3.157  0.00  0.00    +0.000 C 
ENDBRANCH  15  33
BRANCH  20  35
ATOM     35  O   UNL     1     -13.102   7.537   2.980  0.00  0.00    +0.000 OA
BRANCH  35  37
ATOM     36  O   UNL     1     -12.170   5.915   4.374  0.00  0.00    +0.000 OA
ATOM     37  C   UNL     1     -12.865   6.887   4.148  0.00  0.00    +0.000 C 
ATOM     38  C   UNL     1     -13.615   7.418   5.313  0.00  0.00    +0.000 C 
ENDBRANCH  35  37
ENDBRANCH  20  35
BRANCH   6  39
ATOM     39  C   UNL     1     -18.706   0.405   0.255  0.00  0.00    +0.000 C 
BRANCH  39  41
ATOM     40  O   UNL     1     -20.336  -1.556   0.234  0.00  0.00    +0.000 OA
ATOM     41  C   UNL     1     -19.605  -0.529  -0.481  0.00  0.00    +0.000 C 
ATOM     42  C   UNL     1     -21.014  -0.424  -0.112  0.00  0.00    +0.000 C 
ATOM     43  C   UNL     1     -19.086  -1.137  -1.829  0.00  0.00    +0.000 C 
BRANCH  42  44
ATOM     44  C   UNL     1     -22.068  -0.517  -1.082  0.00  0.00    +0.000 C 
ATOM     45  C   UNL     1     -23.081  -1.630  -0.993  0.00  0.00    +0.000 C 
BRANCH  44  46
ATOM     46  C   UNL     1     -22.496   0.665  -1.743  0.00  0.00    +0.000 C 
ATOM     47  C   UNL     1     -22.793   1.638  -2.379  0.00  0.00    +0.000 C 
ATOM     48  C   UNL     1     -23.060   2.853  -3.279  0.00  0.00    +0.000 C 
ENDBRANCH  44  46
ENDBRANCH  42  44
ENDBRANCH  39  41
BRANCH  39  49
ATOM     49  O   UNL     1     -18.014   0.002   1.388  0.00  0.00    +0.000 OA
ATOM     50  H   UNL     1     -18.439  -0.754   1.837  0.00  0.00    +0.000 HD
ENDBRANCH  39  49
ENDBRANCH   6  39
BRANCH   9  51
ATOM     51  C   UNL     1     -20.883   4.418  -0.430  0.00  0.00    +0.000 C 
BRANCH  51  52
ATOM     52  O   UNL     1     -21.950   5.064  -0.901  0.00  0.00    +0.000 OA
ATOM     53  H   UNL     1     -22.486   4.477  -1.465  0.00  0.00    +0.000 HD
ENDBRANCH  51  52
ENDBRANCH   9  51
TORSDOF 13
ENDMDL
