MODEL 1
REMARK VINA RESULT:      -6.0      0.000      0.000
REMARK  Name = 101808842_CandidaspongiolideB.pdbqt.pdb
REMARK  12 active torsions:
REMARK  status: ('A' for Active; 'I' for Inactive)
REMARK    1  A    between atoms: C_6  and  C_42
REMARK    2  A    between atoms: C_7  and  O_28
REMARK    3  A    between atoms: C_10  and  O_30
REMARK    4  A    between atoms: C_13  and  O_32
REMARK    5  A    between atoms: C_19  and  O_34
REMARK    6  A    between atoms: C_20  and  O_38
REMARK    7  A    between atoms: C_21  and  O_36
REMARK    8  A    between atoms: O_38  and  C_40
REMARK    9  A    between atoms: C_42  and  C_44
REMARK   10  A    between atoms: C_42  and  O_52
REMARK   11  A    between atoms: C_45  and  C_47
REMARK   12  A    between atoms: C_47  and  C_49
REMARK                            x       y       z     vdW  Elec       q    Type
REMARK                         _______ _______ _______ _____ _____    ______ ____
ROOT
ATOM      1  O   UNL     1       7.373 -15.550  12.734  0.00  0.00    +0.000 OA
ATOM      2  O   UNL     1       4.765  -9.374  14.243  0.00  0.00    +0.000 OA
ATOM      3  O   UNL     1       6.333 -13.121  15.477  0.00  0.00    +0.000 OA
ATOM      4  O   UNL     1       7.014  -9.861  14.074  0.00  0.00    +0.000 OA
ATOM      5  O   UNL     1       8.067 -10.088  11.316  0.00  0.00    +0.000 OA
ATOM      6  C   UNL     1       4.347 -12.013  14.922  0.00  0.00    +0.000 C 
ATOM      7  C   UNL     1       5.424 -13.671  13.255  0.00  0.00    +0.000 C 
ATOM      8  C   UNL     1       5.460 -12.956  14.623  0.00  0.00    +0.000 C 
ATOM      9  C   UNL     1       4.530 -10.634  14.614  0.00  0.00    +0.000 C 
ATOM     10  C   UNL     1       6.127 -12.821  12.179  0.00  0.00    +0.000 C 
ATOM     11  C   UNL     1       7.225 -13.454  11.524  0.00  0.00    +0.000 C 
ATOM     12  C   UNL     1       6.315 -14.875  13.231  0.00  0.00    +0.000 C 
ATOM     13  C   UNL     1       7.963 -14.751  11.629  0.00  0.00    +0.000 C 
ATOM     14  C   UNL     1       9.455 -14.519  11.911  0.00  0.00    +0.000 C 
ATOM     15  C   UNL     1       9.937 -13.240  12.322  0.00  0.00    +0.000 C 
ATOM     16  C   UNL     1      10.578 -15.527  11.695  0.00  0.00    +0.000 C 
ATOM     17  C   UNL     1       6.058  -9.120  13.899  0.00  0.00    +0.000 C 
ATOM     18  C   UNL     1      10.307 -12.045  12.664  0.00  0.00    +0.000 C 
ATOM     19  C   UNL     1       6.159  -7.827  13.183  0.00  0.00    +0.000 C 
ATOM     20  C   UNL     1      10.798 -11.096  11.692  0.00  0.00    +0.000 C 
ATOM     21  C   UNL     1       7.310  -7.509  12.361  0.00  0.00    +0.000 C 
ATOM     22  C   UNL     1      10.400  -9.694  11.575  0.00  0.00    +0.000 C 
ATOM     23  C   UNL     1       8.648  -8.071  12.477  0.00  0.00    +0.000 C 
ATOM     24  C   UNL     1       8.952  -9.348  11.758  0.00  0.00    +0.000 C 
ATOM     25  C   UNL     1      10.014 -11.631  14.078  0.00  0.00    +0.000 C 
ATOM     26  C   UNL     1      11.296  -8.716  10.817  0.00  0.00    +0.000 C 
ATOM     27  C   UNL     1       9.600  -7.482  13.512  0.00  0.00    +0.000 C 
ENDROOT
BRANCH   7  28
ATOM     28  O   UNL     1       4.145 -14.043  12.782  0.00  0.00    +0.000 OA
ATOM     29  H   UNL     1       4.207 -14.983  12.532  0.00  0.00    +0.000 HD
ENDBRANCH   7  28
BRANCH  10  30
ATOM     30  O   UNL     1       5.721 -11.552  11.854  0.00  0.00    +0.000 OA
ATOM     31  H   UNL     1       6.451 -10.907  11.960  0.00  0.00    +0.000 HD
ENDBRANCH  10  30
BRANCH  13  32
ATOM     32  O   UNL     1       7.776 -15.459  10.407  0.00  0.00    +0.000 OA
ATOM     33  H   UNL     1       8.657 -15.529  10.006  0.00  0.00    +0.000 HD
ENDBRANCH  13  32
BRANCH  19  34
ATOM     34  O   UNL     1       5.110  -6.927  13.143  0.00  0.00    +0.000 OA
ATOM     35  H   UNL     1       5.398  -6.008  12.966  0.00  0.00    +0.000 HD
ENDBRANCH  19  34
BRANCH  21  36
ATOM     36  O   UNL     1       7.207  -6.320  11.657  0.00  0.00    +0.000 OA
ATOM     37  C   UNL     1       7.102  -6.563  10.276  0.00  0.00    +0.000 C 
ENDBRANCH  21  36
BRANCH  20  38
ATOM     38  O   UNL     1      11.960 -11.505  10.996  0.00  0.00    +0.000 OA
BRANCH  38  40
ATOM     39  O   UNL     1      13.535 -10.835  12.578  0.00  0.00    +0.000 OA
ATOM     40  C   UNL     1      13.006 -11.655  11.849  0.00  0.00    +0.000 C 
ATOM     41  C   UNL     1      13.639 -12.997  11.840  0.00  0.00    +0.000 C 
ENDBRANCH  38  40
ENDBRANCH  20  38
BRANCH   6  42
ATOM     42  C   UNL     1       3.228 -12.491  15.703  0.00  0.00    +0.000 C 
BRANCH  42  44
ATOM     43  O   UNL     1       3.289 -10.921  17.684  0.00  0.00    +0.000 OA
ATOM     44  C   UNL     1       3.136 -12.266  17.170  0.00  0.00    +0.000 C 
ATOM     45  C   UNL     1       2.018 -11.406  17.544  0.00  0.00    +0.000 C 
ATOM     46  C   UNL     1       3.865 -13.262  18.132  0.00  0.00    +0.000 C 
BRANCH  45  47
ATOM     47  C   UNL     1       1.242 -11.559  18.738  0.00  0.00    +0.000 C 
ATOM     48  C   UNL     1       1.198 -10.454  19.762  0.00  0.00    +0.000 C 
BRANCH  47  49
ATOM     49  C   UNL     1       0.179 -12.497  18.785  0.00  0.00    +0.000 C 
ATOM     50  C   UNL     1      -0.724 -13.277  18.892  0.00  0.00    +0.000 C 
ATOM     51  C   UNL     1      -1.868 -14.262  19.151  0.00  0.00    +0.000 C 
ENDBRANCH  47  49
ENDBRANCH  45  47
ENDBRANCH  42  44
BRANCH  42  52
ATOM     52  O   UNL     1       2.236 -13.144  14.983  0.00  0.00    +0.000 OA
ATOM     53  H   UNL     1       2.319 -14.118  15.040  0.00  0.00    +0.000 HD
ENDBRANCH  42  52
ENDBRANCH   6  42
TORSDOF 12
ENDMDL
MODEL 2
REMARK VINA RESULT:      -5.7      3.077      4.098
REMARK  Name = 101808842_CandidaspongiolideB.pdbqt.pdb
REMARK  12 active torsions:
REMARK  status: ('A' for Active; 'I' for Inactive)
REMARK    1  A    between atoms: C_6  and  C_42
REMARK    2  A    between atoms: C_7  and  O_28
REMARK    3  A    between atoms: C_10  and  O_30
REMARK    4  A    between atoms: C_13  and  O_32
REMARK    5  A    between atoms: C_19  and  O_34
REMARK    6  A    between atoms: C_20  and  O_38
REMARK    7  A    between atoms: C_21  and  O_36
REMARK    8  A    between atoms: O_38  and  C_40
REMARK    9  A    between atoms: C_42  and  C_44
REMARK   10  A    between atoms: C_42  and  O_52
REMARK   11  A    between atoms: C_45  and  C_47
REMARK   12  A    between atoms: C_47  and  C_49
REMARK                            x       y       z     vdW  Elec       q    Type
REMARK                         _______ _______ _______ _____ _____    ______ ____
ROOT
ATOM      1  O   UNL     1       8.595 -17.063  12.475  0.00  0.00    +0.000 OA
ATOM      2  O   UNL     1       3.392 -12.644  13.263  0.00  0.00    +0.000 OA
ATOM      3  O   UNL     1       6.250 -15.313  14.913  0.00  0.00    +0.000 OA
ATOM      4  O   UNL     1       5.630 -12.097  13.387  0.00  0.00    +0.000 OA
ATOM      5  O   UNL     1       7.033 -11.863  10.790  0.00  0.00    +0.000 OA
ATOM      6  C   UNL     1       4.074 -15.193  14.061  0.00  0.00    +0.000 C 
ATOM      7  C   UNL     1       5.974 -16.225  12.643  0.00  0.00    +0.000 C 
ATOM      8  C   UNL     1       5.515 -15.555  13.956  0.00  0.00    +0.000 C 
ATOM      9  C   UNL     1       3.680 -13.877  13.686  0.00  0.00    +0.000 C 
ATOM     10  C   UNL     1       6.375 -15.162  11.601  0.00  0.00    +0.000 C 
ATOM     11  C   UNL     1       7.715 -15.254  11.121  0.00  0.00    +0.000 C 
ATOM     12  C   UNL     1       7.294 -16.916  12.801  0.00  0.00    +0.000 C 
ATOM     13  C   UNL     1       8.922 -16.096  11.396  0.00  0.00    +0.000 C 
ATOM     14  C   UNL     1      10.113 -15.230  11.833  0.00  0.00    +0.000 C 
ATOM     15  C   UNL     1       9.933 -13.867  12.211  0.00  0.00    +0.000 C 
ATOM     16  C   UNL     1      11.580 -15.646  11.814  0.00  0.00    +0.000 C 
ATOM     17  C   UNL     1       4.480 -11.852  13.054  0.00  0.00    +0.000 C 
ATOM     18  C   UNL     1       9.699 -12.627  12.514  0.00  0.00    +0.000 C 
ATOM     19  C   UNL     1       4.104 -10.652  12.271  0.00  0.00    +0.000 C 
ATOM     20  C   UNL     1       9.854 -11.567  11.545  0.00  0.00    +0.000 C 
ATOM     21  C   UNL     1       5.101  -9.868  11.568  0.00  0.00    +0.000 C 
ATOM     22  C   UNL     1       8.907 -10.483  11.291  0.00  0.00    +0.000 C 
ATOM     23  C   UNL     1       6.521  -9.785  11.875  0.00  0.00    +0.000 C 
ATOM     24  C   UNL     1       7.442 -10.806  11.282  0.00  0.00    +0.000 C 
ATOM     25  C   UNL     1       9.071 -12.371  13.854  0.00  0.00    +0.000 C 
ATOM     26  C   UNL     1       9.382  -9.218  10.579  0.00  0.00    +0.000 C 
ATOM     27  C   UNL     1       6.977  -8.830  12.972  0.00  0.00    +0.000 C 
ENDROOT
BRANCH   7  28
ATOM     28  O   UNL     1       5.059 -17.124  12.050  0.00  0.00    +0.000 OA
ATOM     29  H   UNL     1       4.430 -16.581  11.541  0.00  0.00    +0.000 HD
ENDBRANCH   7  28
BRANCH  10  30
ATOM     30  O   UNL     1       5.506 -14.203  11.149  0.00  0.00    +0.000 OA
ATOM     31  H   UNL     1       5.984 -13.393  10.871  0.00  0.00    +0.000 HD
ENDBRANCH  10  30
BRANCH  13  32
ATOM     32  O   UNL     1       9.224 -16.825  10.209  0.00  0.00    +0.000 OA
ATOM     33  H   UNL     1       8.411 -16.816   9.680  0.00  0.00    +0.000 HD
ENDBRANCH  13  32
BRANCH  19  34
ATOM     34  O   UNL     1       2.784 -10.304  12.050  0.00  0.00    +0.000 OA
ATOM     35  H   UNL     1       2.151 -10.995  12.334  0.00  0.00    +0.000 HD
ENDBRANCH  19  34
BRANCH  21  36
ATOM     36  O   UNL     1       4.587  -8.851  10.780  0.00  0.00    +0.000 OA
ATOM     37  C   UNL     1       5.536  -8.420   9.836  0.00  0.00    +0.000 C 
ENDBRANCH  21  36
BRANCH  20  38
ATOM     38  O   UNL     1      11.160 -11.431  11.016  0.00  0.00    +0.000 OA
BRANCH  38  40
ATOM     39  O   UNL     1      12.042 -10.235  12.811  0.00  0.00    +0.000 OA
ATOM     40  C   UNL     1      12.051 -11.142  12.000  0.00  0.00    +0.000 C 
ATOM     41  C   UNL     1      13.243 -12.023  12.047  0.00  0.00    +0.000 C 
ENDBRANCH  38  40
ENDBRANCH  20  38
BRANCH   6  42
ATOM     42  C   UNL     1       3.180 -16.107  14.737  0.00  0.00    +0.000 C 
BRANCH  42  44
ATOM     43  O   UNL     1       3.414 -18.455  13.828  0.00  0.00    +0.000 OA
ATOM     44  C   UNL     1       2.589 -17.286  14.051  0.00  0.00    +0.000 C 
ATOM     45  C   UNL     1       2.556 -18.477  14.893  0.00  0.00    +0.000 C 
ATOM     46  C   UNL     1       1.691 -17.051  12.791  0.00  0.00    +0.000 C 
BRANCH  45  47
ATOM     47  C   UNL     1       1.512 -19.457  14.871  0.00  0.00    +0.000 C 
ATOM     48  C   UNL     1       1.668 -20.714  14.053  0.00  0.00    +0.000 C 
BRANCH  47  49
ATOM     49  C   UNL     1       0.555 -19.506  15.915  0.00  0.00    +0.000 C 
ATOM     50  C   UNL     1      -0.303 -19.535  16.752  0.00  0.00    +0.000 C 
ATOM     51  C   UNL     1      -1.476 -19.528  17.736  0.00  0.00    +0.000 C 
ENDBRANCH  47  49
ENDBRANCH  45  47
ENDBRANCH  42  44
BRANCH  42  52
ATOM     52  O   UNL     1       2.941 -15.824  16.076  0.00  0.00    +0.000 OA
ATOM     53  H   UNL     1       3.720 -15.424  16.512  0.00  0.00    +0.000 HD
ENDBRANCH  42  52
ENDBRANCH   6  42
TORSDOF 12
ENDMDL
MODEL 3
REMARK VINA RESULT:      -5.7      2.977      8.722
REMARK  Name = 101808842_CandidaspongiolideB.pdbqt.pdb
REMARK  12 active torsions:
REMARK  status: ('A' for Active; 'I' for Inactive)
REMARK    1  A    between atoms: C_6  and  C_42
REMARK    2  A    between atoms: C_7  and  O_28
REMARK    3  A    between atoms: C_10  and  O_30
REMARK    4  A    between atoms: C_13  and  O_32
REMARK    5  A    between atoms: C_19  and  O_34
REMARK    6  A    between atoms: C_20  and  O_38
REMARK    7  A    between atoms: C_21  and  O_36
REMARK    8  A    between atoms: O_38  and  C_40
REMARK    9  A    between atoms: C_42  and  C_44
REMARK   10  A    between atoms: C_42  and  O_52
REMARK   11  A    between atoms: C_45  and  C_47
REMARK   12  A    between atoms: C_47  and  C_49
REMARK                            x       y       z     vdW  Elec       q    Type
REMARK                         _______ _______ _______ _____ _____    ______ ____
ROOT
ATOM      1  O   UNL     1      10.337  -7.397  14.604  0.00  0.00    +0.000 OA
ATOM      2  O   UNL     1       4.738  -9.293  11.101  0.00  0.00    +0.000 OA
ATOM      3  O   UNL     1       8.933  -8.680  11.305  0.00  0.00    +0.000 OA
ATOM      4  O   UNL     1       6.114 -10.721  12.280  0.00  0.00    +0.000 OA
ATOM      5  O   UNL     1       5.754 -10.706  15.218  0.00  0.00    +0.000 OA
ATOM      6  C   UNL     1       6.910  -7.628  10.776  0.00  0.00    +0.000 C 
ATOM      7  C   UNL     1       8.117  -7.090  12.999  0.00  0.00    +0.000 C 
ATOM      8  C   UNL     1       8.074  -7.878  11.672  0.00  0.00    +0.000 C 
ATOM      9  C   UNL     1       5.776  -8.482  10.889  0.00  0.00    +0.000 C 
ATOM     10  C   UNL     1       7.361  -7.850  14.107  0.00  0.00    +0.000 C 
ATOM     11  C   UNL     1       8.136  -8.175  15.260  0.00  0.00    +0.000 C 
ATOM     12  C   UNL     1       9.488  -7.088  13.602  0.00  0.00    +0.000 C 
ATOM     13  C   UNL     1       9.559  -8.033  15.699  0.00  0.00    +0.000 C 
ATOM     14  C   UNL     1      10.175  -9.399  16.033  0.00  0.00    +0.000 C 
ATOM     15  C   UNL     1       9.530 -10.612  15.649  0.00  0.00    +0.000 C 
ATOM     16  C   UNL     1      11.426  -9.640  16.871  0.00  0.00    +0.000 C 
ATOM     17  C   UNL     1       5.009 -10.357  11.906  0.00  0.00    +0.000 C 
ATOM     18  C   UNL     1       8.873 -11.673  15.293  0.00  0.00    +0.000 C 
ATOM     19  C   UNL     1       3.752 -10.994  12.364  0.00  0.00    +0.000 C 
ATOM     20  C   UNL     1       7.978 -12.351  16.201  0.00  0.00    +0.000 C 
ATOM     21  C   UNL     1       3.727 -11.862  13.525  0.00  0.00    +0.000 C 
ATOM     22  C   UNL     1       6.625 -12.815  15.898  0.00  0.00    +0.000 C 
ATOM     23  C   UNL     1       4.844 -12.612  14.079  0.00  0.00    +0.000 C 
ATOM     24  C   UNL     1       5.741 -11.932  15.067  0.00  0.00    +0.000 C 
ATOM     25  C   UNL     1       8.934 -12.044  13.839  0.00  0.00    +0.000 C 
ATOM     26  C   UNL     1       5.977 -13.880  16.781  0.00  0.00    +0.000 C 
ATOM     27  C   UNL     1       5.205 -13.955  13.454  0.00  0.00    +0.000 C 
ENDROOT
BRANCH   7  28
ATOM     28  O   UNL     1       7.641  -5.761  12.949  0.00  0.00    +0.000 OA
ATOM     29  H   UNL     1       8.181  -5.299  12.282  0.00  0.00    +0.000 HD
ENDBRANCH   7  28
BRANCH  10  30
ATOM     30  O   UNL     1       6.034  -8.178  14.007  0.00  0.00    +0.000 OA
ATOM     31  H   UNL     1       5.900  -8.934  13.398  0.00  0.00    +0.000 HD
ENDBRANCH  10  30
BRANCH  13  32
ATOM     32  O   UNL     1       9.581  -7.169  16.832  0.00  0.00    +0.000 OA
ATOM     33  H   UNL     1       8.887  -6.509  16.674  0.00  0.00    +0.000 HD
ENDBRANCH  13  32
BRANCH  19  34
ATOM     34  O   UNL     1       2.526 -10.683  11.805  0.00  0.00    +0.000 OA
ATOM     35  H   UNL     1       1.856 -10.418  12.469  0.00  0.00    +0.000 HD
ENDBRANCH  19  34
BRANCH  21  36
ATOM     36  O   UNL     1       2.463 -12.284  13.904  0.00  0.00    +0.000 OA
ATOM     37  C   UNL     1       2.216 -11.979  15.255  0.00  0.00    +0.000 C 
ENDBRANCH  21  36
BRANCH  20  38
ATOM     38  O   UNL     1       8.587 -12.844  17.380  0.00  0.00    +0.000 OA
BRANCH  38  40
ATOM     39  O   UNL     1       9.391 -14.834  16.473  0.00  0.00    +0.000 OA
ATOM     40  C   UNL     1       9.517 -13.789  17.083  0.00  0.00    +0.000 C 
ATOM     41  C   UNL     1      10.867 -13.542  17.646  0.00  0.00    +0.000 C 
ENDBRANCH  38  40
ENDBRANCH  20  38
BRANCH   6  42
ATOM     42  C   UNL     1       7.063  -6.682   9.693  0.00  0.00    +0.000 C 
BRANCH  42  44
ATOM     43  O   UNL     1       5.736  -4.797  10.730  0.00  0.00    +0.000 OA
ATOM     44  C   UNL     1       6.171  -5.503   9.543  0.00  0.00    +0.000 C 
ATOM     45  C   UNL     1       6.778  -4.265  10.021  0.00  0.00    +0.000 C 
ATOM     46  C   UNL     1       4.975  -5.586   8.536  0.00  0.00    +0.000 C 
BRANCH  45  47
ATOM     47  C   UNL     1       6.575  -2.979   9.426  0.00  0.00    +0.000 C 
ATOM     48  C   UNL     1       5.390  -2.137   9.824  0.00  0.00    +0.000 C 
BRANCH  47  49
ATOM     49  C   UNL     1       7.659  -2.289   8.826  0.00  0.00    +0.000 C 
ATOM     50  C   UNL     1       8.610  -1.764   8.321  0.00  0.00    +0.000 C 
ATOM     51  C   UNL     1       9.889  -1.196   7.699  0.00  0.00    +0.000 C 
ENDBRANCH  47  49
ENDBRANCH  45  47
ENDBRANCH  42  44
BRANCH  42  52
ATOM     52  O   UNL     1       8.118  -6.936   8.826  0.00  0.00    +0.000 OA
ATOM     53  H   UNL     1       8.974  -7.004   9.297  0.00  0.00    +0.000 HD
ENDBRANCH  42  52
ENDBRANCH   6  42
TORSDOF 12
ENDMDL
MODEL 4
REMARK VINA RESULT:      -5.7     25.811     29.712
REMARK  Name = 101808842_CandidaspongiolideB.pdbqt.pdb
REMARK  12 active torsions:
REMARK  status: ('A' for Active; 'I' for Inactive)
REMARK    1  A    between atoms: C_6  and  C_42
REMARK    2  A    between atoms: C_7  and  O_28
REMARK    3  A    between atoms: C_10  and  O_30
REMARK    4  A    between atoms: C_13  and  O_32
REMARK    5  A    between atoms: C_19  and  O_34
REMARK    6  A    between atoms: C_20  and  O_38
REMARK    7  A    between atoms: C_21  and  O_36
REMARK    8  A    between atoms: O_38  and  C_40
REMARK    9  A    between atoms: C_42  and  C_44
REMARK   10  A    between atoms: C_42  and  O_52
REMARK   11  A    between atoms: C_45  and  C_47
REMARK   12  A    between atoms: C_47  and  C_49
REMARK                            x       y       z     vdW  Elec       q    Type
REMARK                         _______ _______ _______ _____ _____    ______ ____
ROOT
ATOM      1  O   UNL     1     -15.891   5.080  14.576  0.00  0.00    +0.000 OA
ATOM      2  O   UNL     1     -14.333   3.835  21.152  0.00  0.00    +0.000 OA
ATOM      3  O   UNL     1     -14.707   6.529  17.893  0.00  0.00    +0.000 OA
ATOM      4  O   UNL     1     -16.395   4.527  20.383  0.00  0.00    +0.000 OA
ATOM      5  O   UNL     1     -18.056   2.429  19.116  0.00  0.00    +0.000 OA
ATOM      6  C   UNL     1     -13.210   5.083  18.965  0.00  0.00    +0.000 C 
ATOM      7  C   UNL     1     -14.312   4.395  16.729  0.00  0.00    +0.000 C 
ATOM      8  C   UNL     1     -14.140   5.436  17.857  0.00  0.00    +0.000 C 
ATOM      9  C   UNL     1     -13.751   4.462  20.127  0.00  0.00    +0.000 C 
ATOM     10  C   UNL     1     -15.431   3.395  17.078  0.00  0.00    +0.000 C 
ATOM     11  C   UNL     1     -16.505   3.331  16.140  0.00  0.00    +0.000 C 
ATOM     12  C   UNL     1     -14.907   5.002  15.495  0.00  0.00    +0.000 C 
ATOM     13  C   UNL     1     -16.902   4.033  14.880  0.00  0.00    +0.000 C 
ATOM     14  C   UNL     1     -18.283   4.689  15.023  0.00  0.00    +0.000 C 
ATOM     15  C   UNL     1     -18.899   4.840  16.301  0.00  0.00    +0.000 C 
ATOM     16  C   UNL     1     -19.188   5.138  13.880  0.00  0.00    +0.000 C 
ATOM     17  C   UNL     1     -15.694   3.855  21.125  0.00  0.00    +0.000 C 
ATOM     18  C   UNL     1     -19.409   4.918  17.491  0.00  0.00    +0.000 C 
ATOM     19  C   UNL     1     -16.245   2.863  22.078  0.00  0.00    +0.000 C 
ATOM     20  C   UNL     1     -20.322   3.917  17.993  0.00  0.00    +0.000 C 
ATOM     21  C   UNL     1     -17.610   2.388  21.965  0.00  0.00    +0.000 C 
ATOM     22  C   UNL     1     -20.271   3.280  19.307  0.00  0.00    +0.000 C 
ATOM     23  C   UNL     1     -18.724   3.075  21.328  0.00  0.00    +0.000 C 
ATOM     24  C   UNL     1     -18.930   2.892  19.857  0.00  0.00    +0.000 C 
ATOM     25  C   UNL     1     -18.853   5.984  18.391  0.00  0.00    +0.000 C 
ATOM     26  C   UNL     1     -21.517   2.592  19.861  0.00  0.00    +0.000 C 
ATOM     27  C   UNL     1     -19.476   4.139  22.121  0.00  0.00    +0.000 C 
ENDROOT
BRANCH   7  28
ATOM     28  O   UNL     1     -13.151   3.674  16.367  0.00  0.00    +0.000 OA
ATOM     29  H   UNL     1     -12.409   4.092  16.840  0.00  0.00    +0.000 HD
ENDBRANCH   7  28
BRANCH  10  30
ATOM     30  O   UNL     1     -15.398   2.606  18.199  0.00  0.00    +0.000 OA
ATOM     31  H   UNL     1     -15.337   3.148  19.013  0.00  0.00    +0.000 HD
ENDBRANCH  10  30
BRANCH  13  32
ATOM     32  O   UNL     1     -16.895   3.075  13.826  0.00  0.00    +0.000 OA
ATOM     33  H   UNL     1     -17.047   3.580  13.010  0.00  0.00    +0.000 HD
ENDBRANCH  13  32
BRANCH  19  34
ATOM     34  O   UNL     1     -15.455   2.237  23.024  0.00  0.00    +0.000 OA
ATOM     35  H   UNL     1     -14.500   2.419  22.909  0.00  0.00    +0.000 HD
ENDBRANCH  19  34
BRANCH  21  36
ATOM     36  O   UNL     1     -17.945   1.374  22.848  0.00  0.00    +0.000 OA
ATOM     37  C   UNL     1     -18.338   0.215  22.156  0.00  0.00    +0.000 C 
ENDBRANCH  21  36
BRANCH  20  38
ATOM     38  O   UNL     1     -21.513   3.771  17.242  0.00  0.00    +0.000 OA
BRANCH  38  40
ATOM     39  O   UNL     1     -22.691   5.525  18.225  0.00  0.00    +0.000 OA
ATOM     40  C   UNL     1     -22.245   4.915  17.270  0.00  0.00    +0.000 C 
ATOM     41  C   UNL     1     -22.612   5.460  15.941  0.00  0.00    +0.000 C 
ENDBRANCH  38  40
ENDBRANCH  20  38
BRANCH   6  42
ATOM     42  C   UNL     1     -11.852   5.578  18.911  0.00  0.00    +0.000 C 
BRANCH  42  44
ATOM     43  O   UNL     1     -10.195   7.365  18.238  0.00  0.00    +0.000 OA
ATOM     44  C   UNL     1     -11.543   7.004  18.627  0.00  0.00    +0.000 C 
ATOM     45  C   UNL     1     -11.128   7.232  17.247  0.00  0.00    +0.000 C 
ATOM     46  C   UNL     1     -12.105   8.102  19.590  0.00  0.00    +0.000 C 
BRANCH  45  47
ATOM     47  C   UNL     1     -11.447   8.403  16.487  0.00  0.00    +0.000 C 
ATOM     48  C   UNL     1     -10.346   9.257  15.911  0.00  0.00    +0.000 C 
BRANCH  47  49
ATOM     49  C   UNL     1     -12.724   8.541  15.887  0.00  0.00    +0.000 C 
ATOM     50  C   UNL     1     -13.826   8.684  15.437  0.00  0.00    +0.000 C 
ATOM     51  C   UNL     1     -15.270   8.898  14.977  0.00  0.00    +0.000 C 
ENDBRANCH  47  49
ENDBRANCH  45  47
ENDBRANCH  42  44
BRANCH  42  52
ATOM     52  O   UNL     1     -10.866   4.637  19.174  0.00  0.00    +0.000 OA
ATOM     53  H   UNL     1     -10.321   4.880  19.949  0.00  0.00    +0.000 HD
ENDBRANCH  42  52
ENDBRANCH   6  42
TORSDOF 12
ENDMDL
MODEL 5
REMARK VINA RESULT:      -5.7     20.755     24.459
REMARK  Name = 101808842_CandidaspongiolideB.pdbqt.pdb
REMARK  12 active torsions:
REMARK  status: ('A' for Active; 'I' for Inactive)
REMARK    1  A    between atoms: C_6  and  C_42
REMARK    2  A    between atoms: C_7  and  O_28
REMARK    3  A    between atoms: C_10  and  O_30
REMARK    4  A    between atoms: C_13  and  O_32
REMARK    5  A    between atoms: C_19  and  O_34
REMARK    6  A    between atoms: C_20  and  O_38
REMARK    7  A    between atoms: C_21  and  O_36
REMARK    8  A    between atoms: O_38  and  C_40
REMARK    9  A    between atoms: C_42  and  C_44
REMARK   10  A    between atoms: C_42  and  O_52
REMARK   11  A    between atoms: C_45  and  C_47
REMARK   12  A    between atoms: C_47  and  C_49
REMARK                            x       y       z     vdW  Elec       q    Type
REMARK                         _______ _______ _______ _____ _____    ______ ____
ROOT
ATOM      1  O   UNL     1      -9.069  -9.495  27.207  0.00  0.00    +0.000 OA
ATOM      2  O   UNL     1     -15.485  -7.171  28.009  0.00  0.00    +0.000 OA
ATOM      3  O   UNL     1     -12.447 -10.000  28.892  0.00  0.00    +0.000 OA
ATOM      4  O   UNL     1     -13.702  -6.646  29.376  0.00  0.00    +0.000 OA
ATOM      5  O   UNL     1     -11.814  -4.637  28.297  0.00  0.00    +0.000 OA
ATOM      6  C   UNL     1     -14.207  -9.541  27.419  0.00  0.00    +0.000 C 
ATOM      7  C   UNL     1     -11.756  -9.210  26.664  0.00  0.00    +0.000 C 
ATOM      8  C   UNL     1     -12.760  -9.615  27.765  0.00  0.00    +0.000 C 
ATOM      9  C   UNL     1     -14.915  -8.345  27.732  0.00  0.00    +0.000 C 
ATOM     10  C   UNL     1     -11.481  -7.694  26.710  0.00  0.00    +0.000 C 
ATOM     11  C   UNL     1     -10.115  -7.328  26.902  0.00  0.00    +0.000 C 
ATOM     12  C   UNL     1     -10.376  -9.714  26.955  0.00  0.00    +0.000 C 
ATOM     13  C   UNL     1      -8.816  -8.032  27.141  0.00  0.00    +0.000 C 
ATOM     14  C   UNL     1      -8.168  -7.569  28.453  0.00  0.00    +0.000 C 
ATOM     15  C   UNL     1      -8.906  -6.814  29.414  0.00  0.00    +0.000 C 
ATOM     16  C   UNL     1      -6.702  -7.737  28.841  0.00  0.00    +0.000 C 
ATOM     17  C   UNL     1     -14.728  -6.346  28.784  0.00  0.00    +0.000 C 
ATOM     18  C   UNL     1      -9.629  -6.109  30.227  0.00  0.00    +0.000 C 
ATOM     19  C   UNL     1     -15.267  -4.966  28.752  0.00  0.00    +0.000 C 
ATOM     20  C   UNL     1      -9.593  -4.665  30.216  0.00  0.00    +0.000 C 
ATOM     21  C   UNL     1     -14.452  -3.830  29.136  0.00  0.00    +0.000 C 
ATOM     22  C   UNL     1     -10.749  -3.771  30.242  0.00  0.00    +0.000 C 
ATOM     23  C   UNL     1     -13.291  -3.844  30.013  0.00  0.00    +0.000 C 
ATOM     24  C   UNL     1     -11.949  -4.136  29.418  0.00  0.00    +0.000 C 
ATOM     25  C   UNL     1     -10.648  -6.856  31.039  0.00  0.00    +0.000 C 
ATOM     26  C   UNL     1     -10.567  -2.314  30.666  0.00  0.00    +0.000 C 
ATOM     27  C   UNL     1     -13.515  -3.814  31.521  0.00  0.00    +0.000 C 
ENDROOT
BRANCH   7  28
ATOM     28  O   UNL     1     -12.102  -9.572  25.343  0.00  0.00    +0.000 OA
ATOM     29  H   UNL     1     -11.280  -9.872  24.915  0.00  0.00    +0.000 HD
ENDBRANCH   7  28
BRANCH  10  30
ATOM     30  O   UNL     1     -12.469  -6.756  26.560  0.00  0.00    +0.000 OA
ATOM     31  H   UNL     1     -12.093  -5.869  26.381  0.00  0.00    +0.000 HD
ENDBRANCH  10  30
BRANCH  13  32
ATOM     32  O   UNL     1      -7.967  -7.768  26.028  0.00  0.00    +0.000 OA
ATOM     33  H   UNL     1      -7.642  -8.634  25.733  0.00  0.00    +0.000 HD
ENDBRANCH  13  32
BRANCH  19  34
ATOM     34  O   UNL     1     -16.511  -4.677  28.223  0.00  0.00    +0.000 OA
ATOM     35  H   UNL     1     -16.903  -5.426  27.728  0.00  0.00    +0.000 HD
ENDBRANCH  19  34
BRANCH  21  36
ATOM     36  O   UNL     1     -15.050  -2.596  28.938  0.00  0.00    +0.000 OA
ATOM     37  C   UNL     1     -14.307  -1.817  28.033  0.00  0.00    +0.000 C 
ENDBRANCH  21  36
BRANCH  20  38
ATOM     38  O   UNL     1      -8.325  -4.100  30.489  0.00  0.00    +0.000 OA
BRANCH  38  40
ATOM     39  O   UNL     1      -7.910  -3.858  28.208  0.00  0.00    +0.000 OA
ATOM     40  C   UNL     1      -7.804  -3.524  29.374  0.00  0.00    +0.000 C 
ATOM     41  C   UNL     1      -6.920  -2.359  29.622  0.00  0.00    +0.000 C 
ENDBRANCH  38  40
ENDBRANCH  20  38
BRANCH   6  42
ATOM     42  C   UNL     1     -14.877 -10.748  26.988  0.00  0.00    +0.000 C 
BRANCH  42  44
ATOM     43  O   UNL     1     -14.983 -13.273  26.926  0.00  0.00    +0.000 OA
ATOM     44  C   UNL     1     -14.630 -12.062  27.637  0.00  0.00    +0.000 C 
ATOM     45  C   UNL     1     -13.671 -12.886  26.907  0.00  0.00    +0.000 C 
ATOM     46  C   UNL     1     -14.997 -12.236  29.148  0.00  0.00    +0.000 C 
BRANCH  45  47
ATOM     47  C   UNL     1     -12.722 -13.763  27.523  0.00  0.00    +0.000 C 
ATOM     48  C   UNL     1     -12.708 -15.230  27.177  0.00  0.00    +0.000 C 
BRANCH  47  49
ATOM     49  C   UNL     1     -11.530 -13.244  28.089  0.00  0.00    +0.000 C 
ATOM     50  C   UNL     1     -10.500 -12.868  28.573  0.00  0.00    +0.000 C 
ATOM     51  C   UNL     1      -9.157 -12.507  29.215  0.00  0.00    +0.000 C 
ENDBRANCH  47  49
ENDBRANCH  45  47
ENDBRANCH  42  44
BRANCH  42  52
ATOM     52  O   UNL     1     -15.785 -10.586  25.950  0.00  0.00    +0.000 OA
ATOM     53  H   UNL     1     -16.107 -11.443  25.605  0.00  0.00    +0.000 HD
ENDBRANCH  42  52
ENDBRANCH   6  42
TORSDOF 12
ENDMDL
MODEL 6
REMARK VINA RESULT:      -5.7     24.860     29.257
REMARK  Name = 101808842_CandidaspongiolideB.pdbqt.pdb
REMARK  12 active torsions:
REMARK  status: ('A' for Active; 'I' for Inactive)
REMARK    1  A    between atoms: C_6  and  C_42
REMARK    2  A    between atoms: C_7  and  O_28
REMARK    3  A    between atoms: C_10  and  O_30
REMARK    4  A    between atoms: C_13  and  O_32
REMARK    5  A    between atoms: C_19  and  O_34
REMARK    6  A    between atoms: C_20  and  O_38
REMARK    7  A    between atoms: C_21  and  O_36
REMARK    8  A    between atoms: O_38  and  C_40
REMARK    9  A    between atoms: C_42  and  C_44
REMARK   10  A    between atoms: C_42  and  O_52
REMARK   11  A    between atoms: C_45  and  C_47
REMARK   12  A    between atoms: C_47  and  C_49
REMARK                            x       y       z     vdW  Elec       q    Type
REMARK                         _______ _______ _______ _____ _____    ______ ____
ROOT
ATOM      1  O   UNL     1     -16.051   4.958  14.220  0.00  0.00    +0.000 OA
ATOM      2  O   UNL     1     -13.516   4.281  20.570  0.00  0.00    +0.000 OA
ATOM      3  O   UNL     1     -14.391   6.683  17.182  0.00  0.00    +0.000 OA
ATOM      4  O   UNL     1     -15.674   4.918  20.062  0.00  0.00    +0.000 OA
ATOM      5  O   UNL     1     -17.493   2.729  19.247  0.00  0.00    +0.000 OA
ATOM      6  C   UNL     1     -12.742   5.326  18.140  0.00  0.00    +0.000 C 
ATOM      7  C   UNL     1     -14.162   4.453  16.163  0.00  0.00    +0.000 C 
ATOM      8  C   UNL     1     -13.830   5.587  17.156  0.00  0.00    +0.000 C 
ATOM      9  C   UNL     1     -13.098   4.813  19.419  0.00  0.00    +0.000 C 
ATOM     10  C   UNL     1     -15.211   3.495  16.762  0.00  0.00    +0.000 C 
ATOM     11  C   UNL     1     -16.412   3.356  16.005  0.00  0.00    +0.000 C 
ATOM     12  C   UNL     1     -14.939   4.953  14.984  0.00  0.00    +0.000 C 
ATOM     13  C   UNL     1     -16.998   3.949  14.762  0.00  0.00    +0.000 C 
ATOM     14  C   UNL     1     -18.346   4.624  15.053  0.00  0.00    +0.000 C 
ATOM     15  C   UNL     1     -18.764   4.891  16.391  0.00  0.00    +0.000 C 
ATOM     16  C   UNL     1     -19.415   4.978  14.023  0.00  0.00    +0.000 C 
ATOM     17  C   UNL     1     -14.866   4.308  20.747  0.00  0.00    +0.000 C 
ATOM     18  C   UNL     1     -19.090   5.076  17.632  0.00  0.00    +0.000 C 
ATOM     19  C   UNL     1     -15.262   3.408  21.854  0.00  0.00    +0.000 C 
ATOM     20  C   UNL     1     -19.912   4.130  18.351  0.00  0.00    +0.000 C 
ATOM     21  C   UNL     1     -16.626   2.934  21.990  0.00  0.00    +0.000 C 
ATOM     22  C   UNL     1     -19.660   3.609  19.693  0.00  0.00    +0.000 C 
ATOM     23  C   UNL     1     -17.826   3.571  21.469  0.00  0.00    +0.000 C 
ATOM     24  C   UNL     1     -18.249   3.261  20.067  0.00  0.00    +0.000 C 
ATOM     25  C   UNL     1     -18.412   6.213  18.342  0.00  0.00    +0.000 C 
ATOM     26  C   UNL     1     -20.805   2.981  20.485  0.00  0.00    +0.000 C 
ATOM     27  C   UNL     1     -18.457   4.705  22.270  0.00  0.00    +0.000 C 
ENDROOT
BRANCH   7  28
ATOM     28  O   UNL     1     -13.065   3.695  15.695  0.00  0.00    +0.000 OA
ATOM     29  H   UNL     1     -13.423   2.829  15.426  0.00  0.00    +0.000 HD
ENDBRANCH   7  28
BRANCH  10  30
ATOM     30  O   UNL     1     -15.005   2.807  17.929  0.00  0.00    +0.000 OA
ATOM     31  H   UNL     1     -14.049   2.651  18.086  0.00  0.00    +0.000 HD
ENDBRANCH  10  30
BRANCH  13  32
ATOM     32  O   UNL     1     -17.143   2.903  13.806  0.00  0.00    +0.000 OA
ATOM     33  H   UNL     1     -17.152   3.338  12.938  0.00  0.00    +0.000 HD
ENDBRANCH  13  32
BRANCH  19  34
ATOM     34  O   UNL     1     -14.335   2.861  22.722  0.00  0.00    +0.000 OA
ATOM     35  H   UNL     1     -13.472   3.324  22.706  0.00  0.00    +0.000 HD
ENDBRANCH  19  34
BRANCH  21  36
ATOM     36  O   UNL     1     -16.817   2.004  22.998  0.00  0.00    +0.000 OA
ATOM     37  C   UNL     1     -17.580   0.916  22.538  0.00  0.00    +0.000 C 
ENDBRANCH  21  36
BRANCH  20  38
ATOM     38  O   UNL     1     -21.201   3.926  17.803  0.00  0.00    +0.000 OA
BRANCH  38  40
ATOM     39  O   UNL     1     -22.230   5.767  18.795  0.00  0.00    +0.000 OA
ATOM     40  C   UNL     1     -21.928   5.073  17.841  0.00  0.00    +0.000 C 
ATOM     41  C   UNL     1     -22.493   5.504  16.539  0.00  0.00    +0.000 C 
ENDBRANCH  38  40
ENDBRANCH  20  38
BRANCH   6  42
ATOM     42  C   UNL     1     -11.411   5.804  17.839  0.00  0.00    +0.000 C 
BRANCH  42  44
ATOM     43  O   UNL     1     -11.822   7.979  19.062  0.00  0.00    +0.000 OA
ATOM     44  C   UNL     1     -10.927   7.132  18.300  0.00  0.00    +0.000 C 
ATOM     45  C   UNL     1     -10.892   7.252  19.754  0.00  0.00    +0.000 C 
ATOM     46  C   UNL     1     -10.111   8.023  17.305  0.00  0.00    +0.000 C 
BRANCH  45  47
ATOM     47  C   UNL     1      -9.901   7.984  20.484  0.00  0.00    +0.000 C 
ATOM     48  C   UNL     1     -10.000   9.483  20.603  0.00  0.00    +0.000 C 
BRANCH  47  49
ATOM     49  C   UNL     1      -9.101   7.331  21.455  0.00  0.00    +0.000 C 
ATOM     50  C   UNL     1      -8.471   6.730  22.279  0.00  0.00    +0.000 C 
ATOM     51  C   UNL     1      -7.764   5.888  23.345  0.00  0.00    +0.000 C 
ENDBRANCH  47  49
ENDBRANCH  45  47
ENDBRANCH  42  44
BRANCH  42  52
ATOM     52  O   UNL     1     -10.611   4.925  17.121  0.00  0.00    +0.000 OA
ATOM     53  H   UNL     1     -10.281   4.190  17.676  0.00  0.00    +0.000 HD
ENDBRANCH  42  52
ENDBRANCH   6  42
TORSDOF 12
ENDMDL
MODEL 7
REMARK VINA RESULT:      -5.5     20.802     24.450
REMARK  Name = 101808842_CandidaspongiolideB.pdbqt.pdb
REMARK  12 active torsions:
REMARK  status: ('A' for Active; 'I' for Inactive)
REMARK    1  A    between atoms: C_6  and  C_42
REMARK    2  A    between atoms: C_7  and  O_28
REMARK    3  A    between atoms: C_10  and  O_30
REMARK    4  A    between atoms: C_13  and  O_32
REMARK    5  A    between atoms: C_19  and  O_34
REMARK    6  A    between atoms: C_20  and  O_38
REMARK    7  A    between atoms: C_21  and  O_36
REMARK    8  A    between atoms: O_38  and  C_40
REMARK    9  A    between atoms: C_42  and  C_44
REMARK   10  A    between atoms: C_42  and  O_52
REMARK   11  A    between atoms: C_45  and  C_47
REMARK   12  A    between atoms: C_47  and  C_49
REMARK                            x       y       z     vdW  Elec       q    Type
REMARK                         _______ _______ _______ _____ _____    ______ ____
ROOT
ATOM      1  O   UNL     1      -6.947  -7.583  28.249  0.00  0.00    +0.000 OA
ATOM      2  O   UNL     1     -13.785  -7.059  27.831  0.00  0.00    +0.000 OA
ATOM      3  O   UNL     1     -10.316  -9.024  29.287  0.00  0.00    +0.000 OA
ATOM      4  O   UNL     1     -12.482  -6.139  29.498  0.00  0.00    +0.000 OA
ATOM      5  O   UNL     1     -11.033  -3.663  28.765  0.00  0.00    +0.000 OA
ATOM      6  C   UNL     1     -11.840  -8.985  27.510  0.00  0.00    +0.000 C 
ATOM      7  C   UNL     1      -9.470  -7.993  27.217  0.00  0.00    +0.000 C 
ATOM      8  C   UNL     1     -10.512  -8.690  28.118  0.00  0.00    +0.000 C 
ATOM      9  C   UNL     1     -12.884  -8.031  27.676  0.00  0.00    +0.000 C 
ATOM     10  C   UNL     1      -9.620  -6.460  27.298  0.00  0.00    +0.000 C 
ATOM     11  C   UNL     1      -8.457  -5.757  27.734  0.00  0.00    +0.000 C 
ATOM     12  C   UNL     1      -8.081  -8.127  27.762  0.00  0.00    +0.000 C 
ATOM     13  C   UNL     1      -7.084  -6.103  28.215  0.00  0.00    +0.000 C 
ATOM     14  C   UNL     1      -6.830  -5.538  29.620  0.00  0.00    +0.000 C 
ATOM     15  C   UNL     1      -7.902  -5.043  30.420  0.00  0.00    +0.000 C 
ATOM     16  C   UNL     1      -5.467  -5.331  30.273  0.00  0.00    +0.000 C 
ATOM     17  C   UNL     1     -13.427  -6.095  28.723  0.00  0.00    +0.000 C 
ATOM     18  C   UNL     1      -8.921  -4.585  31.079  0.00  0.00    +0.000 C 
ATOM     19  C   UNL     1     -14.298  -4.905  28.579  0.00  0.00    +0.000 C 
ATOM     20  C   UNL     1      -9.268  -3.182  31.061  0.00  0.00    +0.000 C 
ATOM     21  C   UNL     1     -13.897  -3.611  29.095  0.00  0.00    +0.000 C 
ATOM     22  C   UNL     1     -10.605  -2.625  30.864  0.00  0.00    +0.000 C 
ATOM     23  C   UNL     1     -12.952  -3.355  30.171  0.00  0.00    +0.000 C 
ATOM     24  C   UNL     1     -11.496  -3.260  29.837  0.00  0.00    +0.000 C 
ATOM     25  C   UNL     1      -9.834  -5.604  31.697  0.00  0.00    +0.000 C 
ATOM     26  C   UNL     1     -10.896  -1.190  31.300  0.00  0.00    +0.000 C 
ATOM     27  C   UNL     1     -13.444  -3.443  31.612  0.00  0.00    +0.000 C 
ENDROOT
BRANCH   7  28
ATOM     28  O   UNL     1      -9.464  -8.381  25.858  0.00  0.00    +0.000 OA
ATOM     29  H   UNL     1      -8.532  -8.544  25.623  0.00  0.00    +0.000 HD
ENDBRANCH   7  28
BRANCH  10  30
ATOM     30  O   UNL     1     -10.778  -5.810  26.959  0.00  0.00    +0.000 OA
ATOM     31  H   UNL     1     -10.861  -4.960  27.439  0.00  0.00    +0.000 HD
ENDBRANCH  10  30
BRANCH  13  32
ATOM     32  O   UNL     1      -6.149  -5.582  27.275  0.00  0.00    +0.000 OA
ATOM     33  H   UNL     1      -5.305  -6.021  27.471  0.00  0.00    +0.000 HD
ENDBRANCH  13  32
BRANCH  19  34
ATOM     34  O   UNL     1     -15.458  -4.933  27.827  0.00  0.00    +0.000 OA
ATOM     35  H   UNL     1     -15.693  -5.830  27.514  0.00  0.00    +0.000 HD
ENDBRANCH  19  34
BRANCH  21  36
ATOM     36  O   UNL     1     -14.755  -2.571  28.777  0.00  0.00    +0.000 OA
ATOM     37  C   UNL     1     -14.139  -1.662  27.899  0.00  0.00    +0.000 C 
ENDBRANCH  21  36
BRANCH  20  38
ATOM     38  O   UNL     1      -8.266  -2.315  31.557  0.00  0.00    +0.000 OA
BRANCH  38  40
ATOM     39  O   UNL     1      -7.780  -1.619  29.386  0.00  0.00    +0.000 OA
ATOM     40  C   UNL     1      -7.488  -1.849  30.545  0.00  0.00    +0.000 C 
ATOM     41  C   UNL     1      -6.057  -1.660  30.888  0.00  0.00    +0.000 C 
ENDBRANCH  38  40
ENDBRANCH  20  38
BRANCH   6  42
ATOM     42  C   UNL     1     -12.075 -10.308  26.975  0.00  0.00    +0.000 C 
BRANCH  42  44
ATOM     43  O   UNL     1     -13.752 -12.028  26.185  0.00  0.00    +0.000 OA
ATOM     44  C   UNL     1     -13.315 -10.647  26.229  0.00  0.00    +0.000 C 
ATOM     45  C   UNL     1     -14.362 -11.196  27.084  0.00  0.00    +0.000 C 
ATOM     46  C   UNL     1     -13.551  -9.997  24.825  0.00  0.00    +0.000 C 
BRANCH  45  47
ATOM     47  C   UNL     1     -15.763 -10.957  26.907  0.00  0.00    +0.000 C 
ATOM     48  C   UNL     1     -16.674 -12.075  26.469  0.00  0.00    +0.000 C 
BRANCH  47  49
ATOM     49  C   UNL     1     -16.387  -9.856  27.546  0.00  0.00    +0.000 C 
ATOM     50  C   UNL     1     -16.855  -8.893  28.084  0.00  0.00    +0.000 C 
ATOM     51  C   UNL     1     -17.338  -7.618  28.781  0.00  0.00    +0.000 C 
ENDBRANCH  47  49
ENDBRANCH  45  47
ENDBRANCH  42  44
BRANCH  42  52
ATOM     52  O   UNL     1     -11.052 -11.224  27.181  0.00  0.00    +0.000 OA
ATOM     53  H   UNL     1     -10.168 -10.812  27.101  0.00  0.00    +0.000 HD
ENDBRANCH  42  52
ENDBRANCH   6  42
TORSDOF 12
ENDMDL
MODEL 8
REMARK VINA RESULT:      -5.5     25.651     29.633
REMARK  Name = 101808842_CandidaspongiolideB.pdbqt.pdb
REMARK  12 active torsions:
REMARK  status: ('A' for Active; 'I' for Inactive)
REMARK    1  A    between atoms: C_6  and  C_42
REMARK    2  A    between atoms: C_7  and  O_28
REMARK    3  A    between atoms: C_10  and  O_30
REMARK    4  A    between atoms: C_13  and  O_32
REMARK    5  A    between atoms: C_19  and  O_34
REMARK    6  A    between atoms: C_20  and  O_38
REMARK    7  A    between atoms: C_21  and  O_36
REMARK    8  A    between atoms: O_38  and  C_40
REMARK    9  A    between atoms: C_42  and  C_44
REMARK   10  A    between atoms: C_42  and  O_52
REMARK   11  A    between atoms: C_45  and  C_47
REMARK   12  A    between atoms: C_47  and  C_49
REMARK                            x       y       z     vdW  Elec       q    Type
REMARK                         _______ _______ _______ _____ _____    ______ ____
ROOT
ATOM      1  O   UNL     1      -9.989   5.060   1.205  0.00  0.00    +0.000 OA
ATOM      2  O   UNL     1     -12.246   8.959   6.393  0.00  0.00    +0.000 OA
ATOM      3  O   UNL     1      -9.536   8.273   3.199  0.00  0.00    +0.000 OA
ATOM      4  O   UNL     1     -12.892   9.177   4.188  0.00  0.00    +0.000 OA
ATOM      5  O   UNL     1     -14.858   7.181   3.231  0.00  0.00    +0.000 OA
ATOM      6  C   UNL     1      -9.865   7.906   5.487  0.00  0.00    +0.000 C 
ATOM      7  C   UNL     1     -10.188   5.975   3.797  0.00  0.00    +0.000 C 
ATOM      8  C   UNL     1      -9.840   7.455   4.068  0.00  0.00    +0.000 C 
ATOM      9  C   UNL     1     -11.066   8.483   5.990  0.00  0.00    +0.000 C 
ATOM     10  C   UNL     1     -11.709   5.800   3.613  0.00  0.00    +0.000 C 
ATOM     11  C   UNL     1     -12.111   5.238   2.364  0.00  0.00    +0.000 C 
ATOM     12  C   UNL     1      -9.730   5.532   2.442  0.00  0.00    +0.000 C 
ATOM     13  C   UNL     1     -11.448   4.803   1.096  0.00  0.00    +0.000 C 
ATOM     14  C   UNL     1     -12.009   5.566  -0.113  0.00  0.00    +0.000 C 
ATOM     15  C   UNL     1     -12.812   6.732   0.060  0.00  0.00    +0.000 C 
ATOM     16  C   UNL     1     -11.893   5.145  -1.575  0.00  0.00    +0.000 C 
ATOM     17  C   UNL     1     -13.134   9.189   5.386  0.00  0.00    +0.000 C 
ATOM     18  C   UNL     1     -13.557   7.768   0.294  0.00  0.00    +0.000 C 
ATOM     19  C   UNL     1     -14.499   9.375   5.933  0.00  0.00    +0.000 C 
ATOM     20  C   UNL     1     -14.998   7.671   0.340  0.00  0.00    +0.000 C 
ATOM     21  C   UNL     1     -15.672   9.227   5.094  0.00  0.00    +0.000 C 
ATOM     22  C   UNL     1     -15.871   8.250   1.360  0.00  0.00    +0.000 C 
ATOM     23  C   UNL     1     -15.737   9.375   3.648  0.00  0.00    +0.000 C 
ATOM     24  C   UNL     1     -15.430   8.185   2.793  0.00  0.00    +0.000 C 
ATOM     25  C   UNL     1     -12.848   9.025   0.709  0.00  0.00    +0.000 C 
ATOM     26  C   UNL     1     -17.355   8.448   1.058  0.00  0.00    +0.000 C 
ATOM     27  C   UNL     1     -15.864  10.777   3.063  0.00  0.00    +0.000 C 
ENDROOT
BRANCH   7  28
ATOM     28  O   UNL     1      -9.733   5.044   4.757  0.00  0.00    +0.000 OA
ATOM     29  H   UNL     1      -8.916   5.416   5.136  0.00  0.00    +0.000 HD
ENDBRANCH   7  28
BRANCH  10  30
ATOM     30  O   UNL     1     -12.617   6.139   4.583  0.00  0.00    +0.000 OA
ATOM     31  H   UNL     1     -13.412   6.560   4.193  0.00  0.00    +0.000 HD
ENDBRANCH  10  30
BRANCH  13  32
ATOM     32  O   UNL     1     -11.652   3.399   0.957  0.00  0.00    +0.000 OA
ATOM     33  H   UNL     1     -10.878   2.979   1.366  0.00  0.00    +0.000 HD
ENDBRANCH  13  32
BRANCH  19  34
ATOM     34  O   UNL     1     -14.730   9.555   7.284  0.00  0.00    +0.000 OA
ATOM     35  H   UNL     1     -14.472   8.780   7.825  0.00  0.00    +0.000 HD
ENDBRANCH  19  34
BRANCH  21  36
ATOM     36  O   UNL     1     -16.879   9.309   5.770  0.00  0.00    +0.000 OA
ATOM     37  C   UNL     1     -17.658   8.159   5.547  0.00  0.00    +0.000 C 
ENDBRANCH  21  36
BRANCH  20  38
ATOM     38  O   UNL     1     -15.602   7.219  -0.857  0.00  0.00    +0.000 OA
BRANCH  38  40
ATOM     39  O   UNL     1     -16.076   5.166   0.138  0.00  0.00    +0.000 OA
ATOM     40  C   UNL     1     -15.815   5.879  -0.814  0.00  0.00    +0.000 C 
ATOM     41  C   UNL     1     -15.634   5.171  -2.105  0.00  0.00    +0.000 C 
ENDBRANCH  38  40
ENDBRANCH  20  38
BRANCH   6  42
ATOM     42  C   UNL     1      -8.620   7.942   6.222  0.00  0.00    +0.000 C 
BRANCH  42  44
ATOM     43  O   UNL     1      -6.294   8.858   6.605  0.00  0.00    +0.000 OA
ATOM     44  C   UNL     1      -7.601   9.001   5.996  0.00  0.00    +0.000 C 
ATOM     45  C   UNL     1      -6.422   8.514   5.287  0.00  0.00    +0.000 C 
ATOM     46  C   UNL     1      -8.041  10.500   6.085  0.00  0.00    +0.000 C 
BRANCH  45  47
ATOM     47  C   UNL     1      -5.675   9.280   4.336  0.00  0.00    +0.000 C 
ATOM     48  C   UNL     1      -4.481  10.086   4.781  0.00  0.00    +0.000 C 
BRANCH  47  49
ATOM     49  C   UNL     1      -5.734   8.961   2.955  0.00  0.00    +0.000 C 
ATOM     50  C   UNL     1      -5.731   8.732   1.779  0.00  0.00    +0.000 C 
ATOM     51  C   UNL     1      -5.641   8.529   0.264  0.00  0.00    +0.000 C 
ENDBRANCH  47  49
ENDBRANCH  45  47
ENDBRANCH  42  44
BRANCH  42  52
ATOM     52  O   UNL     1      -8.460   6.941   7.170  0.00  0.00    +0.000 OA
ATOM     53  H   UNL     1      -8.630   6.051   6.799  0.00  0.00    +0.000 HD
ENDBRANCH  42  52
ENDBRANCH   6  42
TORSDOF 12
ENDMDL
MODEL 9
REMARK VINA RESULT:      -5.5     17.521     24.221
REMARK  Name = 101808842_CandidaspongiolideB.pdbqt.pdb
REMARK  12 active torsions:
REMARK  status: ('A' for Active; 'I' for Inactive)
REMARK    1  A    between atoms: C_6  and  C_42
REMARK    2  A    between atoms: C_7  and  O_28
REMARK    3  A    between atoms: C_10  and  O_30
REMARK    4  A    between atoms: C_13  and  O_32
REMARK    5  A    between atoms: C_19  and  O_34
REMARK    6  A    between atoms: C_20  and  O_38
REMARK    7  A    between atoms: C_21  and  O_36
REMARK    8  A    between atoms: O_38  and  C_40
REMARK    9  A    between atoms: C_42  and  C_44
REMARK   10  A    between atoms: C_42  and  O_52
REMARK   11  A    between atoms: C_45  and  C_47
REMARK   12  A    between atoms: C_47  and  C_49
REMARK                            x       y       z     vdW  Elec       q    Type
REMARK                         _______ _______ _______ _____ _____    ______ ____
ROOT
ATOM      1  O   UNL     1      -8.826  -2.219  28.564  0.00  0.00    +0.000 OA
ATOM      2  O   UNL     1      -8.318  -9.051  28.037  0.00  0.00    +0.000 OA
ATOM      3  O   UNL     1      -7.730  -5.464  30.229  0.00  0.00    +0.000 OA
ATOM      4  O   UNL     1     -10.081  -7.921  29.005  0.00  0.00    +0.000 OA
ATOM      5  O   UNL     1     -12.008  -6.702  27.116  0.00  0.00    +0.000 OA
ATOM      6  C   UNL     1      -6.714  -6.907  28.691  0.00  0.00    +0.000 C 
ATOM      7  C   UNL     1      -7.683  -4.641  27.909  0.00  0.00    +0.000 C 
ATOM      8  C   UNL     1      -7.416  -5.643  29.052  0.00  0.00    +0.000 C 
ATOM      9  C   UNL     1      -7.504  -8.049  28.373  0.00  0.00    +0.000 C 
ATOM     10  C   UNL     1      -9.026  -4.950  27.218  0.00  0.00    +0.000 C 
ATOM     11  C   UNL     1      -9.976  -3.885  27.229  0.00  0.00    +0.000 C 
ATOM     12  C   UNL     1      -7.991  -3.270  28.429  0.00  0.00    +0.000 C 
ATOM     13  C   UNL     1     -10.068  -2.505  27.800  0.00  0.00    +0.000 C 
ATOM     14  C   UNL     1     -11.280  -2.370  28.733  0.00  0.00    +0.000 C 
ATOM     15  C   UNL     1     -11.986  -3.520  29.195  0.00  0.00    +0.000 C 
ATOM     16  C   UNL     1     -11.932  -1.064  29.177  0.00  0.00    +0.000 C 
ATOM     17  C   UNL     1      -9.631  -8.831  28.325  0.00  0.00    +0.000 C 
ATOM     18  C   UNL     1     -12.596  -4.608  29.552  0.00  0.00    +0.000 C 
ATOM     19  C   UNL     1     -10.488  -9.812  27.619  0.00  0.00    +0.000 C 
ATOM     20  C   UNL     1     -13.756  -5.096  28.842  0.00  0.00    +0.000 C 
ATOM     21  C   UNL     1     -11.903  -9.569  27.416  0.00  0.00    +0.000 C 
ATOM     22  C   UNL     1     -13.991  -6.473  28.413  0.00  0.00    +0.000 C 
ATOM     23  C   UNL     1     -12.761  -8.701  28.209  0.00  0.00    +0.000 C 
ATOM     24  C   UNL     1     -12.837  -7.249  27.851  0.00  0.00    +0.000 C 
ATOM     25  C   UNL     1     -11.924  -5.438  30.608  0.00  0.00    +0.000 C 
ATOM     26  C   UNL     1     -15.411  -6.927  28.080  0.00  0.00    +0.000 C 
ATOM     27  C   UNL     1     -13.346  -9.242  29.509  0.00  0.00    +0.000 C 
ENDROOT
BRANCH   7  28
ATOM     28  O   UNL     1      -6.675  -4.537  26.924  0.00  0.00    +0.000 OA
ATOM     29  H   UNL     1      -6.468  -3.588  26.841  0.00  0.00    +0.000 HD
ENDBRANCH   7  28
BRANCH  10  30
ATOM     30  O   UNL     1      -9.291  -6.153  26.616  0.00  0.00    +0.000 OA
ATOM     31  H   UNL     1      -8.702  -6.858  26.958  0.00  0.00    +0.000 HD
ENDBRANCH  10  30
BRANCH  13  32
ATOM     32  O   UNL     1     -10.152  -1.589  26.712  0.00  0.00    +0.000 OA
ATOM     33  H   UNL     1     -10.794  -0.913  26.986  0.00  0.00    +0.000 HD
ENDBRANCH  13  32
BRANCH  19  34
ATOM     34  O   UNL     1      -9.964 -10.930  26.997  0.00  0.00    +0.000 OA
ATOM     35  H   UNL     1      -9.761 -11.659  27.620  0.00  0.00    +0.000 HD
ENDBRANCH  19  34
BRANCH  21  36
ATOM     36  O   UNL     1     -12.546 -10.514  26.635  0.00  0.00    +0.000 OA
ATOM     37  C   UNL     1     -13.177  -9.910  25.533  0.00  0.00    +0.000 C 
ENDBRANCH  21  36
BRANCH  20  38
ATOM     38  O   UNL     1     -14.859  -4.209  28.826  0.00  0.00    +0.000 OA
BRANCH  38  40
ATOM     39  O   UNL     1     -15.731  -4.794  30.907  0.00  0.00    +0.000 OA
ATOM     40  C   UNL     1     -15.323  -3.994  30.084  0.00  0.00    +0.000 C 
ATOM     41  C   UNL     1     -15.410  -2.569  30.488  0.00  0.00    +0.000 C 
ENDBRANCH  38  40
ENDBRANCH  20  38
BRANCH   6  42
ATOM     42  C   UNL     1      -5.284  -6.984  28.889  0.00  0.00    +0.000 C 
BRANCH  42  44
ATOM     43  O   UNL     1      -5.359  -8.633  30.804  0.00  0.00    +0.000 OA
ATOM     44  C   UNL     1      -4.688  -7.538  30.133  0.00  0.00    +0.000 C 
ATOM     45  C   UNL     1      -4.295  -8.937  30.000  0.00  0.00    +0.000 C 
ATOM     46  C   UNL     1      -4.134  -6.547  31.210  0.00  0.00    +0.000 C 
BRANCH  45  47
ATOM     47  C   UNL     1      -3.147  -9.520  30.628  0.00  0.00    +0.000 C 
ATOM     48  C   UNL     1      -3.314 -10.442  31.809  0.00  0.00    +0.000 C 
BRANCH  47  49
ATOM     49  C   UNL     1      -1.921  -9.623  29.923  0.00  0.00    +0.000 C 
ATOM     50  C   UNL     1      -0.920  -9.703  29.269  0.00  0.00    +0.000 C 
ATOM     51  C   UNL     1       0.287  -9.811  28.334  0.00  0.00    +0.000 C 
ENDBRANCH  47  49
ENDBRANCH  45  47
ENDBRANCH  42  44
BRANCH  42  52
ATOM     52  O   UNL     1      -4.511  -6.533  27.827  0.00  0.00    +0.000 OA
ATOM     53  H   UNL     1      -4.544  -7.143  27.062  0.00  0.00    +0.000 HD
ENDBRANCH  42  52
ENDBRANCH   6  42
TORSDOF 12
ENDMDL
