MODEL 1
REMARK VINA RESULT:      -4.9      0.000      0.000
REMARK  Name = 102471178_CandidaspongiolideCore.pdbqt.pdb
REMARK  13 active torsions:
REMARK  status: ('A' for Active; 'I' for Inactive)
REMARK    1  A    between atoms: C_6  and  C_39
REMARK    2  A    between atoms: C_8  and  O_27
REMARK    3  A    between atoms: C_8  and  C_51
REMARK    4  A    between atoms: C_10  and  O_29
REMARK    5  A    between atoms: C_15  and  O_31
REMARK    6  A    between atoms: C_16  and  O_33
REMARK    7  A    between atoms: C_21  and  O_35
REMARK    8  A    between atoms: O_35  and  C_37
REMARK    9  A    between atoms: C_39  and  C_41
REMARK   10  A    between atoms: C_39  and  O_49
REMARK   11  A    between atoms: C_42  and  C_44
REMARK   12  A    between atoms: C_44  and  C_46
REMARK   13  A    between atoms: C_51  and  O_52
REMARK                            x       y       z     vdW  Elec       q    Type
REMARK                         _______ _______ _______ _____ _____    ______ ____
ROOT
ATOM      1  O   UNL     1      -6.279   7.899   5.890  0.00  0.00    +0.000 OA
ATOM      2  O   UNL     1      -8.119   9.119   5.258  0.00  0.00    +0.000 OA
ATOM      3  O   UNL     1     -10.790  13.200   4.447  0.00  0.00    +0.000 OA
ATOM      4  O   UNL     1      -6.094   6.463   4.158  0.00  0.00    +0.000 OA
ATOM      5  O   UNL     1      -9.523   6.624   3.383  0.00  0.00    +0.000 OA
ATOM      6  C   UNL     1      -6.358  10.123   6.539  0.00  0.00    +0.000 C 
ATOM      7  C   UNL     1      -7.099  11.163   7.167  0.00  0.00    +0.000 C 
ATOM      8  C   UNL     1      -7.753  12.222   7.940  0.00  0.00    +0.000 C 
ATOM      9  C   UNL     1      -7.033   9.015   5.813  0.00  0.00    +0.000 C 
ATOM     10  C   UNL     1      -8.290  13.326   7.056  0.00  0.00    +0.000 C 
ATOM     11  C   UNL     1      -8.956  13.114   5.819  0.00  0.00    +0.000 C 
ATOM     12  C   UNL     1      -9.636  12.806   4.579  0.00  0.00    +0.000 C 
ATOM     13  C   UNL     1      -6.702   6.862   5.144  0.00  0.00    +0.000 C 
ATOM     14  C   UNL     1      -8.957  11.995   3.524  0.00  0.00    +0.000 C 
ATOM     15  C   UNL     1      -7.765   6.018   5.746  0.00  0.00    +0.000 C 
ATOM     16  C   UNL     1      -8.975   6.531   6.354  0.00  0.00    +0.000 C 
ATOM     17  C   UNL     1     -10.223   6.811   5.656  0.00  0.00    +0.000 C 
ATOM     18  C   UNL     1      -9.727  11.150   2.687  0.00  0.00    +0.000 C 
ATOM     19  C   UNL     1     -10.863   8.525   3.860  0.00  0.00    +0.000 C 
ATOM     20  C   UNL     1      -7.447  11.806   3.488  0.00  0.00    +0.000 C 
ATOM     21  C   UNL     1     -10.754   8.981   2.478  0.00  0.00    +0.000 C 
ATOM     22  C   UNL     1     -10.169   7.249   4.227  0.00  0.00    +0.000 C 
ATOM     23  C   UNL     1     -10.478  10.333   2.015  0.00  0.00    +0.000 C 
ATOM     24  C   UNL     1     -11.568   6.380   6.232  0.00  0.00    +0.000 C 
ATOM     25  C   UNL     1     -11.404   9.481   4.914  0.00  0.00    +0.000 C 
ATOM     26  C   UNL     1     -11.006  10.852   0.702  0.00  0.00    +0.000 C 
ENDROOT
BRANCH   8  27
ATOM     27  O   UNL     1      -6.738  12.767   8.786  0.00  0.00    +0.000 OA
ATOM     28  H   UNL     1      -6.914  13.730   8.784  0.00  0.00    +0.000 HD
ENDBRANCH   8  27
BRANCH  10  29
ATOM     29  O   UNL     1      -8.159  14.624   7.523  0.00  0.00    +0.000 OA
ATOM     30  H   UNL     1      -7.291  14.781   7.940  0.00  0.00    +0.000 HD
ENDBRANCH  10  29
BRANCH  15  31
ATOM     31  O   UNL     1      -7.876   4.709   5.304  0.00  0.00    +0.000 OA
ATOM     32  H   UNL     1      -7.297   4.119   5.834  0.00  0.00    +0.000 HD
ENDBRANCH  15  31
BRANCH  16  33
ATOM     33  O   UNL     1      -9.110   6.270   7.706  0.00  0.00    +0.000 OA
ATOM     34  C   UNL     1      -7.855   6.386   8.329  0.00  0.00    +0.000 C 
ENDBRANCH  16  33
BRANCH  21  35
ATOM     35  O   UNL     1     -11.129   8.014   1.511  0.00  0.00    +0.000 OA
BRANCH  35  37
ATOM     36  O   UNL     1     -13.435   8.406   1.526  0.00  0.00    +0.000 OA
ATOM     37  C   UNL     1     -12.451   7.690   1.568  0.00  0.00    +0.000 C 
ATOM     38  C   UNL     1     -12.726   6.233   1.660  0.00  0.00    +0.000 C 
ENDBRANCH  35  37
ENDBRANCH  21  35
BRANCH   6  39
ATOM     39  C   UNL     1      -4.917  10.228   6.556  0.00  0.00    +0.000 C 
BRANCH  39  41
ATOM     40  O   UNL     1      -2.815  10.878   5.266  0.00  0.00    +0.000 OA
ATOM     41  C   UNL     1      -4.217  11.085   5.558  0.00  0.00    +0.000 C 
ATOM     42  C   UNL     1      -3.727  10.316   4.418  0.00  0.00    +0.000 C 
ATOM     43  C   UNL     1      -4.539  12.621   5.511  0.00  0.00    +0.000 C 
BRANCH  42  44
ATOM     44  C   UNL     1      -3.739  10.779   3.063  0.00  0.00    +0.000 C 
ATOM     45  C   UNL     1      -2.654  11.707   2.568  0.00  0.00    +0.000 C 
BRANCH  44  46
ATOM     46  C   UNL     1      -4.441  10.061   2.063  0.00  0.00    +0.000 C 
ATOM     47  C   UNL     1      -4.993   9.427   1.207  0.00  0.00    +0.000 C 
ATOM     48  C   UNL     1      -5.643   8.573   0.111  0.00  0.00    +0.000 C 
ENDBRANCH  44  46
ENDBRANCH  42  44
ENDBRANCH  39  41
BRANCH  39  49
ATOM     49  O   UNL     1      -4.242   9.452   7.483  0.00  0.00    +0.000 OA
ATOM     50  H   UNL     1      -4.808   8.826   7.974  0.00  0.00    +0.000 HD
ENDBRANCH  39  49
ENDBRANCH   6  39
BRANCH   8  51
ATOM     51  C   UNL     1      -8.821  11.694   8.806  0.00  0.00    +0.000 C 
BRANCH  51  52
ATOM     52  O   UNL     1      -9.757  11.197   9.615  0.00  0.00    +0.000 OA
ATOM     53  H   UNL     1     -10.456  10.742   9.103  0.00  0.00    +0.000 HD
ENDBRANCH  51  52
ENDBRANCH   8  51
TORSDOF 13
ENDMDL
MODEL 2
REMARK VINA RESULT:      -4.9     23.859     27.992
REMARK  Name = 102471178_CandidaspongiolideCore.pdbqt.pdb
REMARK  13 active torsions:
REMARK  status: ('A' for Active; 'I' for Inactive)
REMARK    1  A    between atoms: C_6  and  C_39
REMARK    2  A    between atoms: C_8  and  O_27
REMARK    3  A    between atoms: C_8  and  C_51
REMARK    4  A    between atoms: C_10  and  O_29
REMARK    5  A    between atoms: C_15  and  O_31
REMARK    6  A    between atoms: C_16  and  O_33
REMARK    7  A    between atoms: C_21  and  O_35
REMARK    8  A    between atoms: O_35  and  C_37
REMARK    9  A    between atoms: C_39  and  C_41
REMARK   10  A    between atoms: C_39  and  O_49
REMARK   11  A    between atoms: C_42  and  C_44
REMARK   12  A    between atoms: C_44  and  C_46
REMARK   13  A    between atoms: C_51  and  O_52
REMARK                            x       y       z     vdW  Elec       q    Type
REMARK                         _______ _______ _______ _____ _____    ______ ____
ROOT
ATOM      1  O   UNL     1       7.717 -11.401  15.992  0.00  0.00    +0.000 OA
ATOM      2  O   UNL     1       7.604 -10.548  13.862  0.00  0.00    +0.000 OA
ATOM      3  O   UNL     1       5.413  -8.746   9.814  0.00  0.00    +0.000 OA
ATOM      4  O   UNL     1       9.375 -10.149  16.875  0.00  0.00    +0.000 OA
ATOM      5  O   UNL     1      10.876  -9.552  13.748  0.00  0.00    +0.000 OA
ATOM      6  C   UNL     1       5.643 -11.386  14.957  0.00  0.00    +0.000 C 
ATOM      7  C   UNL     1       4.872 -11.728  13.812  0.00  0.00    +0.000 C 
ATOM      8  C   UNL     1       4.007 -12.198  12.726  0.00  0.00    +0.000 C 
ATOM      9  C   UNL     1       7.087 -11.048  14.853  0.00  0.00    +0.000 C 
ATOM     10  C   UNL     1       3.526 -11.064  11.847  0.00  0.00    +0.000 C 
ATOM     11  C   UNL     1       4.338  -9.981  11.417  0.00  0.00    +0.000 C 
ATOM     12  C   UNL     1       5.238  -8.921  11.014  0.00  0.00    +0.000 C 
ATOM     13  C   UNL     1       9.002 -11.011  16.088  0.00  0.00    +0.000 C 
ATOM     14  C   UNL     1       5.959  -8.108  12.041  0.00  0.00    +0.000 C 
ATOM     15  C   UNL     1      10.000 -11.888  15.426  0.00  0.00    +0.000 C 
ATOM     16  C   UNL     1       9.885 -12.389  14.072  0.00  0.00    +0.000 C 
ATOM     17  C   UNL     1      10.357 -11.710  12.873  0.00  0.00    +0.000 C 
ATOM     18  C   UNL     1       7.246  -7.594  11.749  0.00  0.00    +0.000 C 
ATOM     19  C   UNL     1       9.652  -9.535  11.714  0.00  0.00    +0.000 C 
ATOM     20  C   UNL     1       5.507  -8.044  13.493  0.00  0.00    +0.000 C 
ATOM     21  C   UNL     1       9.606  -8.077  11.724  0.00  0.00    +0.000 C 
ATOM     22  C   UNL     1      10.364 -10.215  12.844  0.00  0.00    +0.000 C 
ATOM     23  C   UNL     1       8.455  -7.229  11.450  0.00  0.00    +0.000 C 
ATOM     24  C   UNL     1      11.124 -12.460  11.788  0.00  0.00    +0.000 C 
ATOM     25  C   UNL     1       8.750 -10.297  10.754  0.00  0.00    +0.000 C 
ATOM     26  C   UNL     1       8.598  -5.853  10.851  0.00  0.00    +0.000 C 
ENDROOT
BRANCH   8  27
ATOM     27  O   UNL     1       2.874 -12.793  13.364  0.00  0.00    +0.000 OA
ATOM     28  H   UNL     1       2.707 -13.608  12.848  0.00  0.00    +0.000 HD
ENDBRANCH   8  27
BRANCH  10  29
ATOM     29  O   UNL     1       2.216 -11.130  11.398  0.00  0.00    +0.000 OA
ATOM     30  H   UNL     1       2.027 -10.461  10.714  0.00  0.00    +0.000 HD
ENDBRANCH  10  29
BRANCH  15  31
ATOM     31  O   UNL     1      11.303 -11.849  15.896  0.00  0.00    +0.000 OA
ATOM     32  H   UNL     1      11.313 -11.729  16.870  0.00  0.00    +0.000 HD
ENDBRANCH  15  31
BRANCH  16  33
ATOM     33  O   UNL     1       9.781 -13.764  13.960  0.00  0.00    +0.000 OA
ATOM     34  C   UNL     1       8.444 -14.109  13.695  0.00  0.00    +0.000 C 
ENDBRANCH  16  33
BRANCH  21  35
ATOM     35  O   UNL     1      10.873  -7.452  11.850  0.00  0.00    +0.000 OA
BRANCH  35  37
ATOM     36  O   UNL     1      11.464  -7.377   9.588  0.00  0.00    +0.000 OA
ATOM     37  C   UNL     1      11.668  -7.637  10.760  0.00  0.00    +0.000 C 
ATOM     38  C   UNL     1      13.003  -8.215  11.061  0.00  0.00    +0.000 C 
ENDBRANCH  35  37
ENDBRANCH  21  35
BRANCH   6  39
ATOM     39  C   UNL     1       4.950 -11.291  16.222  0.00  0.00    +0.000 C 
BRANCH  39  41
ATOM     40  O   UNL     1       3.923 -13.620  16.070  0.00  0.00    +0.000 OA
ATOM     41  C   UNL     1       3.870 -12.260  16.560  0.00  0.00    +0.000 C 
ATOM     42  C   UNL     1       4.367 -13.389  17.342  0.00  0.00    +0.000 C 
ATOM     43  C   UNL     1       2.379 -11.768  16.575  0.00  0.00    +0.000 C 
BRANCH  42  44
ATOM     44  C   UNL     1       3.649 -14.011  18.413  0.00  0.00    +0.000 C 
ATOM     45  C   UNL     1       3.509 -13.306  19.743  0.00  0.00    +0.000 C 
BRANCH  44  46
ATOM     46  C   UNL     1       2.695 -15.025  18.148  0.00  0.00    +0.000 C 
ATOM     47  C   UNL     1       1.922 -15.917  17.933  0.00  0.00    +0.000 C 
ATOM     48  C   UNL     1       0.981 -17.103  17.685  0.00  0.00    +0.000 C 
ENDBRANCH  44  46
ENDBRANCH  42  44
ENDBRANCH  39  41
BRANCH  39  49
ATOM     49  O   UNL     1       5.293 -10.233  17.047  0.00  0.00    +0.000 OA
ATOM     50  H   UNL     1       5.916  -9.595  16.649  0.00  0.00    +0.000 HD
ENDBRANCH  39  49
ENDBRANCH   6  39
BRANCH   8  51
ATOM     51  C   UNL     1       4.659 -13.237  11.912  0.00  0.00    +0.000 C 
BRANCH  51  52
ATOM     52  O   UNL     1       5.245 -14.152  11.139  0.00  0.00    +0.000 OA
ATOM     53  H   UNL     1       4.596 -14.568  10.536  0.00  0.00    +0.000 HD
ENDBRANCH  51  52
ENDBRANCH   8  51
TORSDOF 13
ENDMDL
MODEL 3
REMARK VINA RESULT:      -4.8     26.153     30.759
REMARK  Name = 102471178_CandidaspongiolideCore.pdbqt.pdb
REMARK  13 active torsions:
REMARK  status: ('A' for Active; 'I' for Inactive)
REMARK    1  A    between atoms: C_6  and  C_39
REMARK    2  A    between atoms: C_8  and  O_27
REMARK    3  A    between atoms: C_8  and  C_51
REMARK    4  A    between atoms: C_10  and  O_29
REMARK    5  A    between atoms: C_15  and  O_31
REMARK    6  A    between atoms: C_16  and  O_33
REMARK    7  A    between atoms: C_21  and  O_35
REMARK    8  A    between atoms: O_35  and  C_37
REMARK    9  A    between atoms: C_39  and  C_41
REMARK   10  A    between atoms: C_39  and  O_49
REMARK   11  A    between atoms: C_42  and  C_44
REMARK   12  A    between atoms: C_44  and  C_46
REMARK   13  A    between atoms: C_51  and  O_52
REMARK                            x       y       z     vdW  Elec       q    Type
REMARK                         _______ _______ _______ _____ _____    ______ ____
ROOT
ATOM      1  O   UNL     1      -9.869  -5.940  31.782  0.00  0.00    +0.000 OA
ATOM      2  O   UNL     1     -10.678  -6.920  29.869  0.00  0.00    +0.000 OA
ATOM      3  O   UNL     1     -10.422  -9.095  25.437  0.00  0.00    +0.000 OA
ATOM      4  O   UNL     1     -11.061  -7.025  33.363  0.00  0.00    +0.000 OA
ATOM      5  O   UNL     1     -13.740  -7.697  31.182  0.00  0.00    +0.000 OA
ATOM      6  C   UNL     1      -8.409  -6.154  29.995  0.00  0.00    +0.000 C 
ATOM      7  C   UNL     1      -8.166  -5.931  28.611  0.00  0.00    +0.000 C 
ATOM      8  C   UNL     1      -7.810  -5.584  27.233  0.00  0.00    +0.000 C 
ATOM      9  C   UNL     1      -9.779  -6.399  30.518  0.00  0.00    +0.000 C 
ATOM     10  C   UNL     1      -7.778  -6.796  26.328  0.00  0.00    +0.000 C 
ATOM     11  C   UNL     1      -8.735  -7.846  26.356  0.00  0.00    +0.000 C 
ATOM     12  C   UNL     1      -9.761  -8.863  26.443  0.00  0.00    +0.000 C 
ATOM     13  C   UNL     1     -11.013  -6.237  32.426  0.00  0.00    +0.000 C 
ATOM     14  C   UNL     1     -10.024  -9.565  27.736  0.00  0.00    +0.000 C 
ATOM     15  C   UNL     1     -12.161  -5.334  32.163  0.00  0.00    +0.000 C 
ATOM     16  C   UNL     1     -12.596  -4.920  30.845  0.00  0.00    +0.000 C 
ATOM     17  C   UNL     1     -13.547  -5.633  30.002  0.00  0.00    +0.000 C 
ATOM     18  C   UNL     1     -11.335 -10.007  28.037  0.00  0.00    +0.000 C 
ATOM     19  C   UNL     1     -13.466  -7.914  28.835  0.00  0.00    +0.000 C 
ATOM     20  C   UNL     1      -9.016  -9.576  28.876  0.00  0.00    +0.000 C 
ATOM     21  C   UNL     1     -13.476  -9.369  28.941  0.00  0.00    +0.000 C 
ATOM     22  C   UNL     1     -13.621  -7.123  30.098  0.00  0.00    +0.000 C 
ATOM     23  C   UNL     1     -12.572 -10.307  28.290  0.00  0.00    +0.000 C 
ATOM     24  C   UNL     1     -14.664  -4.897  29.269  0.00  0.00    +0.000 C 
ATOM     25  C   UNL     1     -13.012  -7.271  27.532  0.00  0.00    +0.000 C 
ATOM     26  C   UNL     1     -13.002 -11.702  27.914  0.00  0.00    +0.000 C 
ENDROOT
BRANCH   8  27
ATOM     27  O   UNL     1      -6.493  -5.031  27.302  0.00  0.00    +0.000 OA
ATOM     28  H   UNL     1      -6.145  -5.343  28.161  0.00  0.00    +0.000 HD
ENDBRANCH   8  27
BRANCH  10  29
ATOM     29  O   UNL     1      -6.768  -6.845  25.379  0.00  0.00    +0.000 OA
ATOM     30  H   UNL     1      -6.538  -5.960  25.040  0.00  0.00    +0.000 HD
ENDBRANCH  10  29
BRANCH  15  31
ATOM     31  O   UNL     1     -13.155  -5.257  33.126  0.00  0.00    +0.000 OA
ATOM     32  H   UNL     1     -13.983  -4.902  32.737  0.00  0.00    +0.000 HD
ENDBRANCH  15  31
BRANCH  16  33
ATOM     33  O   UNL     1     -12.496  -3.564  30.590  0.00  0.00    +0.000 OA
ATOM     34  C   UNL     1     -11.392  -3.328  29.751  0.00  0.00    +0.000 C 
ENDBRANCH  16  33
BRANCH  21  35
ATOM     35  O   UNL     1     -14.600  -9.899  29.624  0.00  0.00    +0.000 OA
BRANCH  35  37
ATOM     36  O   UNL     1     -16.077  -9.965  27.811  0.00  0.00    +0.000 OA
ATOM     37  C   UNL     1     -15.770  -9.695  28.958  0.00  0.00    +0.000 C 
ATOM     38  C   UNL     1     -16.847  -9.079  29.777  0.00  0.00    +0.000 C 
ENDBRANCH  35  37
ENDBRANCH  21  35
BRANCH   6  39
ATOM     39  C   UNL     1      -7.260  -6.223  30.869  0.00  0.00    +0.000 C 
BRANCH  39  41
ATOM     40  O   UNL     1      -6.118  -7.677  32.626  0.00  0.00    +0.000 OA
ATOM     41  C   UNL     1      -6.746  -7.543  31.330  0.00  0.00    +0.000 C 
ATOM     42  C   UNL     1      -7.437  -8.018  32.525  0.00  0.00    +0.000 C 
ATOM     43  C   UNL     1      -6.022  -8.482  30.300  0.00  0.00    +0.000 C 
BRANCH  42  44
ATOM     44  C   UNL     1      -7.784  -9.385  32.770  0.00  0.00    +0.000 C 
ATOM     45  C   UNL     1      -7.026 -10.188  33.801  0.00  0.00    +0.000 C 
BRANCH  44  46
ATOM     46  C   UNL     1      -9.073  -9.873  32.434  0.00  0.00    +0.000 C 
ATOM     47  C   UNL     1     -10.176 -10.277  32.195  0.00  0.00    +0.000 C 
ATOM     48  C   UNL     1     -11.610 -10.767  31.954  0.00  0.00    +0.000 C 
ENDBRANCH  44  46
ENDBRANCH  42  44
ENDBRANCH  39  41
BRANCH  39  49
ATOM     49  O   UNL     1      -6.725  -5.019  31.297  0.00  0.00    +0.000 OA
ATOM     50  H   UNL     1      -5.813  -4.850  30.990  0.00  0.00    +0.000 HD
ENDBRANCH  39  49
ENDBRANCH   6  39
BRANCH   8  51
ATOM     51  C   UNL     1      -8.700  -4.552  26.676  0.00  0.00    +0.000 C 
BRANCH  51  52
ATOM     52  O   UNL     1      -9.479  -3.613  26.138  0.00  0.00    +0.000 OA
ATOM     53  H   UNL     1      -9.512  -3.702  25.164  0.00  0.00    +0.000 HD
ENDBRANCH  51  52
ENDBRANCH   8  51
TORSDOF 13
ENDMDL
MODEL 4
REMARK VINA RESULT:      -4.7     18.245     22.232
REMARK  Name = 102471178_CandidaspongiolideCore.pdbqt.pdb
REMARK  13 active torsions:
REMARK  status: ('A' for Active; 'I' for Inactive)
REMARK    1  A    between atoms: C_6  and  C_39
REMARK    2  A    between atoms: C_8  and  O_27
REMARK    3  A    between atoms: C_8  and  C_51
REMARK    4  A    between atoms: C_10  and  O_29
REMARK    5  A    between atoms: C_15  and  O_31
REMARK    6  A    between atoms: C_16  and  O_33
REMARK    7  A    between atoms: C_21  and  O_35
REMARK    8  A    between atoms: O_35  and  C_37
REMARK    9  A    between atoms: C_39  and  C_41
REMARK   10  A    between atoms: C_39  and  O_49
REMARK   11  A    between atoms: C_42  and  C_44
REMARK   12  A    between atoms: C_44  and  C_46
REMARK   13  A    between atoms: C_51  and  O_52
REMARK                            x       y       z     vdW  Elec       q    Type
REMARK                         _______ _______ _______ _____ _____    ______ ____
ROOT
ATOM      1  O   UNL     1     -14.108 -11.857   3.862  0.00  0.00    +0.000 OA
ATOM      2  O   UNL     1     -14.025 -10.536   1.984  0.00  0.00    +0.000 OA
ATOM      3  O   UNL     1     -12.453  -9.095  -2.476  0.00  0.00    +0.000 OA
ATOM      4  O   UNL     1     -16.336 -12.141   4.095  0.00  0.00    +0.000 OA
ATOM      5  O   UNL     1     -17.105  -9.123   2.457  0.00  0.00    +0.000 OA
ATOM      6  C   UNL     1     -12.277 -12.108   2.462  0.00  0.00    +0.000 C 
ATOM      7  C   UNL     1     -11.210 -11.481   1.760  0.00  0.00    +0.000 C 
ATOM      8  C   UNL     1     -10.010 -10.904   1.149  0.00  0.00    +0.000 C 
ATOM      9  C   UNL     1     -13.564 -11.406   2.713  0.00  0.00    +0.000 C 
ATOM     10  C   UNL     1     -10.105 -10.852  -0.360  0.00  0.00    +0.000 C 
ATOM     11  C   UNL     1     -11.271 -10.477  -1.079  0.00  0.00    +0.000 C 
ATOM     12  C   UNL     1     -12.498 -10.068  -1.731  0.00  0.00    +0.000 C 
ATOM     13  C   UNL     1     -15.351 -11.413   4.127  0.00  0.00    +0.000 C 
ATOM     14  C   UNL     1     -13.777 -10.791  -1.458  0.00  0.00    +0.000 C 
ATOM     15  C   UNL     1     -15.441 -10.079   4.771  0.00  0.00    +0.000 C 
ATOM     16  C   UNL     1     -14.734  -8.898   4.318  0.00  0.00    +0.000 C 
ATOM     17  C   UNL     1     -15.218  -7.950   3.324  0.00  0.00    +0.000 C 
ATOM     18  C   UNL     1     -15.003 -10.083  -1.502  0.00  0.00    +0.000 C 
ATOM     19  C   UNL     1     -15.694  -8.154   0.813  0.00  0.00    +0.000 C 
ATOM     20  C   UNL     1     -13.811 -12.186  -0.850  0.00  0.00    +0.000 C 
ATOM     21  C   UNL     1     -16.526  -8.691  -0.257  0.00  0.00    +0.000 C 
ATOM     22  C   UNL     1     -16.103  -8.443   2.225  0.00  0.00    +0.000 C 
ATOM     23  C   UNL     1     -16.080  -9.359  -1.472  0.00  0.00    +0.000 C 
ATOM     24  C   UNL     1     -15.105  -6.444   3.544  0.00  0.00    +0.000 C 
ATOM     25  C   UNL     1     -14.320  -7.594   0.471  0.00  0.00    +0.000 C 
ATOM     26  C   UNL     1     -16.865  -9.292  -2.756  0.00  0.00    +0.000 C 
ENDROOT
BRANCH   8  27
ATOM     27  O   UNL     1      -8.936 -11.777   1.508  0.00  0.00    +0.000 OA
ATOM     28  H   UNL     1      -8.134 -11.319   1.184  0.00  0.00    +0.000 HD
ENDBRANCH   8  27
BRANCH  10  29
ATOM     29  O   UNL     1      -8.953 -11.145  -1.073  0.00  0.00    +0.000 OA
ATOM     30  H   UNL     1      -8.921 -12.077  -1.357  0.00  0.00    +0.000 HD
ENDBRANCH  10  29
BRANCH  15  31
ATOM     31  O   UNL     1     -16.577  -9.797   5.513  0.00  0.00    +0.000 OA
ATOM     32  H   UNL     1     -16.928 -10.615   5.927  0.00  0.00    +0.000 HD
ENDBRANCH  15  31
BRANCH  16  33
ATOM     33  O   UNL     1     -13.812  -8.385   5.213  0.00  0.00    +0.000 OA
ATOM     34  C   UNL     1     -12.514  -8.720   4.785  0.00  0.00    +0.000 C 
ENDBRANCH  16  33
BRANCH  21  35
ATOM     35  O   UNL     1     -17.902  -8.362  -0.151  0.00  0.00    +0.000 OA
BRANCH  35  37
ATOM     36  O   UNL     1     -17.873  -6.288  -1.234  0.00  0.00    +0.000 OA
ATOM     37  C   UNL     1     -18.142  -7.030  -0.306  0.00  0.00    +0.000 C 
ATOM     38  C   UNL     1     -18.880  -6.401   0.819  0.00  0.00    +0.000 C 
ENDBRANCH  35  37
ENDBRANCH  21  35
BRANCH   6  39
ATOM     39  C   UNL     1     -12.100 -13.489   2.848  0.00  0.00    +0.000 C 
BRANCH  39  41
ATOM     40  O   UNL     1     -13.142 -15.810   2.679  0.00  0.00    +0.000 OA
ATOM     41  C   UNL     1     -12.726 -14.577   2.047  0.00  0.00    +0.000 C 
ATOM     42  C   UNL     1     -14.096 -14.855   2.470  0.00  0.00    +0.000 C 
ATOM     43  C   UNL     1     -12.168 -14.889   0.612  0.00  0.00    +0.000 C 
BRANCH  42  44
ATOM     44  C   UNL     1     -15.169 -15.179   1.579  0.00  0.00    +0.000 C 
ATOM     45  C   UNL     1     -15.660 -16.604   1.469  0.00  0.00    +0.000 C 
BRANCH  44  46
ATOM     46  C   UNL     1     -16.078 -14.179   1.151  0.00  0.00    +0.000 C 
ATOM     47  C   UNL     1     -16.833 -13.305   0.827  0.00  0.00    +0.000 C 
ATOM     48  C   UNL     1     -17.770 -12.146   0.464  0.00  0.00    +0.000 C 
ENDBRANCH  44  46
ENDBRANCH  42  44
ENDBRANCH  39  41
BRANCH  39  49
ATOM     49  O   UNL     1     -11.391 -13.728   4.013  0.00  0.00    +0.000 OA
ATOM     50  H   UNL     1     -10.667 -14.377   3.920  0.00  0.00    +0.000 HD
ENDBRANCH  39  49
ENDBRANCH   6  39
BRANCH   8  51
ATOM     51  C   UNL     1      -9.702  -9.570   1.689  0.00  0.00    +0.000 C 
BRANCH  51  52
ATOM     52  O   UNL     1      -9.425  -8.345   2.138  0.00  0.00    +0.000 OA
ATOM     53  H   UNL     1      -8.490  -8.278   2.418  0.00  0.00    +0.000 HD
ENDBRANCH  51  52
ENDBRANCH   8  51
TORSDOF 13
ENDMDL
MODEL 5
REMARK VINA RESULT:      -4.7      1.869      2.637
REMARK  Name = 102471178_CandidaspongiolideCore.pdbqt.pdb
REMARK  13 active torsions:
REMARK  status: ('A' for Active; 'I' for Inactive)
REMARK    1  A    between atoms: C_6  and  C_39
REMARK    2  A    between atoms: C_8  and  O_27
REMARK    3  A    between atoms: C_8  and  C_51
REMARK    4  A    between atoms: C_10  and  O_29
REMARK    5  A    between atoms: C_15  and  O_31
REMARK    6  A    between atoms: C_16  and  O_33
REMARK    7  A    between atoms: C_21  and  O_35
REMARK    8  A    between atoms: O_35  and  C_37
REMARK    9  A    between atoms: C_39  and  C_41
REMARK   10  A    between atoms: C_39  and  O_49
REMARK   11  A    between atoms: C_42  and  C_44
REMARK   12  A    between atoms: C_44  and  C_46
REMARK   13  A    between atoms: C_51  and  O_52
REMARK                            x       y       z     vdW  Elec       q    Type
REMARK                         _______ _______ _______ _____ _____    ______ ____
ROOT
ATOM      1  O   UNL     1      -5.735   8.798   3.405  0.00  0.00    +0.000 OA
ATOM      2  O   UNL     1      -7.896   9.342   3.960  0.00  0.00    +0.000 OA
ATOM      3  O   UNL     1     -11.525  12.089   5.890  0.00  0.00    +0.000 OA
ATOM      4  O   UNL     1      -5.980   8.190   1.245  0.00  0.00    +0.000 OA
ATOM      5  O   UNL     1      -9.344   7.248   1.673  0.00  0.00    +0.000 OA
ATOM      6  C   UNL     1      -6.043  10.478   4.973  0.00  0.00    +0.000 C 
ATOM      7  C   UNL     1      -6.663  10.885   6.187  0.00  0.00    +0.000 C 
ATOM      8  C   UNL     1      -7.150  11.296   7.507  0.00  0.00    +0.000 C 
ATOM      9  C   UNL     1      -6.686   9.494   4.062  0.00  0.00    +0.000 C 
ATOM     10  C   UNL     1      -8.254  12.327   7.413  0.00  0.00    +0.000 C 
ATOM     11  C   UNL     1      -9.316  12.284   6.470  0.00  0.00    +0.000 C 
ATOM     12  C   UNL     1     -10.369  12.155   5.485  0.00  0.00    +0.000 C 
ATOM     13  C   UNL     1      -6.182   7.980   2.435  0.00  0.00    +0.000 C 
ATOM     14  C   UNL     1     -10.039  12.059   4.031  0.00  0.00    +0.000 C 
ATOM     15  C   UNL     1      -6.657   6.645   2.878  0.00  0.00    +0.000 C 
ATOM     16  C   UNL     1      -7.573   6.421   3.978  0.00  0.00    +0.000 C 
ATOM     17  C   UNL     1      -9.026   6.405   3.881  0.00  0.00    +0.000 C 
ATOM     18  C   UNL     1     -10.873  11.301   3.173  0.00  0.00    +0.000 C 
ATOM     19  C   UNL     1     -10.752   8.215   3.321  0.00  0.00    +0.000 C 
ATOM     20  C   UNL     1      -8.691  12.493   3.472  0.00  0.00    +0.000 C 
ATOM     21  C   UNL     1     -11.355   9.097   2.327  0.00  0.00    +0.000 C 
ATOM     22  C   UNL     1      -9.692   7.264   2.855  0.00  0.00    +0.000 C 
ATOM     23  C   UNL     1     -11.627  10.522   2.461  0.00  0.00    +0.000 C 
ATOM     24  C   UNL     1      -9.854   5.324   4.570  0.00  0.00    +0.000 C 
ATOM     25  C   UNL     1     -10.996   8.490   4.798  0.00  0.00    +0.000 C 
ATOM     26  C   UNL     1     -12.770  11.188   1.740  0.00  0.00    +0.000 C 
ENDROOT
BRANCH   8  27
ATOM     27  O   UNL     1      -6.029  11.888   8.167  0.00  0.00    +0.000 OA
ATOM     28  H   UNL     1      -5.383  12.048   7.449  0.00  0.00    +0.000 HD
ENDBRANCH   8  27
BRANCH  10  29
ATOM     29  O   UNL     1      -8.241  13.347   8.351  0.00  0.00    +0.000 OA
ATOM     30  H   UNL     1      -8.441  14.215   7.954  0.00  0.00    +0.000 HD
ENDBRANCH  10  29
BRANCH  15  31
ATOM     31  O   UNL     1      -6.638   5.614   1.952  0.00  0.00    +0.000 OA
ATOM     32  H   UNL     1      -6.539   5.972   1.043  0.00  0.00    +0.000 HD
ENDBRANCH  15  31
BRANCH  16  33
ATOM     33  O   UNL     1      -7.052   5.707   5.042  0.00  0.00    +0.000 OA
ATOM     34  C   UNL     1      -6.812   6.583   6.116  0.00  0.00    +0.000 C 
ENDBRANCH  16  33
BRANCH  21  35
ATOM     35  O   UNL     1     -11.871   8.429   1.188  0.00  0.00    +0.000 OA
BRANCH  35  37
ATOM     36  O   UNL     1     -13.966   7.861   2.061  0.00  0.00    +0.000 OA
ATOM     37  C   UNL     1     -12.923   7.616   1.481  0.00  0.00    +0.000 C 
ATOM     38  C   UNL     1     -12.786   6.224   0.980  0.00  0.00    +0.000 C 
ENDBRANCH  35  37
ENDBRANCH  21  35
BRANCH   6  39
ATOM     39  C   UNL     1      -4.802  11.123   4.610  0.00  0.00    +0.000 C 
BRANCH  39  41
ATOM     40  O   UNL     1      -3.597  10.277   6.692  0.00  0.00    +0.000 OA
ATOM     41  C   UNL     1      -3.689  11.216   5.596  0.00  0.00    +0.000 C 
ATOM     42  C   UNL     1      -2.839  10.029   5.582  0.00  0.00    +0.000 C 
ATOM     43  C   UNL     1      -3.215  12.632   6.081  0.00  0.00    +0.000 C 
BRANCH  42  44
ATOM     44  C   UNL     1      -1.416  10.049   5.738  0.00  0.00    +0.000 C 
ATOM     45  C   UNL     1      -0.765   9.288   6.870  0.00  0.00    +0.000 C 
BRANCH  44  46
ATOM     46  C   UNL     1      -0.576  10.361   4.640  0.00  0.00    +0.000 C 
ATOM     47  C   UNL     1       0.168  10.644   3.743  0.00  0.00    +0.000 C 
ATOM     48  C   UNL     1       1.169  11.022   2.644  0.00  0.00    +0.000 C 
ENDBRANCH  44  46
ENDBRANCH  42  44
ENDBRANCH  39  41
BRANCH  39  49
ATOM     49  O   UNL     1      -4.738  11.694   3.350  0.00  0.00    +0.000 OA
ATOM     50  H   UNL     1      -5.309  11.268   2.683  0.00  0.00    +0.000 HD
ENDBRANCH  39  49
ENDBRANCH   6  39
BRANCH   8  51
ATOM     51  C   UNL     1      -7.590  10.146   8.315  0.00  0.00    +0.000 C 
BRANCH  51  52
ATOM     52  O   UNL     1      -7.986   9.080   9.011  0.00  0.00    +0.000 OA
ATOM     53  H   UNL     1      -8.962   9.045   9.072  0.00  0.00    +0.000 HD
ENDBRANCH  51  52
ENDBRANCH   8  51
TORSDOF 13
ENDMDL
MODEL 6
REMARK VINA RESULT:      -4.6     24.763     29.794
REMARK  Name = 102471178_CandidaspongiolideCore.pdbqt.pdb
REMARK  13 active torsions:
REMARK  status: ('A' for Active; 'I' for Inactive)
REMARK    1  A    between atoms: C_6  and  C_39
REMARK    2  A    between atoms: C_8  and  O_27
REMARK    3  A    between atoms: C_8  and  C_51
REMARK    4  A    between atoms: C_10  and  O_29
REMARK    5  A    between atoms: C_15  and  O_31
REMARK    6  A    between atoms: C_16  and  O_33
REMARK    7  A    between atoms: C_21  and  O_35
REMARK    8  A    between atoms: O_35  and  C_37
REMARK    9  A    between atoms: C_39  and  C_41
REMARK   10  A    between atoms: C_39  and  O_49
REMARK   11  A    between atoms: C_42  and  C_44
REMARK   12  A    between atoms: C_44  and  C_46
REMARK   13  A    between atoms: C_51  and  O_52
REMARK                            x       y       z     vdW  Elec       q    Type
REMARK                         _______ _______ _______ _____ _____    ______ ____
ROOT
ATOM      1  O   UNL     1     -13.471  -5.967  29.267  0.00  0.00    +0.000 OA
ATOM      2  O   UNL     1     -11.227  -5.620  28.920  0.00  0.00    +0.000 OA
ATOM      3  O   UNL     1      -6.555  -6.868  27.895  0.00  0.00    +0.000 OA
ATOM      4  O   UNL     1     -14.365  -4.316  28.013  0.00  0.00    +0.000 OA
ATOM      5  O   UNL     1     -11.518  -2.267  28.303  0.00  0.00    +0.000 OA
ATOM      6  C   UNL     1     -12.088  -7.828  29.288  0.00  0.00    +0.000 C 
ATOM      7  C   UNL     1     -10.917  -8.445  29.808  0.00  0.00    +0.000 C 
ATOM      8  C   UNL     1      -9.812  -9.181  30.429  0.00  0.00    +0.000 C 
ATOM      9  C   UNL     1     -12.186  -6.353  29.126  0.00  0.00    +0.000 C 
ATOM     10  C   UNL     1      -8.641  -9.355  29.487  0.00  0.00    +0.000 C 
ATOM     11  C   UNL     1      -8.152  -8.345  28.616  0.00  0.00    +0.000 C 
ATOM     12  C   UNL     1      -7.712  -7.255  27.771  0.00  0.00    +0.000 C 
ATOM     13  C   UNL     1     -13.721  -4.673  28.992  0.00  0.00    +0.000 C 
ATOM     14  C   UNL     1      -8.661  -6.604  26.817  0.00  0.00    +0.000 C 
ATOM     15  C   UNL     1     -13.456  -3.712  30.091  0.00  0.00    +0.000 C 
ATOM     16  C   UNL     1     -12.240  -3.676  30.878  0.00  0.00    +0.000 C 
ATOM     17  C   UNL     1     -11.034  -2.929  30.542  0.00  0.00    +0.000 C 
ATOM     18  C   UNL     1      -8.513  -5.229  26.513  0.00  0.00    +0.000 C 
ATOM     19  C   UNL     1      -9.335  -3.136  28.634  0.00  0.00    +0.000 C 
ATOM     20  C   UNL     1      -9.957  -7.269  26.377  0.00  0.00    +0.000 C 
ATOM     21  C   UNL     1      -9.030  -2.983  27.216  0.00  0.00    +0.000 C 
ATOM     22  C   UNL     1     -10.694  -2.714  29.103  0.00  0.00    +0.000 C 
ATOM     23  C   UNL     1      -8.375  -3.949  26.345  0.00  0.00    +0.000 C 
ATOM     24  C   UNL     1     -10.293  -2.109  31.594  0.00  0.00    +0.000 C 
ATOM     25  C   UNL     1      -8.404  -3.969  29.506  0.00  0.00    +0.000 C 
ATOM     26  C   UNL     1      -7.538  -3.525  25.166  0.00  0.00    +0.000 C 
ENDROOT
BRANCH   8  27
ATOM     27  O   UNL     1     -10.337 -10.471  30.747  0.00  0.00    +0.000 OA
ATOM     28  H   UNL     1     -11.122 -10.283  31.301  0.00  0.00    +0.000 HD
ENDBRANCH   8  27
BRANCH  10  29
ATOM     29  O   UNL     1      -7.980 -10.573  29.526  0.00  0.00    +0.000 OA
ATOM     30  H   UNL     1      -8.597 -11.327  29.575  0.00  0.00    +0.000 HD
ENDBRANCH  10  29
BRANCH  15  31
ATOM     31  O   UNL     1     -14.141  -2.507  30.073  0.00  0.00    +0.000 OA
ATOM     32  H   UNL     1     -14.927  -2.551  30.660  0.00  0.00    +0.000 HD
ENDBRANCH  15  31
BRANCH  16  33
ATOM     33  O   UNL     1     -12.401  -3.947  32.224  0.00  0.00    +0.000 OA
ATOM     34  C   UNL     1     -11.976  -5.262  32.488  0.00  0.00    +0.000 C 
ENDBRANCH  16  33
BRANCH  21  35
ATOM     35  O   UNL     1      -9.256  -1.679  26.706  0.00  0.00    +0.000 OA
BRANCH  35  37
ATOM     36  O   UNL     1      -7.215  -0.726  27.336  0.00  0.00    +0.000 OA
ATOM     37  C   UNL     1      -8.430  -0.745  27.251  0.00  0.00    +0.000 C 
ATOM     38  C   UNL     1      -9.124   0.453  27.792  0.00  0.00    +0.000 C 
ENDBRANCH  35  37
ENDBRANCH  21  35
BRANCH   6  39
ATOM     39  C   UNL     1     -13.153  -8.694  28.837  0.00  0.00    +0.000 C 
BRANCH  39  41
ATOM     40  O   UNL     1     -11.888 -10.515  27.577  0.00  0.00    +0.000 OA
ATOM     41  C   UNL     1     -12.964  -9.550  27.633  0.00  0.00    +0.000 C 
ATOM     42  C   UNL     1     -13.126 -10.970  27.934  0.00  0.00    +0.000 C 
ATOM     43  C   UNL     1     -13.177  -8.923  26.209  0.00  0.00    +0.000 C 
BRANCH  42  44
ATOM     44  C   UNL     1     -13.756 -11.916  27.063  0.00  0.00    +0.000 C 
ATOM     45  C   UNL     1     -13.166 -13.296  26.888  0.00  0.00    +0.000 C 
BRANCH  44  46
ATOM     46  C   UNL     1     -15.126 -11.782  26.725  0.00  0.00    +0.000 C 
ATOM     47  C   UNL     1     -16.283 -11.622  26.450  0.00  0.00    +0.000 C 
ATOM     48  C   UNL     1     -17.751 -11.345  26.102  0.00  0.00    +0.000 C 
ENDBRANCH  44  46
ENDBRANCH  42  44
ENDBRANCH  39  41
BRANCH  39  49
ATOM     49  O   UNL     1     -14.350  -8.630  29.532  0.00  0.00    +0.000 OA
ATOM     50  H   UNL     1     -14.421  -7.875  30.146  0.00  0.00    +0.000 HD
ENDBRANCH  39  49
ENDBRANCH   6  39
BRANCH   8  51
ATOM     51  C   UNL     1      -9.370  -8.555  31.686  0.00  0.00    +0.000 C 
BRANCH  51  52
ATOM     52  O   UNL     1      -8.931  -8.010  32.821  0.00  0.00    +0.000 OA
ATOM     53  H   UNL     1      -9.162  -8.569  33.590  0.00  0.00    +0.000 HD
ENDBRANCH  51  52
ENDBRANCH   8  51
TORSDOF 13
ENDMDL
MODEL 7
REMARK VINA RESULT:      -4.6     12.145     16.752
REMARK  Name = 102471178_CandidaspongiolideCore.pdbqt.pdb
REMARK  13 active torsions:
REMARK  status: ('A' for Active; 'I' for Inactive)
REMARK    1  A    between atoms: C_6  and  C_39
REMARK    2  A    between atoms: C_8  and  O_27
REMARK    3  A    between atoms: C_8  and  C_51
REMARK    4  A    between atoms: C_10  and  O_29
REMARK    5  A    between atoms: C_15  and  O_31
REMARK    6  A    between atoms: C_16  and  O_33
REMARK    7  A    between atoms: C_21  and  O_35
REMARK    8  A    between atoms: O_35  and  C_37
REMARK    9  A    between atoms: C_39  and  C_41
REMARK   10  A    between atoms: C_39  and  O_49
REMARK   11  A    between atoms: C_42  and  C_44
REMARK   12  A    between atoms: C_44  and  C_46
REMARK   13  A    between atoms: C_51  and  O_52
REMARK                            x       y       z     vdW  Elec       q    Type
REMARK                         _______ _______ _______ _____ _____    ______ ____
ROOT
ATOM      1  O   UNL     1     -16.770   6.154  14.349  0.00  0.00    +0.000 OA
ATOM      2  O   UNL     1     -16.415   6.847  16.510  0.00  0.00    +0.000 OA
ATOM      3  O   UNL     1     -17.435   9.188  20.743  0.00  0.00    +0.000 OA
ATOM      4  O   UNL     1     -16.286   3.955  14.513  0.00  0.00    +0.000 OA
ATOM      5  O   UNL     1     -14.117   4.420  17.246  0.00  0.00    +0.000 OA
ATOM      6  C   UNL     1     -18.082   7.894  15.140  0.00  0.00    +0.000 C 
ATOM      7  C   UNL     1     -18.129   9.167  15.774  0.00  0.00    +0.000 C 
ATOM      8  C   UNL     1     -18.222  10.540  16.278  0.00  0.00    +0.000 C 
ATOM      9  C   UNL     1     -17.003   6.915  15.438  0.00  0.00    +0.000 C 
ATOM     10  C   UNL     1     -18.765  10.595  17.689  0.00  0.00    +0.000 C 
ATOM     11  C   UNL     1     -18.400   9.696  18.727  0.00  0.00    +0.000 C 
ATOM     12  C   UNL     1     -17.962   8.746  19.728  0.00  0.00    +0.000 C 
ATOM     13  C   UNL     1     -15.922   5.125  14.533  0.00  0.00    +0.000 C 
ATOM     14  C   UNL     1     -18.112   7.277  19.496  0.00  0.00    +0.000 C 
ATOM     15  C   UNL     1     -14.477   5.450  14.444  0.00  0.00    +0.000 C 
ATOM     16  C   UNL     1     -13.839   6.557  15.126  0.00  0.00    +0.000 C 
ATOM     17  C   UNL     1     -13.285   6.518  16.473  0.00  0.00    +0.000 C 
ATOM     18  C   UNL     1     -17.166   6.382  20.051  0.00  0.00    +0.000 C 
ATOM     19  C   UNL     1     -14.351   6.213  18.784  0.00  0.00    +0.000 C 
ATOM     20  C   UNL     1     -19.064   6.711  18.452  0.00  0.00    +0.000 C 
ATOM     21  C   UNL     1     -15.016   5.338  19.743  0.00  0.00    +0.000 C 
ATOM     22  C   UNL     1     -13.908   5.611  17.485  0.00  0.00    +0.000 C 
ATOM     23  C   UNL     1     -16.218   5.625  20.513  0.00  0.00    +0.000 C 
ATOM     24  C   UNL     1     -11.922   7.127  16.786  0.00  0.00    +0.000 C 
ATOM     25  C   UNL     1     -14.397   7.719  19.001  0.00  0.00    +0.000 C 
ATOM     26  C   UNL     1     -16.460   5.021  21.873  0.00  0.00    +0.000 C 
ENDROOT
BRANCH   8  27
ATOM     27  O   UNL     1     -19.139  11.210  15.410  0.00  0.00    +0.000 OA
ATOM     28  H   UNL     1     -19.181  10.639  14.617  0.00  0.00    +0.000 HD
ENDBRANCH   8  27
BRANCH  10  29
ATOM     29  O   UNL     1     -19.639  11.629  17.986  0.00  0.00    +0.000 OA
ATOM     30  H   UNL     1     -20.373  11.688  17.346  0.00  0.00    +0.000 HD
ENDBRANCH  10  29
BRANCH  15  31
ATOM     31  O   UNL     1     -13.605   4.424  14.113  0.00  0.00    +0.000 OA
ATOM     32  H   UNL     1     -12.817   4.443  14.697  0.00  0.00    +0.000 HD
ENDBRANCH  15  31
BRANCH  16  33
ATOM     33  O   UNL     1     -13.293   7.522  14.299  0.00  0.00    +0.000 OA
ATOM     34  C   UNL     1     -14.052   8.703  14.398  0.00  0.00    +0.000 C 
ENDBRANCH  16  33
BRANCH  21  35
ATOM     35  O   UNL     1     -14.294   4.158  20.059  0.00  0.00    +0.000 OA
BRANCH  35  37
ATOM     36  O   UNL     1     -13.018   4.855  21.892  0.00  0.00    +0.000 OA
ATOM     37  C   UNL     1     -13.159   4.405  20.769  0.00  0.00    +0.000 C 
ATOM     38  C   UNL     1     -11.901   4.030  20.071  0.00  0.00    +0.000 C 
ENDBRANCH  35  37
ENDBRANCH  21  35
BRANCH   6  39
ATOM     39  C   UNL     1     -19.173   7.549  14.258  0.00  0.00    +0.000 C 
BRANCH  39  41
ATOM     40  O   UNL     1     -21.002   5.826  13.823  0.00  0.00    +0.000 OA
ATOM     41  C   UNL     1     -20.282   6.680  14.742  0.00  0.00    +0.000 C 
ATOM     42  C   UNL     1     -19.994   5.261  14.553  0.00  0.00    +0.000 C 
ATOM     43  C   UNL     1     -21.276   7.240  15.821  0.00  0.00    +0.000 C 
BRANCH  42  44
ATOM     44  C   UNL     1     -20.351   4.232  15.482  0.00  0.00    +0.000 C 
ATOM     45  C   UNL     1     -21.481   3.280  15.164  0.00  0.00    +0.000 C 
BRANCH  44  46
ATOM     46  C   UNL     1     -19.419   3.781  16.451  0.00  0.00    +0.000 C 
ATOM     47  C   UNL     1     -18.667   3.401  17.305  0.00  0.00    +0.000 C 
ATOM     48  C   UNL     1     -17.762   2.905  18.439  0.00  0.00    +0.000 C 
ENDBRANCH  44  46
ENDBRANCH  42  44
ENDBRANCH  39  41
BRANCH  39  49
ATOM     49  O   UNL     1     -19.091   8.003  12.952  0.00  0.00    +0.000 OA
ATOM     50  H   UNL     1     -18.450   8.726  12.815  0.00  0.00    +0.000 HD
ENDBRANCH  39  49
ENDBRANCH   6  39
BRANCH   8  51
ATOM     51  C   UNL     1     -16.932  11.245  16.198  0.00  0.00    +0.000 C 
BRANCH  51  52
ATOM     52  O   UNL     1     -15.745  11.850  16.147  0.00  0.00    +0.000 OA
ATOM     53  H   UNL     1     -15.420  11.905  15.225  0.00  0.00    +0.000 HD
ENDBRANCH  51  52
ENDBRANCH   8  51
TORSDOF 13
ENDMDL
MODEL 8
REMARK VINA RESULT:      -4.4     26.193     30.376
REMARK  Name = 102471178_CandidaspongiolideCore.pdbqt.pdb
REMARK  13 active torsions:
REMARK  status: ('A' for Active; 'I' for Inactive)
REMARK    1  A    between atoms: C_6  and  C_39
REMARK    2  A    between atoms: C_8  and  O_27
REMARK    3  A    between atoms: C_8  and  C_51
REMARK    4  A    between atoms: C_10  and  O_29
REMARK    5  A    between atoms: C_15  and  O_31
REMARK    6  A    between atoms: C_16  and  O_33
REMARK    7  A    between atoms: C_21  and  O_35
REMARK    8  A    between atoms: O_35  and  C_37
REMARK    9  A    between atoms: C_39  and  C_41
REMARK   10  A    between atoms: C_39  and  O_49
REMARK   11  A    between atoms: C_42  and  C_44
REMARK   12  A    between atoms: C_44  and  C_46
REMARK   13  A    between atoms: C_51  and  O_52
REMARK                            x       y       z     vdW  Elec       q    Type
REMARK                         _______ _______ _______ _____ _____    ______ ____
ROOT
ATOM      1  O   UNL     1      -9.699  -6.053  31.790  0.00  0.00    +0.000 OA
ATOM      2  O   UNL     1     -10.574  -7.005  29.892  0.00  0.00    +0.000 OA
ATOM      3  O   UNL     1     -10.473  -9.144  25.436  0.00  0.00    +0.000 OA
ATOM      4  O   UNL     1     -10.862  -7.135  33.395  0.00  0.00    +0.000 OA
ATOM      5  O   UNL     1     -13.610  -7.750  31.283  0.00  0.00    +0.000 OA
ATOM      6  C   UNL     1      -8.291  -6.273  29.962  0.00  0.00    +0.000 C 
ATOM      7  C   UNL     1      -8.084  -6.041  28.573  0.00  0.00    +0.000 C 
ATOM      8  C   UNL     1      -7.761  -5.686  27.189  0.00  0.00    +0.000 C 
ATOM      9  C   UNL     1      -9.650  -6.503  30.520  0.00  0.00    +0.000 C 
ATOM     10  C   UNL     1      -7.772  -6.891  26.273  0.00  0.00    +0.000 C 
ATOM     11  C   UNL     1      -8.743  -7.927  26.319  0.00  0.00    +0.000 C 
ATOM     12  C   UNL     1      -9.780  -8.931  26.426  0.00  0.00    +0.000 C 
ATOM     13  C   UNL     1     -10.829  -6.339  32.463  0.00  0.00    +0.000 C 
ATOM     14  C   UNL     1     -10.017  -9.640  27.719  0.00  0.00    +0.000 C 
ATOM     15  C   UNL     1     -11.970  -5.418  32.239  0.00  0.00    +0.000 C 
ATOM     16  C   UNL     1     -12.436  -4.986  30.937  0.00  0.00    +0.000 C 
ATOM     17  C   UNL     1     -13.420  -5.679  30.116  0.00  0.00    +0.000 C 
ATOM     18  C   UNL     1     -11.326 -10.066  28.054  0.00  0.00    +0.000 C 
ATOM     19  C   UNL     1     -13.404  -7.950  28.927  0.00  0.00    +0.000 C 
ATOM     20  C   UNL     1      -8.978  -9.675  28.832  0.00  0.00    +0.000 C 
ATOM     21  C   UNL     1     -13.431  -9.405  29.022  0.00  0.00    +0.000 C 
ATOM     22  C   UNL     1     -13.513  -7.168  30.201  0.00  0.00    +0.000 C 
ATOM     23  C   UNL     1     -12.560 -10.351  28.338  0.00  0.00    +0.000 C 
ATOM     24  C   UNL     1     -14.546  -4.920  29.420  0.00  0.00    +0.000 C 
ATOM     25  C   UNL     1     -12.977  -7.302  27.618  0.00  0.00    +0.000 C 
ATOM     26  C   UNL     1     -13.021 -11.735  27.963  0.00  0.00    +0.000 C 
ENDROOT
BRANCH   8  27
ATOM     27  O   UNL     1      -6.435  -5.153  27.225  0.00  0.00    +0.000 OA
ATOM     28  H   UNL     1      -6.227  -4.959  26.289  0.00  0.00    +0.000 HD
ENDBRANCH   8  27
BRANCH  10  29
ATOM     29  O   UNL     1      -6.790  -6.946  25.296  0.00  0.00    +0.000 OA
ATOM     30  H   UNL     1      -5.893  -6.847  25.668  0.00  0.00    +0.000 HD
ENDBRANCH  10  29
BRANCH  15  31
ATOM     31  O   UNL     1     -12.936  -5.336  33.230  0.00  0.00    +0.000 OA
ATOM     32  H   UNL     1     -13.784  -5.012  32.857  0.00  0.00    +0.000 HD
ENDBRANCH  15  31
BRANCH  16  33
ATOM     33  O   UNL     1     -12.323  -3.629  30.692  0.00  0.00    +0.000 OA
ATOM     34  C   UNL     1     -11.235  -3.402  29.831  0.00  0.00    +0.000 C 
ENDBRANCH  16  33
BRANCH  21  35
ATOM     35  O   UNL     1     -14.544  -9.925  29.731  0.00  0.00    +0.000 OA
BRANCH  35  37
ATOM     36  O   UNL     1     -16.076  -9.944  27.963  0.00  0.00    +0.000 OA
ATOM     37  C   UNL     1     -15.730  -9.693  29.104  0.00  0.00    +0.000 C 
ATOM     38  C   UNL     1     -16.770  -9.068  29.961  0.00  0.00    +0.000 C 
ENDBRANCH  35  37
ENDBRANCH  21  35
BRANCH   6  39
ATOM     39  C   UNL     1      -7.120  -6.365  30.803  0.00  0.00    +0.000 C 
BRANCH  39  41
ATOM     40  O   UNL     1      -5.915  -8.188  29.489  0.00  0.00    +0.000 OA
ATOM     41  C   UNL     1      -6.256  -7.578  30.755  0.00  0.00    +0.000 C 
ATOM     42  C   UNL     1      -5.003  -7.336  30.046  0.00  0.00    +0.000 C 
ATOM     43  C   UNL     1      -6.452  -8.698  31.838  0.00  0.00    +0.000 C 
BRANCH  42  44
ATOM     44  C   UNL     1      -3.737  -7.883  30.427  0.00  0.00    +0.000 C 
ATOM     45  C   UNL     1      -3.167  -9.069  29.684  0.00  0.00    +0.000 C 
BRANCH  44  46
ATOM     46  C   UNL     1      -2.802  -7.099  31.149  0.00  0.00    +0.000 C 
ATOM     47  C   UNL     1      -1.974  -6.463  31.740  0.00  0.00    +0.000 C 
ATOM     48  C   UNL     1      -0.865  -5.680  32.455  0.00  0.00    +0.000 C 
ENDBRANCH  44  46
ENDBRANCH  42  44
ENDBRANCH  39  41
BRANCH  39  49
ATOM     49  O   UNL     1      -6.895  -5.318  31.682  0.00  0.00    +0.000 OA
ATOM     50  H   UNL     1      -7.372  -4.496  31.461  0.00  0.00    +0.000 HD
ENDBRANCH  39  49
ENDBRANCH   6  39
BRANCH   8  51
ATOM     51  C   UNL     1      -8.652  -4.637  26.666  0.00  0.00    +0.000 C 
BRANCH  51  52
ATOM     52  O   UNL     1      -9.432  -3.684  26.156  0.00  0.00    +0.000 OA
ATOM     53  H   UNL     1     -10.258  -3.594  26.673  0.00  0.00    +0.000 HD
ENDBRANCH  51  52
ENDBRANCH   8  51
TORSDOF 13
ENDMDL
MODEL 9
REMARK VINA RESULT:      -4.4     26.134     29.456
REMARK  Name = 102471178_CandidaspongiolideCore.pdbqt.pdb
REMARK  13 active torsions:
REMARK  status: ('A' for Active; 'I' for Inactive)
REMARK    1  A    between atoms: C_6  and  C_39
REMARK    2  A    between atoms: C_8  and  O_27
REMARK    3  A    between atoms: C_8  and  C_51
REMARK    4  A    between atoms: C_10  and  O_29
REMARK    5  A    between atoms: C_15  and  O_31
REMARK    6  A    between atoms: C_16  and  O_33
REMARK    7  A    between atoms: C_21  and  O_35
REMARK    8  A    between atoms: O_35  and  C_37
REMARK    9  A    between atoms: C_39  and  C_41
REMARK   10  A    between atoms: C_39  and  O_49
REMARK   11  A    between atoms: C_42  and  C_44
REMARK   12  A    between atoms: C_44  and  C_46
REMARK   13  A    between atoms: C_51  and  O_52
REMARK                            x       y       z     vdW  Elec       q    Type
REMARK                         _______ _______ _______ _____ _____    ______ ____
ROOT
ATOM      1  O   UNL     1       5.351 -11.552  17.693  0.00  0.00    +0.000 OA
ATOM      2  O   UNL     1       5.867 -12.473  15.654  0.00  0.00    +0.000 OA
ATOM      3  O   UNL     1       4.975 -14.719  11.341  0.00  0.00    +0.000 OA
ATOM      4  O   UNL     1       6.492  -9.606  17.592  0.00  0.00    +0.000 OA
ATOM      5  O   UNL     1       8.878 -10.878  15.340  0.00  0.00    +0.000 OA
ATOM      6  C   UNL     1       3.745 -12.890  16.691  0.00  0.00    +0.000 C 
ATOM      7  C   UNL     1       3.434 -14.136  16.080  0.00  0.00    +0.000 C 
ATOM      8  C   UNL     1       3.029 -15.456  15.589  0.00  0.00    +0.000 C 
ATOM      9  C   UNL     1       5.102 -12.290  16.592  0.00  0.00    +0.000 C 
ATOM     10  C   UNL     1       2.758 -15.453  14.100  0.00  0.00    +0.000 C 
ATOM     11  C   UNL     1       3.556 -14.777  13.139  0.00  0.00    +0.000 C 
ATOM     12  C   UNL     1       4.431 -14.070  12.227  0.00  0.00    +0.000 C 
ATOM     13  C   UNL     1       6.486 -10.830  17.662  0.00  0.00    +0.000 C 
ATOM     14  C   UNL     1       4.687 -12.609  12.403  0.00  0.00    +0.000 C 
ATOM     15  C   UNL     1       7.728 -11.553  18.034  0.00  0.00    +0.000 C 
ATOM     16  C   UNL     1       8.117 -12.844  17.506  0.00  0.00    +0.000 C 
ATOM     17  C   UNL     1       8.892 -13.065  16.292  0.00  0.00    +0.000 C 
ATOM     18  C   UNL     1       5.941 -12.069  12.028  0.00  0.00    +0.000 C 
ATOM     19  C   UNL     1       8.401 -12.632  13.813  0.00  0.00    +0.000 C 
ATOM     20  C   UNL     1       3.776 -11.716  13.234  0.00  0.00    +0.000 C 
ATOM     21  C   UNL     1       8.212 -11.674  12.730  0.00  0.00    +0.000 C 
ATOM     22  C   UNL     1       8.761 -12.093  15.164  0.00  0.00    +0.000 C 
ATOM     23  C   UNL     1       7.139 -11.655  11.746  0.00  0.00    +0.000 C 
ATOM     24  C   UNL     1      10.044 -14.065  16.258  0.00  0.00    +0.000 C 
ATOM     25  C   UNL     1       7.947 -14.072  13.615  0.00  0.00    +0.000 C 
ATOM     26  C   UNL     1       7.337 -11.108  10.356  0.00  0.00    +0.000 C 
ENDROOT
BRANCH   8  27
ATOM     27  O   UNL     1       1.813 -15.767  16.273  0.00  0.00    +0.000 OA
ATOM     28  H   UNL     1       1.907 -16.710  16.516  0.00  0.00    +0.000 HD
ENDBRANCH   8  27
BRANCH  10  29
ATOM     29  O   UNL     1       1.684 -16.209  13.656  0.00  0.00    +0.000 OA
ATOM     30  H   UNL     1       1.667 -16.291  12.684  0.00  0.00    +0.000 HD
ENDBRANCH  10  29
BRANCH  15  31
ATOM     31  O   UNL     1       8.792 -10.803  18.511  0.00  0.00    +0.000 OA
ATOM     32  H   UNL     1       9.643 -11.196  18.225  0.00  0.00    +0.000 HD
ENDBRANCH  15  31
BRANCH  16  33
ATOM     33  O   UNL     1       8.192 -13.863  18.438  0.00  0.00    +0.000 OA
ATOM     34  C   UNL     1       7.053 -14.681  18.325  0.00  0.00    +0.000 C 
ENDBRANCH  16  33
BRANCH  21  35
ATOM     35  O   UNL     1       9.298 -10.781  12.542  0.00  0.00    +0.000 OA
BRANCH  35  37
ATOM     36  O   UNL     1      10.570 -12.472  11.544  0.00  0.00    +0.000 OA
ATOM     37  C   UNL     1      10.292 -11.309  11.776  0.00  0.00    +0.000 C 
ATOM     38  C   UNL     1      11.145 -10.302  11.092  0.00  0.00    +0.000 C 
ENDBRANCH  35  37
ENDBRANCH  21  35
BRANCH   6  39
ATOM     39  C   UNL     1       2.667 -12.179  17.339  0.00  0.00    +0.000 C 
BRANCH  39  41
ATOM     40  O   UNL     1       2.949 -13.289  19.618  0.00  0.00    +0.000 OA
ATOM     41  C   UNL     1       2.094 -12.689  18.616  0.00  0.00    +0.000 C 
ATOM     42  C   UNL     1       2.614 -11.973  19.778  0.00  0.00    +0.000 C 
ATOM     43  C   UNL     1       0.715 -13.439  18.590  0.00  0.00    +0.000 C 
BRANCH  42  44
ATOM     44  C   UNL     1       1.839 -11.627  20.931  0.00  0.00    +0.000 C 
ATOM     45  C   UNL     1       0.873 -10.466  20.875  0.00  0.00    +0.000 C 
BRANCH  44  46
ATOM     46  C   UNL     1       1.598 -12.582  21.951  0.00  0.00    +0.000 C 
ATOM     47  C   UNL     1       1.433 -13.371  22.839  0.00  0.00    +0.000 C 
ATOM     48  C   UNL     1       1.268 -14.342  24.015  0.00  0.00    +0.000 C 
ENDBRANCH  44  46
ENDBRANCH  42  44
ENDBRANCH  39  41
BRANCH  39  49
ATOM     49  O   UNL     1       2.165 -11.067  16.684  0.00  0.00    +0.000 OA
ATOM     50  H   UNL     1       2.537 -10.921  15.793  0.00  0.00    +0.000 HD
ENDBRANCH  39  49
ENDBRANCH   6  39
BRANCH   8  51
ATOM     51  C   UNL     1       4.012 -16.498  15.929  0.00  0.00    +0.000 C 
BRANCH  51  52
ATOM     52  O   UNL     1       4.907 -17.451  16.193  0.00  0.00    +0.000 OA
ATOM     53  H   UNL     1       5.522 -17.166  16.899  0.00  0.00    +0.000 HD
ENDBRANCH  51  52
ENDBRANCH   8  51
TORSDOF 13
ENDMDL
