REMARK  Name = 10288191_Binimetinib.pdbqt.pdb
REMARK  6 active torsions:
REMARK  status: ('A' for Active; 'I' for Inactive)
REMARK    1  A    between atoms: C_6  and  N_21
REMARK    2  A    between atoms: C_7  and  C_14
REMARK    3  A    between atoms: N_13  and  O_16
REMARK    4  A    between atoms: O_16  and  C_17
REMARK    5  A    between atoms: C_18  and  O_19
REMARK    6  A    between atoms: N_21  and  C_25
REMARK                            x       y       z     vdW  Elec       q    Type
REMARK                         _______ _______ _______ _____ _____    ______ ____
ROOT
ATOM      1  F   UNL     1       1.956   1.941   1.132  0.00  0.00    +0.000 F 
ATOM      2  N   UNL     1      -2.023   3.864   0.183  0.00  0.00    +0.000 N 
ATOM      3  N   UNL     1       0.062   4.177   0.835  0.00  0.00    +0.000 NA
ATOM      4  C   UNL     1      -1.470   2.616   0.169  0.00  0.00    +0.000 A 
ATOM      5  C   UNL     1      -0.158   2.836   0.578  0.00  0.00    +0.000 A 
ATOM      6  C   UNL     1       0.272   0.426   0.358  0.00  0.00    +0.000 A 
ATOM      7  C   UNL     1      -1.080   0.254  -0.040  0.00  0.00    +0.000 A 
ATOM      8  C   UNL     1      -1.962   1.346  -0.138  0.00  0.00    +0.000 A 
ATOM      9  C   UNL     1       0.712   1.733   0.674  0.00  0.00    +0.000 A 
ATOM     10  C   UNL     1      -1.089   4.771   0.583  0.00  0.00    +0.000 A 
ATOM     11  C   UNL     1      -3.364   4.180  -0.183  0.00  0.00    +0.000 C 
ENDROOT
BRANCH   7  14
ATOM     12  O   UNL     1      -0.961  -2.102  -0.102  0.00  0.00    +0.000 OA
ATOM     13  N   UNL     1      -2.901  -1.143  -0.893  0.00  0.00    +0.000 N 
ATOM     14  C   UNL     1      -1.635  -1.104  -0.344  0.00  0.00    +0.000 C 
ATOM     15  H   UNL     1      -3.285  -0.360  -1.407  0.00  0.00    +0.000 HD
BRANCH  13  16
ATOM     16  O   UNL     1      -3.256  -2.405  -1.417  0.00  0.00    +0.000 OA
BRANCH  16  17
ATOM     17  C   UNL     1      -4.218  -2.879  -0.628  0.00  0.00    +0.000 C 
ATOM     18  C   UNL     1      -5.316  -3.432   0.287  0.00  0.00    +0.000 C 
BRANCH  18  19
ATOM     19  O   UNL     1      -6.262  -3.915   1.085  0.00  0.00    +0.000 OA
ATOM     20  H   UNL     1      -5.942  -4.713   1.539  0.00  0.00    +0.000 HD
ENDBRANCH  18  19
ENDBRANCH  16  17
ENDBRANCH  13  16
ENDBRANCH   7  14
BRANCH   6  21
ATOM     21  N   UNL     1       1.153  -0.685   0.405  0.00  0.00    +0.000 N 
ATOM     22  H   UNL     1       0.663  -1.593   0.395  0.00  0.00    +0.000 HD
BRANCH  21  25
ATOM     23 BR   UNL     1       7.043  -1.363  -1.022  0.00  0.00    +0.000 Br
ATOM     24  F   UNL     1       2.505  -3.050   0.835  0.00  0.00    +0.000 F 
ATOM     25  C   UNL     1       2.505  -0.820   0.026  0.00  0.00    +0.000 A 
ATOM     26  C   UNL     1       3.177  -2.027   0.282  0.00  0.00    +0.000 A 
ATOM     27  C   UNL     1       3.248   0.223  -0.531  0.00  0.00    +0.000 A 
ATOM     28  C   UNL     1       4.522  -2.203  -0.026  0.00  0.00    +0.000 A 
ATOM     29  C   UNL     1       4.597   0.066  -0.848  0.00  0.00    +0.000 A 
ATOM     30  C   UNL     1       5.223  -1.148  -0.593  0.00  0.00    +0.000 A 
ENDBRANCH  21  25
ENDBRANCH   6  21
TORSDOF 6
