MODEL 1
REMARK VINA RESULT:      -4.5      0.000      0.000
REMARK  Name = 10281_Thymoquinone.pdbqt.pdb
REMARK  1 active torsions:
REMARK  status: ('A' for Active; 'I' for Inactive)
REMARK    1  A    between atoms: C_3  and  C_10
REMARK                            x       y       z     vdW  Elec       q    Type
REMARK                         _______ _______ _______ _____ _____    ______ ____
ROOT
ATOM      1  O   UNL     1     -11.388  -6.451  27.927  0.00  0.00    +0.000 OA
ATOM      2  O   UNL     1      -6.825  -6.584  25.081  0.00  0.00    +0.000 OA
ATOM      3  C   UNL     1      -9.846  -7.803  26.644  0.00  0.00    +0.000 C 
ATOM      4  C   UNL     1     -10.367  -6.544  27.275  0.00  0.00    +0.000 C 
ATOM      5  C   UNL     1      -8.724  -7.582  26.006  0.00  0.00    +0.000 C 
ATOM      6  C   UNL     1      -8.382  -5.172  26.389  0.00  0.00    +0.000 C 
ATOM      7  C   UNL     1      -7.838  -6.448  25.739  0.00  0.00    +0.000 C 
ATOM      8  C   UNL     1      -9.500  -5.400  27.023  0.00  0.00    +0.000 C 
ATOM      9  C   UNL     1      -7.754  -3.817  26.339  0.00  0.00    +0.000 C 
ENDROOT
BRANCH   3  10
ATOM     10  C   UNL     1     -10.559  -9.031  26.776  0.00  0.00    +0.000 C 
ATOM     11  C   UNL     1     -11.868  -9.240  26.055  0.00  0.00    +0.000 C 
ATOM     12  C   UNL     1      -9.860 -10.274  27.268  0.00  0.00    +0.000 C 
ENDBRANCH   3  10
TORSDOF 1
ENDMDL
MODEL 2
REMARK VINA RESULT:      -3.9     12.151     13.826
REMARK  Name = 10281_Thymoquinone.pdbqt.pdb
REMARK  1 active torsions:
REMARK  status: ('A' for Active; 'I' for Inactive)
REMARK    1  A    between atoms: C_3  and  C_10
REMARK                            x       y       z     vdW  Elec       q    Type
REMARK                         _______ _______ _______ _____ _____    ______ ____
ROOT
ATOM      1  O   UNL     1     -22.146  -5.366  19.250  0.00  0.00    +0.000 OA
ATOM      2  O   UNL     1     -17.576  -6.288  16.566  0.00  0.00    +0.000 OA
ATOM      3  C   UNL     1     -19.777  -4.909  19.079  0.00  0.00    +0.000 C 
ATOM      4  C   UNL     1     -21.084  -5.535  18.685  0.00  0.00    +0.000 C 
ATOM      5  C   UNL     1     -18.813  -5.285  18.276  0.00  0.00    +0.000 C 
ATOM      6  C   UNL     1     -19.998  -6.776  16.713  0.00  0.00    +0.000 C 
ATOM      7  C   UNL     1     -18.658  -6.146  17.102  0.00  0.00    +0.000 C 
ATOM      8  C   UNL     1     -20.955  -6.397  17.516  0.00  0.00    +0.000 C 
ATOM      9  C   UNL     1     -20.239  -7.708  15.570  0.00  0.00    +0.000 C 
ENDROOT
BRANCH   3  10
ATOM     10  C   UNL     1     -19.699  -4.035  20.202  0.00  0.00    +0.000 C 
ATOM     11  C   UNL     1     -18.931  -4.438  21.437  0.00  0.00    +0.000 C 
ATOM     12  C   UNL     1     -19.999  -2.564  20.052  0.00  0.00    +0.000 C 
ENDBRANCH   3  10
TORSDOF 1
ENDMDL
MODEL 3
REMARK VINA RESULT:      -3.8     11.101     12.998
REMARK  Name = 10281_Thymoquinone.pdbqt.pdb
REMARK  1 active torsions:
REMARK  status: ('A' for Active; 'I' for Inactive)
REMARK    1  A    between atoms: C_3  and  C_10
REMARK                            x       y       z     vdW  Elec       q    Type
REMARK                         _______ _______ _______ _____ _____    ______ ____
ROOT
ATOM      1  O   UNL     1      -3.219 -17.180  20.422  0.00  0.00    +0.000 OA
ATOM      2  O   UNL     1      -8.519 -16.260  20.453  0.00  0.00    +0.000 OA
ATOM      3  C   UNL     1      -5.190 -16.682  19.111  0.00  0.00    +0.000 C 
ATOM      4  C   UNL     1      -4.413 -16.965  20.365  0.00  0.00    +0.000 C 
ATOM      5  C   UNL     1      -6.459 -16.493  19.375  0.00  0.00    +0.000 C 
ATOM      6  C   UNL     1      -6.521 -16.769  21.823  0.00  0.00    +0.000 C 
ATOM      7  C   UNL     1      -7.327 -16.480  20.553  0.00  0.00    +0.000 C 
ATOM      8  C   UNL     1      -5.258 -16.957  21.553  0.00  0.00    +0.000 C 
ATOM      9  C   UNL     1      -7.058 -16.836  23.216  0.00  0.00    +0.000 C 
ENDROOT
BRANCH   3  10
ATOM     10  C   UNL     1      -4.538 -16.651  17.844  0.00  0.00    +0.000 C 
ATOM     11  C   UNL     1      -3.820 -15.407  17.381  0.00  0.00    +0.000 C 
ATOM     12  C   UNL     1      -4.181 -17.934  17.134  0.00  0.00    +0.000 C 
ENDBRANCH   3  10
TORSDOF 1
ENDMDL
MODEL 4
REMARK VINA RESULT:      -3.8     12.563     13.722
REMARK  Name = 10281_Thymoquinone.pdbqt.pdb
REMARK  1 active torsions:
REMARK  status: ('A' for Active; 'I' for Inactive)
REMARK    1  A    between atoms: C_3  and  C_10
REMARK                            x       y       z     vdW  Elec       q    Type
REMARK                         _______ _______ _______ _____ _____    ______ ____
ROOT
ATOM      1  O   UNL     1      -7.536 -15.980  19.585  0.00  0.00    +0.000 OA
ATOM      2  O   UNL     1      -3.646 -18.490  16.844  0.00  0.00    +0.000 OA
ATOM      3  C   UNL     1      -6.228 -17.998  19.325  0.00  0.00    +0.000 C 
ATOM      4  C   UNL     1      -6.666 -16.598  19.004  0.00  0.00    +0.000 C 
ATOM      5  C   UNL     1      -5.270 -18.389  18.521  0.00  0.00    +0.000 C 
ATOM      6  C   UNL     1      -4.967 -16.410  17.085  0.00  0.00    +0.000 C 
ATOM      7  C   UNL     1      -4.509 -17.837  17.398  0.00  0.00    +0.000 C 
ATOM      8  C   UNL     1      -5.921 -16.027  17.888  0.00  0.00    +0.000 C 
ATOM      9  C   UNL     1      -4.425 -15.524  16.010  0.00  0.00    +0.000 C 
ENDROOT
BRANCH   3  10
ATOM     10  C   UNL     1      -6.842 -18.727  20.385  0.00  0.00    +0.000 C 
ATOM     11  C   UNL     1      -8.039 -19.607  20.118  0.00  0.00    +0.000 C 
ATOM     12  C   UNL     1      -6.099 -18.980  21.673  0.00  0.00    +0.000 C 
ENDBRANCH   3  10
TORSDOF 1
ENDMDL
MODEL 5
REMARK VINA RESULT:      -3.7     22.925     24.415
REMARK  Name = 10281_Thymoquinone.pdbqt.pdb
REMARK  1 active torsions:
REMARK  status: ('A' for Active; 'I' for Inactive)
REMARK    1  A    between atoms: C_3  and  C_10
REMARK                            x       y       z     vdW  Elec       q    Type
REMARK                         _______ _______ _______ _____ _____    ______ ____
ROOT
ATOM      1  O   UNL     1      -8.034   9.402   6.765  0.00  0.00    +0.000 OA
ATOM      2  O   UNL     1      -7.056   4.113   6.635  0.00  0.00    +0.000 OA
ATOM      3  C   UNL     1      -7.010   7.509   7.871  0.00  0.00    +0.000 C 
ATOM      4  C   UNL     1      -7.781   8.214   6.792  0.00  0.00    +0.000 C 
ATOM      5  C   UNL     1      -6.904   6.229   7.616  0.00  0.00    +0.000 C 
ATOM      6  C   UNL     1      -8.113   6.029   5.478  0.00  0.00    +0.000 C 
ATOM      7  C   UNL     1      -7.330   5.296   6.571  0.00  0.00    +0.000 C 
ATOM      8  C   UNL     1      -8.215   7.304   5.738  0.00  0.00    +0.000 C 
ATOM      9  C   UNL     1      -8.705   5.415   4.251  0.00  0.00    +0.000 C 
ENDROOT
BRANCH   3  10
ATOM     10  C   UNL     1      -6.504   8.231   8.991  0.00  0.00    +0.000 C 
ATOM     11  C   UNL     1      -5.206   8.994   8.889  0.00  0.00    +0.000 C 
ATOM     12  C   UNL     1      -7.412   8.605  10.137  0.00  0.00    +0.000 C 
ENDBRANCH   3  10
TORSDOF 1
ENDMDL
MODEL 6
REMARK VINA RESULT:      -3.6     12.669     14.226
REMARK  Name = 10281_Thymoquinone.pdbqt.pdb
REMARK  1 active torsions:
REMARK  status: ('A' for Active; 'I' for Inactive)
REMARK    1  A    between atoms: C_3  and  C_10
REMARK                            x       y       z     vdW  Elec       q    Type
REMARK                         _______ _______ _______ _____ _____    ______ ____
ROOT
ATOM      1  O   UNL     1     -22.592  -3.423  20.379  0.00  0.00    +0.000 OA
ATOM      2  O   UNL     1     -19.645  -5.990  16.682  0.00  0.00    +0.000 OA
ATOM      3  C   UNL     1     -20.646  -4.792  19.941  0.00  0.00    +0.000 C 
ATOM      4  C   UNL     1     -21.886  -4.021  19.591  0.00  0.00    +0.000 C 
ATOM      5  C   UNL     1     -20.106  -5.327  18.874  0.00  0.00    +0.000 C 
ATOM      6  C   UNL     1     -21.643  -4.588  17.096  0.00  0.00    +0.000 C 
ATOM      7  C   UNL     1     -20.377  -5.379  17.437  0.00  0.00    +0.000 C 
ATOM      8  C   UNL     1     -22.176  -4.058  18.163  0.00  0.00    +0.000 C 
ATOM      9  C   UNL     1     -22.236  -4.411  15.735  0.00  0.00    +0.000 C 
ENDROOT
BRANCH   3  10
ATOM     10  C   UNL     1     -20.200  -4.876  21.292  0.00  0.00    +0.000 C 
ATOM     11  C   UNL     1     -20.841  -5.846  22.254  0.00  0.00    +0.000 C 
ATOM     12  C   UNL     1     -18.847  -4.337  21.688  0.00  0.00    +0.000 C 
ENDBRANCH   3  10
TORSDOF 1
ENDMDL
MODEL 7
REMARK VINA RESULT:      -3.5     13.029     14.135
REMARK  Name = 10281_Thymoquinone.pdbqt.pdb
REMARK  1 active torsions:
REMARK  status: ('A' for Active; 'I' for Inactive)
REMARK    1  A    between atoms: C_3  and  C_10
REMARK                            x       y       z     vdW  Elec       q    Type
REMARK                         _______ _______ _______ _____ _____    ______ ____
ROOT
ATOM      1  O   UNL     1      -3.298 -16.936  20.926  0.00  0.00    +0.000 OA
ATOM      2  O   UNL     1      -4.603 -15.539  15.897  0.00  0.00    +0.000 OA
ATOM      3  C   UNL     1      -2.500 -16.238  18.751  0.00  0.00    +0.000 C 
ATOM      4  C   UNL     1      -3.530 -16.612  19.778  0.00  0.00    +0.000 C 
ATOM      5  C   UNL     1      -3.061 -15.939  17.607  0.00  0.00    +0.000 C 
ATOM      6  C   UNL     1      -5.453 -16.251  18.111  0.00  0.00    +0.000 C 
ATOM      7  C   UNL     1      -4.414 -15.868  17.052  0.00  0.00    +0.000 C 
ATOM      8  C   UNL     1      -4.887 -16.548  19.249  0.00  0.00    +0.000 C 
ATOM      9  C   UNL     1      -6.934 -16.294  17.921  0.00  0.00    +0.000 C 
ENDROOT
BRANCH   3  10
ATOM     10  C   UNL     1      -1.112 -16.244  19.079  0.00  0.00    +0.000 C 
ATOM     11  C   UNL     1      -0.256 -17.448  18.769  0.00  0.00    +0.000 C 
ATOM     12  C   UNL     1      -0.380 -14.951  19.339  0.00  0.00    +0.000 C 
ENDBRANCH   3  10
TORSDOF 1
ENDMDL
MODEL 8
REMARK VINA RESULT:      -3.5     32.160     33.877
REMARK  Name = 10281_Thymoquinone.pdbqt.pdb
REMARK  1 active torsions:
REMARK  status: ('A' for Active; 'I' for Inactive)
REMARK    1  A    between atoms: C_3  and  C_10
REMARK                            x       y       z     vdW  Elec       q    Type
REMARK                         _______ _______ _______ _____ _____    ______ ____
ROOT
ATOM      1  O   UNL     1      -2.396   9.840  -2.931  0.00  0.00    +0.000 OA
ATOM      2  O   UNL     1      -2.380   4.538  -3.848  0.00  0.00    +0.000 OA
ATOM      3  C   UNL     1      -3.650   7.773  -2.854  0.00  0.00    +0.000 C 
ATOM      4  C   UNL     1      -2.453   8.640  -3.117  0.00  0.00    +0.000 C 
ATOM      5  C   UNL     1      -3.402   6.522  -3.155  0.00  0.00    +0.000 C 
ATOM      6  C   UNL     1      -1.068   6.636  -3.938  0.00  0.00    +0.000 C 
ATOM      7  C   UNL     1      -2.280   5.738  -3.676  0.00  0.00    +0.000 C 
ATOM      8  C   UNL     1      -1.322   7.881  -3.636  0.00  0.00    +0.000 C 
ATOM      9  C   UNL     1       0.259   6.198  -4.468  0.00  0.00    +0.000 C 
ENDROOT
BRANCH   3  10
ATOM     10  C   UNL     1      -4.857   8.335  -2.346  0.00  0.00    +0.000 C 
ATOM     11  C   UNL     1      -5.046   8.534  -0.861  0.00  0.00    +0.000 C 
ATOM     12  C   UNL     1      -5.777   9.119  -3.248  0.00  0.00    +0.000 C 
ENDBRANCH   3  10
TORSDOF 1
ENDMDL
MODEL 9
REMARK VINA RESULT:      -3.4     30.915     32.736
REMARK  Name = 10281_Thymoquinone.pdbqt.pdb
REMARK  1 active torsions:
REMARK  status: ('A' for Active; 'I' for Inactive)
REMARK    1  A    between atoms: C_3  and  C_10
REMARK                            x       y       z     vdW  Elec       q    Type
REMARK                         _______ _______ _______ _____ _____    ______ ____
ROOT
ATOM      1  O   UNL     1      -7.207  10.407  -0.859  0.00  0.00    +0.000 OA
ATOM      2  O   UNL     1      -3.698   7.372  -3.583  0.00  0.00    +0.000 OA
ATOM      3  C   UNL     1      -5.360   8.849  -0.734  0.00  0.00    +0.000 C 
ATOM      4  C   UNL     1      -6.390   9.702  -1.418  0.00  0.00    +0.000 C 
ATOM      5  C   UNL     1      -4.625   8.206  -1.607  0.00  0.00    +0.000 C 
ATOM      6  C   UNL     1      -5.586   8.965  -3.745  0.00  0.00    +0.000 C 
ATOM      7  C   UNL     1      -4.531   8.089  -3.063  0.00  0.00    +0.000 C 
ATOM      8  C   UNL     1      -6.314   9.603  -2.870  0.00  0.00    +0.000 C 
ATOM      9  C   UNL     1      -5.797   9.110  -5.217  0.00  0.00    +0.000 C 
ENDROOT
BRANCH   3  10
ATOM     10  C   UNL     1      -5.278   8.810   0.688  0.00  0.00    +0.000 C 
ATOM     11  C   UNL     1      -4.588   9.916   1.448  0.00  0.00    +0.000 C 
ATOM     12  C   UNL     1      -6.207   7.929   1.487  0.00  0.00    +0.000 C 
ENDBRANCH   3  10
TORSDOF 1
ENDMDL
