MODEL 1
REMARK VINA RESULT:      -6.3      0.000      0.000
REMARK  Name = 10288191_Binimetinib.pdbqt.pdb
REMARK  6 active torsions:
REMARK  status: ('A' for Active; 'I' for Inactive)
REMARK    1  A    between atoms: C_6  and  N_21
REMARK    2  A    between atoms: C_7  and  C_14
REMARK    3  A    between atoms: N_13  and  O_16
REMARK    4  A    between atoms: O_16  and  C_17
REMARK    5  A    between atoms: C_18  and  O_19
REMARK    6  A    between atoms: N_21  and  C_25
REMARK                            x       y       z     vdW  Elec       q    Type
REMARK                         _______ _______ _______ _____ _____    ______ ____
ROOT
ATOM      1  F   UNL     1     -14.875  -6.864   1.634  0.00  0.00    +0.000 F 
ATOM      2  N   UNL     1     -13.690  -9.267  -2.006  0.00  0.00    +0.000 N 
ATOM      3  N   UNL     1     -15.265  -8.074  -1.023  0.00  0.00    +0.000 NA
ATOM      4  C   UNL     1     -13.129  -8.864  -0.829  0.00  0.00    +0.000 A 
ATOM      5  C   UNL     1     -14.134  -8.112  -0.228  0.00  0.00    +0.000 A 
ATOM      6  C   UNL     1     -12.633  -7.701   1.675  0.00  0.00    +0.000 A 
ATOM      7  C   UNL     1     -11.647  -8.490   1.026  0.00  0.00    +0.000 A 
ATOM      8  C   UNL     1     -11.886  -9.078  -0.230  0.00  0.00    +0.000 A 
ATOM      9  C   UNL     1     -13.881  -7.532   1.030  0.00  0.00    +0.000 A 
ATOM     10  C   UNL     1     -14.960  -8.782  -2.093  0.00  0.00    +0.000 A 
ATOM     11  C   UNL     1     -13.047 -10.056  -3.004  0.00  0.00    +0.000 C 
ENDROOT
BRANCH   7  14
ATOM     12  O   UNL     1     -10.265  -9.421   2.697  0.00  0.00    +0.000 OA
ATOM     13  N   UNL     1      -9.214  -8.219   1.036  0.00  0.00    +0.000 N 
ATOM     14  C   UNL     1     -10.319  -8.756   1.666  0.00  0.00    +0.000 C 
ATOM     15  H   UNL     1      -9.283  -7.410   0.432  0.00  0.00    +0.000 HD
BRANCH  13  16
ATOM     16  O   UNL     1      -8.039  -8.254   1.819  0.00  0.00    +0.000 OA
BRANCH  16  17
ATOM     17  C   UNL     1      -7.140  -8.936   1.112  0.00  0.00    +0.000 C 
ATOM     18  C   UNL     1      -6.106  -9.712   0.289  0.00  0.00    +0.000 C 
BRANCH  18  19
ATOM     19  O   UNL     1      -5.209 -10.378  -0.430  0.00  0.00    +0.000 OA
ATOM     20  H   UNL     1      -4.310 -10.118  -0.166  0.00  0.00    +0.000 HD
ENDBRANCH  18  19
ENDBRANCH  16  17
ENDBRANCH  13  16
ENDBRANCH   7  14
BRANCH   6  21
ATOM     21  N   UNL     1     -12.352  -7.082   2.920  0.00  0.00    +0.000 N 
ATOM     22  H   UNL     1     -11.676  -6.306   2.844  0.00  0.00    +0.000 HD
BRANCH  21  25
ATOM     23 BR   UNL     1     -15.679  -6.960   8.029  0.00  0.00    +0.000 Br
ATOM     24  F   UNL     1     -12.496  -9.241   4.630  0.00  0.00    +0.000 F 
ATOM     25  C   UNL     1     -13.099  -7.005   4.114  0.00  0.00    +0.000 A 
ATOM     26  C   UNL     1     -13.177  -8.129   4.953  0.00  0.00    +0.000 A 
ATOM     27  C   UNL     1     -13.840  -5.879   4.478  0.00  0.00    +0.000 A 
ATOM     28  C   UNL     1     -13.937  -8.129   6.118  0.00  0.00    +0.000 A 
ATOM     29  C   UNL     1     -14.606  -5.859   5.643  0.00  0.00    +0.000 A 
ATOM     30  C   UNL     1     -14.647  -6.986   6.455  0.00  0.00    +0.000 A 
ENDBRANCH  21  25
ENDBRANCH   6  21
TORSDOF 6
ENDMDL
MODEL 2
REMARK VINA RESULT:      -5.8      7.550     11.682
REMARK  Name = 10288191_Binimetinib.pdbqt.pdb
REMARK  6 active torsions:
REMARK  status: ('A' for Active; 'I' for Inactive)
REMARK    1  A    between atoms: C_6  and  N_21
REMARK    2  A    between atoms: C_7  and  C_14
REMARK    3  A    between atoms: N_13  and  O_16
REMARK    4  A    between atoms: O_16  and  C_17
REMARK    5  A    between atoms: C_18  and  O_19
REMARK    6  A    between atoms: N_21  and  C_25
REMARK                            x       y       z     vdW  Elec       q    Type
REMARK                         _______ _______ _______ _____ _____    ______ ____
ROOT
ATOM      1  F   UNL     1      -2.010  -5.121  -2.500  0.00  0.00    +0.000 F 
ATOM      2  N   UNL     1      -4.846  -2.480  -0.172  0.00  0.00    +0.000 N 
ATOM      3  N   UNL     1      -3.090  -2.567  -1.507  0.00  0.00    +0.000 NA
ATOM      4  C   UNL     1      -4.677  -3.810  -0.428  0.00  0.00    +0.000 A 
ATOM      5  C   UNL     1      -3.571  -3.842  -1.273  0.00  0.00    +0.000 A 
ATOM      6  C   UNL     1      -3.767  -6.290  -1.369  0.00  0.00    +0.000 A 
ATOM      7  C   UNL     1      -4.881  -6.204  -0.494  0.00  0.00    +0.000 A 
ATOM      8  C   UNL     1      -5.346  -4.964  -0.016  0.00  0.00    +0.000 A 
ATOM      9  C   UNL     1      -3.116  -5.090  -1.740  0.00  0.00    +0.000 A 
ATOM     10  C   UNL     1      -3.888  -1.766  -0.827  0.00  0.00    +0.000 A 
ATOM     11  C   UNL     1      -5.875  -1.916   0.637  0.00  0.00    +0.000 C 
ENDROOT
BRANCH   7  14
ATOM     12  O   UNL     1      -4.992  -8.250   0.675  0.00  0.00    +0.000 OA
ATOM     13  N   UNL     1      -6.913  -7.567  -0.399  0.00  0.00    +0.000 N 
ATOM     14  C   UNL     1      -5.593  -7.432  -0.017  0.00  0.00    +0.000 C 
ATOM     15  H   UNL     1      -7.279  -7.111  -1.225  0.00  0.00    +0.000 HD
BRANCH  13  16
ATOM     16  O   UNL     1      -7.444  -8.855  -0.169  0.00  0.00    +0.000 OA
BRANCH  16  17
ATOM     17  C   UNL     1      -8.434  -8.699   0.707  0.00  0.00    +0.000 C 
ATOM     18  C   UNL     1      -9.571  -8.531   1.721  0.00  0.00    +0.000 C 
BRANCH  18  19
ATOM     19  O   UNL     1     -10.555  -8.394   2.603  0.00  0.00    +0.000 OA
ATOM     20  H   UNL     1     -11.345  -8.029   2.170  0.00  0.00    +0.000 HD
ENDBRANCH  18  19
ENDBRANCH  16  17
ENDBRANCH  13  16
ENDBRANCH   7  14
BRANCH   6  21
ATOM     21  N   UNL     1      -3.346  -7.548  -1.873  0.00  0.00    +0.000 N 
ATOM     22  H   UNL     1      -4.109  -8.085  -2.315  0.00  0.00    +0.000 HD
BRANCH  21  25
ATOM     23 BR   UNL     1       2.026  -9.733  -3.759  0.00  0.00    +0.000 Br
ATOM     24  F   UNL     1      -2.899  -8.287  -4.493  0.00  0.00    +0.000 F 
ATOM     25  C   UNL     1      -2.079  -8.012  -2.284  0.00  0.00    +0.000 A 
ATOM     26  C   UNL     1      -1.887  -8.408  -3.618  0.00  0.00    +0.000 A 
ATOM     27  C   UNL     1      -1.006  -8.175  -1.405  0.00  0.00    +0.000 A 
ATOM     28  C   UNL     1      -0.674  -8.917  -4.070  0.00  0.00    +0.000 A 
ATOM     29  C   UNL     1       0.219  -8.682  -1.839  0.00  0.00    +0.000 A 
ATOM     30  C   UNL     1       0.374  -9.049  -3.171  0.00  0.00    +0.000 A 
ENDBRANCH  21  25
ENDBRANCH   6  21
TORSDOF 6
ENDMDL
MODEL 3
REMARK VINA RESULT:      -5.4      2.138      2.872
REMARK  Name = 10288191_Binimetinib.pdbqt.pdb
REMARK  6 active torsions:
REMARK  status: ('A' for Active; 'I' for Inactive)
REMARK    1  A    between atoms: C_6  and  N_21
REMARK    2  A    between atoms: C_7  and  C_14
REMARK    3  A    between atoms: N_13  and  O_16
REMARK    4  A    between atoms: O_16  and  C_17
REMARK    5  A    between atoms: C_18  and  O_19
REMARK    6  A    between atoms: N_21  and  C_25
REMARK                            x       y       z     vdW  Elec       q    Type
REMARK                         _______ _______ _______ _____ _____    ______ ____
ROOT
ATOM      1  F   UNL     1     -16.298  -5.701   1.138  0.00  0.00    +0.000 F 
ATOM      2  N   UNL     1     -17.449  -8.645  -2.093  0.00  0.00    +0.000 N 
ATOM      3  N   UNL     1     -17.941  -6.753  -1.069  0.00  0.00    +0.000 NA
ATOM      4  C   UNL     1     -16.456  -8.488  -1.170  0.00  0.00    +0.000 A 
ATOM      5  C   UNL     1     -16.782  -7.291  -0.540  0.00  0.00    +0.000 A 
ATOM      6  C   UNL     1     -14.790  -7.541   0.878  0.00  0.00    +0.000 A 
ATOM      7  C   UNL     1     -14.510  -8.765   0.214  0.00  0.00    +0.000 A 
ATOM      8  C   UNL     1     -15.340  -9.248  -0.815  0.00  0.00    +0.000 A 
ATOM      9  C   UNL     1     -15.944  -6.821   0.489  0.00  0.00    +0.000 A 
ATOM     10  C   UNL     1     -18.317  -7.598  -2.010  0.00  0.00    +0.000 A 
ATOM     11  C   UNL     1     -17.557  -9.723  -3.019  0.00  0.00    +0.000 C 
ENDROOT
BRANCH   7  14
ATOM     12  O   UNL     1     -13.436 -10.393   1.541  0.00  0.00    +0.000 OA
ATOM     13  N   UNL     1     -12.186  -9.444  -0.145  0.00  0.00    +0.000 N 
ATOM     14  C   UNL     1     -13.335  -9.610   0.601  0.00  0.00    +0.000 C 
ATOM     15  H   UNL     1     -11.994  -8.587  -0.649  0.00  0.00    +0.000 HD
BRANCH  13  16
ATOM     16  O   UNL     1     -11.043 -10.041   0.430  0.00  0.00    +0.000 OA
BRANCH  16  17
ATOM     17  C   UNL     1     -10.014  -9.255   0.118  0.00  0.00    +0.000 C 
ATOM     18  C   UNL     1      -8.822  -8.361  -0.241  0.00  0.00    +0.000 C 
BRANCH  18  19
ATOM     19  O   UNL     1      -7.784  -7.593  -0.552  0.00  0.00    +0.000 OA
ATOM     20  H   UNL     1      -7.372  -7.904  -1.376  0.00  0.00    +0.000 HD
ENDBRANCH  18  19
ENDBRANCH  16  17
ENDBRANCH  13  16
ENDBRANCH   7  14
BRANCH   6  21
ATOM     21  N   UNL     1     -13.913  -7.053   1.881  0.00  0.00    +0.000 N 
ATOM     22  H   UNL     1     -13.497  -6.138   1.646  0.00  0.00    +0.000 HD
BRANCH  21  25
ATOM     23 BR   UNL     1     -13.483  -8.413   7.809  0.00  0.00    +0.000 Br
ATOM     24  F   UNL     1     -11.585  -8.019   3.000  0.00  0.00    +0.000 F 
ATOM     25  C   UNL     1     -13.836  -7.319   3.264  0.00  0.00    +0.000 A 
ATOM     26  C   UNL     1     -12.647  -7.837   3.803  0.00  0.00    +0.000 A 
ATOM     27  C   UNL     1     -14.921  -7.166   4.130  0.00  0.00    +0.000 A 
ATOM     28  C   UNL     1     -12.527  -8.163   5.149  0.00  0.00    +0.000 A 
ATOM     29  C   UNL     1     -14.820  -7.486   5.484  0.00  0.00    +0.000 A 
ATOM     30  C   UNL     1     -13.622  -7.982   5.983  0.00  0.00    +0.000 A 
ENDBRANCH  21  25
ENDBRANCH   6  21
TORSDOF 6
ENDMDL
MODEL 4
REMARK VINA RESULT:      -5.2      8.104     11.992
REMARK  Name = 10288191_Binimetinib.pdbqt.pdb
REMARK  6 active torsions:
REMARK  status: ('A' for Active; 'I' for Inactive)
REMARK    1  A    between atoms: C_6  and  N_21
REMARK    2  A    between atoms: C_7  and  C_14
REMARK    3  A    between atoms: N_13  and  O_16
REMARK    4  A    between atoms: O_16  and  C_17
REMARK    5  A    between atoms: C_18  and  O_19
REMARK    6  A    between atoms: N_21  and  C_25
REMARK                            x       y       z     vdW  Elec       q    Type
REMARK                         _______ _______ _______ _____ _____    ______ ____
ROOT
ATOM      1  F   UNL     1      -1.622  -3.806  -1.911  0.00  0.00    +0.000 F 
ATOM      2  N   UNL     1      -5.599  -2.238  -0.442  0.00  0.00    +0.000 N 
ATOM      3  N   UNL     1      -3.521  -1.747  -0.999  0.00  0.00    +0.000 NA
ATOM      4  C   UNL     1      -5.059  -3.430  -0.830  0.00  0.00    +0.000 A 
ATOM      5  C   UNL     1      -3.753  -3.098  -1.180  0.00  0.00    +0.000 A 
ATOM      6  C   UNL     1      -3.349  -5.455  -1.747  0.00  0.00    +0.000 A 
ATOM      7  C   UNL     1      -4.685  -5.744  -1.363  0.00  0.00    +0.000 A 
ATOM      8  C   UNL     1      -5.551  -4.735  -0.902  0.00  0.00    +0.000 A 
ATOM      9  C   UNL     1      -2.898  -4.119  -1.638  0.00  0.00    +0.000 A 
ATOM     10  C   UNL     1      -4.662  -1.256  -0.553  0.00  0.00    +0.000 A 
ATOM     11  C   UNL     1      -6.942  -2.040  -0.006  0.00  0.00    +0.000 C 
ENDROOT
BRANCH   7  14
ATOM     12  O   UNL     1      -5.256  -7.747  -2.473  0.00  0.00    +0.000 OA
ATOM     13  N   UNL     1      -5.658  -7.669  -0.205  0.00  0.00    +0.000 N 
ATOM     14  C   UNL     1      -5.222  -7.142  -1.404  0.00  0.00    +0.000 C 
ATOM     15  H   UNL     1      -5.959  -7.079   0.560  0.00  0.00    +0.000 HD
BRANCH  13  16
ATOM     16  O   UNL     1      -6.406  -8.859  -0.344  0.00  0.00    +0.000 OA
BRANCH  16  17
ATOM     17  C   UNL     1      -7.477  -8.718   0.433  0.00  0.00    +0.000 C 
ATOM     18  C   UNL     1      -8.704  -8.561   1.338  0.00  0.00    +0.000 C 
BRANCH  18  19
ATOM     19  O   UNL     1      -9.764  -8.428   2.129  0.00  0.00    +0.000 OA
ATOM     20  H   UNL     1     -10.072  -9.301   2.425  0.00  0.00    +0.000 HD
ENDBRANCH  18  19
ENDBRANCH  16  17
ENDBRANCH  13  16
ENDBRANCH   7  14
BRANCH   6  21
ATOM     21  N   UNL     1      -2.510  -6.482  -2.253  0.00  0.00    +0.000 N 
ATOM     22  H   UNL     1      -2.501  -7.327  -1.661  0.00  0.00    +0.000 HD
BRANCH  21  25
ATOM     23 BR   UNL     1      -0.332  -7.657  -7.826  0.00  0.00    +0.000 Br
ATOM     24  F   UNL     1      -0.509  -8.329  -2.687  0.00  0.00    +0.000 F 
ATOM     25  C   UNL     1      -2.058  -6.758  -3.560  0.00  0.00    +0.000 A 
ATOM     26  C   UNL     1      -1.018  -7.684  -3.750  0.00  0.00    +0.000 A 
ATOM     27  C   UNL     1      -2.542  -6.096  -4.690  0.00  0.00    +0.000 A 
ATOM     28  C   UNL     1      -0.498  -7.962  -5.010  0.00  0.00    +0.000 A 
ATOM     29  C   UNL     1      -2.035  -6.362  -5.961  0.00  0.00    +0.000 A 
ATOM     30  C   UNL     1      -1.017  -7.295  -6.110  0.00  0.00    +0.000 A 
ENDBRANCH  21  25
ENDBRANCH   6  21
TORSDOF 6
ENDMDL
MODEL 5
REMARK VINA RESULT:      -4.9     20.064     22.790
REMARK  Name = 10288191_Binimetinib.pdbqt.pdb
REMARK  6 active torsions:
REMARK  status: ('A' for Active; 'I' for Inactive)
REMARK    1  A    between atoms: C_6  and  N_21
REMARK    2  A    between atoms: C_7  and  C_14
REMARK    3  A    between atoms: N_13  and  O_16
REMARK    4  A    between atoms: O_16  and  C_17
REMARK    5  A    between atoms: C_18  and  O_19
REMARK    6  A    between atoms: N_21  and  C_25
REMARK                            x       y       z     vdW  Elec       q    Type
REMARK                         _______ _______ _______ _____ _____    ______ ____
ROOT
ATOM      1  F   UNL     1       9.408  -8.575  12.176  0.00  0.00    +0.000 F 
ATOM      2  N   UNL     1       6.229  -6.894   9.438  0.00  0.00    +0.000 N 
ATOM      3  N   UNL     1       8.267  -6.660  10.251  0.00  0.00    +0.000 NA
ATOM      4  C   UNL     1       6.396  -7.974  10.256  0.00  0.00    +0.000 A 
ATOM      5  C   UNL     1       7.685  -7.810  10.753  0.00  0.00    +0.000 A 
ATOM      6  C   UNL     1       7.413  -9.889  12.035  0.00  0.00    +0.000 A 
ATOM      7  C   UNL     1       6.098 -10.002  11.510  0.00  0.00    +0.000 A 
ATOM      8  C   UNL     1       5.579  -9.047  10.617  0.00  0.00    +0.000 A 
ATOM      9  C   UNL     1       8.190  -8.772  11.648  0.00  0.00    +0.000 A 
ATOM     10  C   UNL     1       7.357  -6.131   9.455  0.00  0.00    +0.000 A 
ATOM     11  C   UNL     1       5.064  -6.612   8.666  0.00  0.00    +0.000 C 
ENDROOT
BRANCH   7  14
ATOM     12  O   UNL     1       5.492 -12.281  11.603  0.00  0.00    +0.000 OA
ATOM     13  N   UNL     1       4.057 -10.787  12.612  0.00  0.00    +0.000 N 
ATOM     14  C   UNL     1       5.195 -11.129  11.909  0.00  0.00    +0.000 C 
ATOM     15  H   UNL     1       3.646  -9.864  12.546  0.00  0.00    +0.000 HD
BRANCH  13  16
ATOM     16  O   UNL     1       3.114 -11.832  12.712  0.00  0.00    +0.000 OA
BRANCH  16  17
ATOM     17  C   UNL     1       2.685 -11.828  13.973  0.00  0.00    +0.000 C 
ATOM     18  C   UNL     1       2.186 -11.836  15.422  0.00  0.00    +0.000 C 
BRANCH  18  19
ATOM     19  O   UNL     1       1.751 -11.850  16.677  0.00  0.00    +0.000 OA
ATOM     20  H   UNL     1       1.989 -12.690  17.105  0.00  0.00    +0.000 HD
ENDBRANCH  18  19
ENDBRANCH  16  17
ENDBRANCH  13  16
ENDBRANCH   7  14
BRANCH   6  21
ATOM     21  N   UNL     1       7.929 -10.890  12.898  0.00  0.00    +0.000 N 
ATOM     22  H   UNL     1       7.338 -11.055  13.728  0.00  0.00    +0.000 HD
BRANCH  21  25
ATOM     23 BR   UNL     1      11.674 -15.632  12.075  0.00  0.00    +0.000 Br
ATOM     24  F   UNL     1       7.351 -13.403  13.875  0.00  0.00    +0.000 F 
ATOM     25  C   UNL     1       8.799 -11.973  12.655  0.00  0.00    +0.000 A 
ATOM     26  C   UNL     1       8.493 -13.237  13.188  0.00  0.00    +0.000 A 
ATOM     27  C   UNL     1      10.006 -11.842  11.965  0.00  0.00    +0.000 A 
ATOM     28  C   UNL     1       9.336 -14.332  13.021  0.00  0.00    +0.000 A 
ATOM     29  C   UNL     1      10.863 -12.927  11.787  0.00  0.00    +0.000 A 
ATOM     30  C   UNL     1      10.519 -14.165  12.317  0.00  0.00    +0.000 A 
ENDBRANCH  21  25
ENDBRANCH   6  21
TORSDOF 6
ENDMDL
MODEL 6
REMARK VINA RESULT:      -4.9     17.995     20.098
REMARK  Name = 10288191_Binimetinib.pdbqt.pdb
REMARK  6 active torsions:
REMARK  status: ('A' for Active; 'I' for Inactive)
REMARK    1  A    between atoms: C_6  and  N_21
REMARK    2  A    between atoms: C_7  and  C_14
REMARK    3  A    between atoms: N_13  and  O_16
REMARK    4  A    between atoms: O_16  and  C_17
REMARK    5  A    between atoms: C_18  and  O_19
REMARK    6  A    between atoms: N_21  and  C_25
REMARK                            x       y       z     vdW  Elec       q    Type
REMARK                         _______ _______ _______ _____ _____    ______ ____
ROOT
ATOM      1  F   UNL     1      -7.544   7.743  10.081  0.00  0.00    +0.000 F 
ATOM      2  N   UNL     1      -5.900  11.583  11.807  0.00  0.00    +0.000 N 
ATOM      3  N   UNL     1      -7.270   9.877  12.092  0.00  0.00    +0.000 NA
ATOM      4  C   UNL     1      -5.723  10.814  10.694  0.00  0.00    +0.000 A 
ATOM      5  C   UNL     1      -6.590   9.744  10.895  0.00  0.00    +0.000 A 
ATOM      6  C   UNL     1      -5.862   8.800   8.746  0.00  0.00    +0.000 A 
ATOM      7  C   UNL     1      -5.004   9.920   8.582  0.00  0.00    +0.000 A 
ATOM      8  C   UNL     1      -4.927  10.935   9.553  0.00  0.00    +0.000 A 
ATOM      9  C   UNL     1      -6.658   8.737   9.913  0.00  0.00    +0.000 A 
ATOM     10  C   UNL     1      -6.825  11.002  12.620  0.00  0.00    +0.000 A 
ATOM     11  C   UNL     1      -5.211  12.799  12.092  0.00  0.00    +0.000 C 
ENDROOT
BRANCH   7  14
ATOM     12  O   UNL     1      -4.709  10.322   6.275  0.00  0.00    +0.000 OA
ATOM     13  N   UNL     1      -2.801   9.952   7.514  0.00  0.00    +0.000 N 
ATOM     14  C   UNL     1      -4.166  10.084   7.351  0.00  0.00    +0.000 C 
ATOM     15  H   UNL     1      -2.403   9.421   8.278  0.00  0.00    +0.000 HD
BRANCH  13  16
ATOM     16  O   UNL     1      -2.092   9.833   6.299  0.00  0.00    +0.000 OA
BRANCH  16  17
ATOM     17  C   UNL     1      -0.949   9.216   6.594  0.00  0.00    +0.000 C 
ATOM     18  C   UNL     1       0.359   8.495   6.938  0.00  0.00    +0.000 C 
BRANCH  18  19
ATOM     19  O   UNL     1       1.489   7.864   7.238  0.00  0.00    +0.000 OA
ATOM     20  H   UNL     1       1.686   7.192   6.563  0.00  0.00    +0.000 HD
ENDBRANCH  18  19
ENDBRANCH  16  17
ENDBRANCH  13  16
ENDBRANCH   7  14
BRANCH   6  21
ATOM     21  N   UNL     1      -5.887   7.768   7.774  0.00  0.00    +0.000 N 
ATOM     22  H   UNL     1      -5.155   7.055   7.918  0.00  0.00    +0.000 HD
BRANCH  21  25
ATOM     23 BR   UNL     1     -10.227   5.562   4.101  0.00  0.00    +0.000 Br
ATOM     24  F   UNL     1      -6.003   5.103   7.073  0.00  0.00    +0.000 F 
ATOM     25  C   UNL     1      -6.928   7.284   6.954  0.00  0.00    +0.000 A 
ATOM     26  C   UNL     1      -6.947   5.927   6.590  0.00  0.00    +0.000 A 
ATOM     27  C   UNL     1      -7.917   8.107   6.412  0.00  0.00    +0.000 A 
ATOM     28  C   UNL     1      -7.921   5.402   5.747  0.00  0.00    +0.000 A 
ATOM     29  C   UNL     1      -8.903   7.600   5.566  0.00  0.00    +0.000 A 
ATOM     30  C   UNL     1      -8.896   6.249   5.241  0.00  0.00    +0.000 A 
ENDBRANCH  21  25
ENDBRANCH   6  21
TORSDOF 6
ENDMDL
MODEL 7
REMARK VINA RESULT:      -4.9     24.768     27.069
REMARK  Name = 10288191_Binimetinib.pdbqt.pdb
REMARK  6 active torsions:
REMARK  status: ('A' for Active; 'I' for Inactive)
REMARK    1  A    between atoms: C_6  and  N_21
REMARK    2  A    between atoms: C_7  and  C_14
REMARK    3  A    between atoms: N_13  and  O_16
REMARK    4  A    between atoms: O_16  and  C_17
REMARK    5  A    between atoms: C_18  and  O_19
REMARK    6  A    between atoms: N_21  and  C_25
REMARK                            x       y       z     vdW  Elec       q    Type
REMARK                         _______ _______ _______ _____ _____    ______ ____
ROOT
ATOM      1  F   UNL     1      -8.711  -8.876  29.986  0.00  0.00    +0.000 F 
ATOM      2  N   UNL     1      -4.309  -7.926  29.600  0.00  0.00    +0.000 N 
ATOM      3  N   UNL     1      -5.837  -9.219  30.530  0.00  0.00    +0.000 NA
ATOM      4  C   UNL     1      -5.492  -7.480  29.086  0.00  0.00    +0.000 A 
ATOM      5  C   UNL     1      -6.439  -8.309  29.680  0.00  0.00    +0.000 A 
ATOM      6  C   UNL     1      -8.200  -7.111  28.452  0.00  0.00    +0.000 A 
ATOM      7  C   UNL     1      -7.195  -6.283  27.885  0.00  0.00    +0.000 A 
ATOM      8  C   UNL     1      -5.835  -6.460  28.196  0.00  0.00    +0.000 A 
ATOM      9  C   UNL     1      -7.797  -8.118  29.361  0.00  0.00    +0.000 A 
ATOM     10  C   UNL     1      -4.545  -8.960  30.455  0.00  0.00    +0.000 A 
ATOM     11  C   UNL     1      -3.020  -7.409  29.280  0.00  0.00    +0.000 C 
ENDROOT
BRANCH   7  14
ATOM     12  O   UNL     1      -8.287  -5.380  25.998  0.00  0.00    +0.000 OA
ATOM     13  N   UNL     1      -6.991  -3.931  27.235  0.00  0.00    +0.000 N 
ATOM     14  C   UNL     1      -7.545  -5.164  26.952  0.00  0.00    +0.000 C 
ATOM     15  H   UNL     1      -6.136  -3.839  27.769  0.00  0.00    +0.000 HD
BRANCH  13  16
ATOM     16  O   UNL     1      -7.117  -2.996  26.185  0.00  0.00    +0.000 OA
BRANCH  16  17
ATOM     17  C   UNL     1      -6.653  -1.841  26.657  0.00  0.00    +0.000 C 
ATOM     18  C   UNL     1      -6.107  -0.513  27.193  0.00  0.00    +0.000 C 
BRANCH  18  19
ATOM     19  O   UNL     1      -5.627   0.638  27.651  0.00  0.00    +0.000 OA
ATOM     20  H   UNL     1      -5.671   1.319  26.959  0.00  0.00    +0.000 HD
ENDBRANCH  18  19
ENDBRANCH  16  17
ENDBRANCH  13  16
ENDBRANCH   7  14
BRANCH   6  21
ATOM     21  N   UNL     1      -9.560  -6.942  28.087  0.00  0.00    +0.000 N 
ATOM     22  H   UNL     1      -9.776  -5.989  27.756  0.00  0.00    +0.000 HD
BRANCH  21  25
ATOM     23 BR   UNL     1     -13.789 -10.849  26.076  0.00  0.00    +0.000 Br
ATOM     24  F   UNL     1      -9.358  -8.192  25.636  0.00  0.00    +0.000 F 
ATOM     25  C   UNL     1     -10.536  -7.871  27.670  0.00  0.00    +0.000 A 
ATOM     26  C   UNL     1     -10.423  -8.472  26.405  0.00  0.00    +0.000 A 
ATOM     27  C   UNL     1     -11.670  -8.176  28.426  0.00  0.00    +0.000 A 
ATOM     28  C   UNL     1     -11.379  -9.359  25.921  0.00  0.00    +0.000 A 
ATOM     29  C   UNL     1     -12.639  -9.063  27.959  0.00  0.00    +0.000 A 
ATOM     30  C   UNL     1     -12.484  -9.649  26.708  0.00  0.00    +0.000 A 
ENDBRANCH  21  25
ENDBRANCH   6  21
TORSDOF 6
ENDMDL
MODEL 8
REMARK VINA RESULT:      -4.8     10.306     13.610
REMARK  Name = 10288191_Binimetinib.pdbqt.pdb
REMARK  6 active torsions:
REMARK  status: ('A' for Active; 'I' for Inactive)
REMARK    1  A    between atoms: C_6  and  N_21
REMARK    2  A    between atoms: C_7  and  C_14
REMARK    3  A    between atoms: N_13  and  O_16
REMARK    4  A    between atoms: O_16  and  C_17
REMARK    5  A    between atoms: C_18  and  O_19
REMARK    6  A    between atoms: N_21  and  C_25
REMARK                            x       y       z     vdW  Elec       q    Type
REMARK                         _______ _______ _______ _____ _____    ______ ____
ROOT
ATOM      1  F   UNL     1      -3.597  -0.838  -2.710  0.00  0.00    +0.000 F 
ATOM      2  N   UNL     1      -4.933  -4.125   0.090  0.00  0.00    +0.000 N 
ATOM      3  N   UNL     1      -4.932  -1.960  -0.337  0.00  0.00    +0.000 NA
ATOM      4  C   UNL     1      -4.252  -4.010  -1.087  0.00  0.00    +0.000 A 
ATOM      5  C   UNL     1      -4.266  -2.641  -1.340  0.00  0.00    +0.000 A 
ATOM      6  C   UNL     1      -3.006  -3.050  -3.410  0.00  0.00    +0.000 A 
ATOM      7  C   UNL     1      -3.006  -4.435  -3.098  0.00  0.00    +0.000 A 
ATOM      8  C   UNL     1      -3.629  -4.927  -1.935  0.00  0.00    +0.000 A 
ATOM      9  C   UNL     1      -3.637  -2.164  -2.505  0.00  0.00    +0.000 A 
ATOM     10  C   UNL     1      -5.324  -2.891   0.512  0.00  0.00    +0.000 A 
ATOM     11  C   UNL     1      -5.213  -5.347   0.769  0.00  0.00    +0.000 C 
ENDROOT
BRANCH   7  14
ATOM     12  O   UNL     1      -2.557  -5.443  -5.184  0.00  0.00    +0.000 OA
ATOM     13  N   UNL     1      -1.436  -6.295  -3.361  0.00  0.00    +0.000 N 
ATOM     14  C   UNL     1      -2.317  -5.431  -3.979  0.00  0.00    +0.000 C 
ATOM     15  H   UNL     1      -1.511  -6.521  -2.377  0.00  0.00    +0.000 HD
BRANCH  13  16
ATOM     16  O   UNL     1      -1.038  -7.380  -4.171  0.00  0.00    +0.000 OA
BRANCH  16  17
ATOM     17  C   UNL     1      -0.152  -8.073  -3.458  0.00  0.00    +0.000 C 
ATOM     18  C   UNL     1       0.877  -8.866  -2.646  0.00  0.00    +0.000 C 
BRANCH  18  19
ATOM     19  O   UNL     1       1.775  -9.550  -1.945  0.00  0.00    +0.000 OA
ATOM     20  H   UNL     1       1.496 -10.477  -1.857  0.00  0.00    +0.000 HD
ENDBRANCH  18  19
ENDBRANCH  16  17
ENDBRANCH  13  16
ENDBRANCH   7  14
BRANCH   6  21
ATOM     21  N   UNL     1      -2.411  -2.585  -4.611  0.00  0.00    +0.000 N 
ATOM     22  H   UNL     1      -3.057  -2.596  -5.415  0.00  0.00    +0.000 HD
BRANCH  21  25
ATOM     23 BR   UNL     1       2.431   1.039  -5.393  0.00  0.00    +0.000 Br
ATOM     24  F   UNL     1       0.174  -3.523  -4.403  0.00  0.00    +0.000 F 
ATOM     25  C   UNL     1      -1.314  -1.728  -4.837  0.00  0.00    +0.000 A 
ATOM     26  C   UNL     1      -0.008  -2.226  -4.698  0.00  0.00    +0.000 A 
ATOM     27  C   UNL     1      -1.456  -0.368  -5.124  0.00  0.00    +0.000 A 
ATOM     28  C   UNL     1       1.112  -1.417  -4.862  0.00  0.00    +0.000 A 
ATOM     29  C   UNL     1      -0.346   0.458  -5.294  0.00  0.00    +0.000 A 
ATOM     30  C   UNL     1       0.931  -0.074  -5.162  0.00  0.00    +0.000 A 
ENDBRANCH  21  25
ENDBRANCH   6  21
TORSDOF 6
ENDMDL
MODEL 9
REMARK VINA RESULT:      -4.8     20.839     22.833
REMARK  Name = 10288191_Binimetinib.pdbqt.pdb
REMARK  6 active torsions:
REMARK  status: ('A' for Active; 'I' for Inactive)
REMARK    1  A    between atoms: C_6  and  N_21
REMARK    2  A    between atoms: C_7  and  C_14
REMARK    3  A    between atoms: N_13  and  O_16
REMARK    4  A    between atoms: O_16  and  C_17
REMARK    5  A    between atoms: C_18  and  O_19
REMARK    6  A    between atoms: N_21  and  C_25
REMARK                            x       y       z     vdW  Elec       q    Type
REMARK                         _______ _______ _______ _____ _____    ______ ____
ROOT
ATOM      1  F   UNL     1       9.601  -9.069  10.088  0.00  0.00    +0.000 F 
ATOM      2  N   UNL     1       6.719  -5.589   9.956  0.00  0.00    +0.000 N 
ATOM      3  N   UNL     1       8.313  -6.698   8.907  0.00  0.00    +0.000 NA
ATOM      4  C   UNL     1       7.030  -6.617  10.798  0.00  0.00    +0.000 A 
ATOM      5  C   UNL     1       8.031  -7.304  10.118  0.00  0.00    +0.000 A 
ATOM      6  C   UNL     1       8.147  -8.902  11.982  0.00  0.00    +0.000 A 
ATOM      7  C   UNL     1       7.134  -8.156  12.641  0.00  0.00    +0.000 A 
ATOM      8  C   UNL     1       6.567  -7.009  12.056  0.00  0.00    +0.000 A 
ATOM      9  C   UNL     1       8.591  -8.449  10.717  0.00  0.00    +0.000 A 
ATOM     10  C   UNL     1       7.497  -5.662   8.841  0.00  0.00    +0.000 A 
ATOM     11  C   UNL     1       5.720  -4.599  10.192  0.00  0.00    +0.000 C 
ENDROOT
BRANCH   7  14
ATOM     12  O   UNL     1       7.262  -8.169  14.997  0.00  0.00    +0.000 OA
ATOM     13  N   UNL     1       5.503  -9.316  14.051  0.00  0.00    +0.000 N 
ATOM     14  C   UNL     1       6.645  -8.543  14.003  0.00  0.00    +0.000 C 
ATOM     15  H   UNL     1       5.220  -9.901  13.275  0.00  0.00    +0.000 HD
BRANCH  13  16
ATOM     16  O   UNL     1       5.251  -9.883  15.320  0.00  0.00    +0.000 OA
BRANCH  16  17
ATOM     17  C   UNL     1       4.382 -10.872  15.121  0.00  0.00    +0.000 C 
ATOM     18  C   UNL     1       3.386 -12.011  14.879  0.00  0.00    +0.000 C 
BRANCH  18  19
ATOM     19  O   UNL     1       2.526 -13.000  14.661  0.00  0.00    +0.000 OA
ATOM     20  H   UNL     1       2.165 -12.938  13.761  0.00  0.00    +0.000 HD
ENDBRANCH  18  19
ENDBRANCH  16  17
ENDBRANCH  13  16
ENDBRANCH   7  14
BRANCH   6  21
ATOM     21  N   UNL     1       8.670 -10.080  12.574  0.00  0.00    +0.000 N 
ATOM     22  H   UNL     1       8.781 -10.007  13.597  0.00  0.00    +0.000 HD
BRANCH  21  25
ATOM     23 BR   UNL     1       8.394 -15.930  10.873  0.00  0.00    +0.000 Br
ATOM     24  F   UNL     1       6.315 -11.264  11.763  0.00  0.00    +0.000 F 
ATOM     25  C   UNL     1       8.650 -11.425  12.148  0.00  0.00    +0.000 A 
ATOM     26  C   UNL     1       7.431 -12.011  11.767  0.00  0.00    +0.000 A 
ATOM     27  C   UNL     1       9.781 -12.244  12.157  0.00  0.00    +0.000 A 
ATOM     28  C   UNL     1       7.341 -13.345  11.384  0.00  0.00    +0.000 A 
ATOM     29  C   UNL     1       9.712 -13.584  11.775  0.00  0.00    +0.000 A 
ATOM     30  C   UNL     1       8.490 -14.123  11.391  0.00  0.00    +0.000 A 
ENDBRANCH  21  25
ENDBRANCH   6  21
TORSDOF 6
ENDMDL
