MODEL 1
REMARK VINA RESULT:      -5.9      0.000      0.000
REMARK  Name = 10639_Physcion.pdbqt.pdb
REMARK  3 active torsions:
REMARK  status: ('A' for Active; 'I' for Inactive)
REMARK    1  A    between atoms: C_10  and  O_18
REMARK    2  A    between atoms: C_12  and  O_20
REMARK    3  A    between atoms: C_15  and  O_22
REMARK                            x       y       z     vdW  Elec       q    Type
REMARK                         _______ _______ _______ _____ _____    ______ ____
ROOT
ATOM      1  O   UNL     1      -5.032  -3.866   1.272  0.00  0.00    +0.000 OA
ATOM      2  O   UNL     1      -5.775  -7.550  -2.504  0.00  0.00    +0.000 OA
ATOM      3  C   UNL     1      -5.362  -5.310  -1.978  0.00  0.00    +0.000 A 
ATOM      4  C   UNL     1      -5.169  -4.354  -0.984  0.00  0.00    +0.000 A 
ATOM      5  C   UNL     1      -5.456  -6.167   0.806  0.00  0.00    +0.000 A 
ATOM      6  C   UNL     1      -5.646  -7.104  -0.210  0.00  0.00    +0.000 A 
ATOM      7  C   UNL     1      -5.209  -4.749   0.441  0.00  0.00    +0.000 C 
ATOM      8  C   UNL     1      -5.606  -6.713  -1.627  0.00  0.00    +0.000 C 
ATOM      9  C   UNL     1      -5.327  -4.955  -3.328  0.00  0.00    +0.000 A 
ATOM     10  C   UNL     1      -4.938  -3.024  -1.364  0.00  0.00    +0.000 A 
ATOM     11  C   UNL     1      -5.097  -3.632  -3.688  0.00  0.00    +0.000 A 
ATOM     12  C   UNL     1      -5.508  -6.611   2.134  0.00  0.00    +0.000 A 
ATOM     13  C   UNL     1      -5.882  -8.451   0.085  0.00  0.00    +0.000 A 
ATOM     14  C   UNL     1      -4.902  -2.662  -2.711  0.00  0.00    +0.000 A 
ATOM     15  C   UNL     1      -5.932  -8.885   1.406  0.00  0.00    +0.000 A 
ATOM     16  C   UNL     1      -5.743  -7.956   2.427  0.00  0.00    +0.000 A 
ATOM     17  C   UNL     1      -5.060  -3.253  -5.138  0.00  0.00    +0.000 C 
ENDROOT
BRANCH  10  18
ATOM     18  O   UNL     1      -4.737  -2.014  -0.461  0.00  0.00    +0.000 OA
ATOM     19  H   UNL     1      -4.430  -2.405   0.391  0.00  0.00    +0.000 HD
ENDBRANCH  10  18
BRANCH  12  20
ATOM     20  O   UNL     1      -5.331  -5.754   3.181  0.00  0.00    +0.000 OA
ATOM     21  H   UNL     1      -5.264  -4.839   2.854  0.00  0.00    +0.000 HD
ENDBRANCH  12  20
BRANCH  15  22
ATOM     22  O   UNL     1      -6.168 -10.225   1.590  0.00  0.00    +0.000 OA
ATOM     23  C   UNL     1      -6.179 -10.992   0.417  0.00  0.00    +0.000 C 
ENDBRANCH  15  22
TORSDOF 3
ENDMDL
MODEL 2
REMARK VINA RESULT:      -5.6     27.143     29.252
REMARK  Name = 10639_Physcion.pdbqt.pdb
REMARK  3 active torsions:
REMARK  status: ('A' for Active; 'I' for Inactive)
REMARK    1  A    between atoms: C_10  and  O_18
REMARK    2  A    between atoms: C_12  and  O_20
REMARK    3  A    between atoms: C_15  and  O_22
REMARK                            x       y       z     vdW  Elec       q    Type
REMARK                         _______ _______ _______ _____ _____    ______ ____
ROOT
ATOM      1  O   UNL     1     -12.856 -10.137  26.026  0.00  0.00    +0.000 OA
ATOM      2  O   UNL     1     -12.939  -5.468  28.592  0.00  0.00    +0.000 OA
ATOM      3  C   UNL     1     -14.109  -7.374  27.911  0.00  0.00    +0.000 A 
ATOM      4  C   UNL     1     -14.078  -8.593  27.238  0.00  0.00    +0.000 A 
ATOM      5  C   UNL     1     -11.602  -8.217  26.688  0.00  0.00    +0.000 A 
ATOM      6  C   UNL     1     -11.662  -7.000  27.368  0.00  0.00    +0.000 A 
ATOM      7  C   UNL     1     -12.825  -9.056  26.604  0.00  0.00    +0.000 C 
ATOM      8  C   UNL     1     -12.907  -6.538  28.000  0.00  0.00    +0.000 C 
ATOM      9  C   UNL     1     -15.284  -6.921  28.516  0.00  0.00    +0.000 A 
ATOM     10  C   UNL     1     -15.250  -9.360  27.178  0.00  0.00    +0.000 A 
ATOM     11  C   UNL     1     -16.438  -7.694  28.448  0.00  0.00    +0.000 A 
ATOM     12  C   UNL     1     -10.382  -8.593  26.110  0.00  0.00    +0.000 A 
ATOM     13  C   UNL     1     -10.536  -6.176  27.473  0.00  0.00    +0.000 A 
ATOM     14  C   UNL     1     -16.427  -8.914  27.780  0.00  0.00    +0.000 A 
ATOM     15  C   UNL     1      -9.328  -6.556  26.898  0.00  0.00    +0.000 A 
ATOM     16  C   UNL     1      -9.259  -7.770  26.216  0.00  0.00    +0.000 A 
ATOM     17  C   UNL     1     -17.698  -7.205  29.098  0.00  0.00    +0.000 C 
ENDROOT
BRANCH  10  18
ATOM     18  O   UNL     1     -15.319 -10.569  26.541  0.00  0.00    +0.000 OA
ATOM     19  H   UNL     1     -14.923 -11.260  27.124  0.00  0.00    +0.000 HD
ENDBRANCH  10  18
BRANCH  12  20
ATOM     20  O   UNL     1     -10.247  -9.768  25.430  0.00  0.00    +0.000 OA
ATOM     21  H   UNL     1     -10.097  -9.590  24.484  0.00  0.00    +0.000 HD
ENDBRANCH  12  20
BRANCH  15  22
ATOM     22  O   UNL     1      -8.285  -5.679  27.057  0.00  0.00    +0.000 OA
ATOM     23  C   UNL     1      -7.038  -6.156  26.629  0.00  0.00    +0.000 C 
ENDBRANCH  15  22
TORSDOF 3
ENDMDL
MODEL 3
REMARK VINA RESULT:      -5.6      2.086      2.515
REMARK  Name = 10639_Physcion.pdbqt.pdb
REMARK  3 active torsions:
REMARK  status: ('A' for Active; 'I' for Inactive)
REMARK    1  A    between atoms: C_10  and  O_18
REMARK    2  A    between atoms: C_12  and  O_20
REMARK    3  A    between atoms: C_15  and  O_22
REMARK                            x       y       z     vdW  Elec       q    Type
REMARK                         _______ _______ _______ _____ _____    ______ ____
ROOT
ATOM      1  O   UNL     1      -5.122  -3.686   0.377  0.00  0.00    +0.000 OA
ATOM      2  O   UNL     1      -2.963  -6.004  -3.906  0.00  0.00    +0.000 OA
ATOM      3  C   UNL     1      -3.465  -4.025  -2.768  0.00  0.00    +0.000 A 
ATOM      4  C   UNL     1      -4.032  -3.427  -1.645  0.00  0.00    +0.000 A 
ATOM      5  C   UNL     1      -4.642  -5.744  -0.731  0.00  0.00    +0.000 A 
ATOM      6  C   UNL     1      -4.066  -6.315  -1.866  0.00  0.00    +0.000 A 
ATOM      7  C   UNL     1      -4.639  -4.265  -0.589  0.00  0.00    +0.000 C 
ATOM      8  C   UNL     1      -3.462  -5.484  -2.918  0.00  0.00    +0.000 C 
ATOM      9  C   UNL     1      -2.887  -3.248  -3.775  0.00  0.00    +0.000 A 
ATOM     10  C   UNL     1      -4.012  -2.029  -1.543  0.00  0.00    +0.000 A 
ATOM     11  C   UNL     1      -2.876  -1.863  -3.659  0.00  0.00    +0.000 A 
ATOM     12  C   UNL     1      -5.199  -6.598   0.230  0.00  0.00    +0.000 A 
ATOM     13  C   UNL     1      -4.045  -7.703  -2.044  0.00  0.00    +0.000 A 
ATOM     14  C   UNL     1      -3.437  -1.248  -2.545  0.00  0.00    +0.000 A 
ATOM     15  C   UNL     1      -4.600  -8.545  -1.086  0.00  0.00    +0.000 A 
ATOM     16  C   UNL     1      -5.177  -7.983   0.051  0.00  0.00    +0.000 A 
ATOM     17  C   UNL     1      -2.255  -1.032  -4.742  0.00  0.00    +0.000 C 
ENDROOT
BRANCH  10  18
ATOM     18  O   UNL     1      -4.544  -1.351  -0.479  0.00  0.00    +0.000 OA
ATOM     19  H   UNL     1      -5.476  -1.108  -0.689  0.00  0.00    +0.000 HD
ENDBRANCH  10  18
BRANCH  12  20
ATOM     20  O   UNL     1      -5.779  -6.113   1.366  0.00  0.00    +0.000 OA
ATOM     21  H   UNL     1      -5.710  -5.141   1.386  0.00  0.00    +0.000 HD
ENDBRANCH  12  20
BRANCH  15  22
ATOM     22  O   UNL     1      -4.529  -9.889  -1.353  0.00  0.00    +0.000 OA
ATOM     23  C   UNL     1      -3.711 -10.236  -2.438  0.00  0.00    +0.000 C 
ENDBRANCH  15  22
TORSDOF 3
ENDMDL
MODEL 4
REMARK VINA RESULT:      -5.6     14.717     17.648
REMARK  Name = 10639_Physcion.pdbqt.pdb
REMARK  3 active torsions:
REMARK  status: ('A' for Active; 'I' for Inactive)
REMARK    1  A    between atoms: C_10  and  O_18
REMARK    2  A    between atoms: C_12  and  O_20
REMARK    3  A    between atoms: C_15  and  O_22
REMARK                            x       y       z     vdW  Elec       q    Type
REMARK                         _______ _______ _______ _____ _____    ______ ____
ROOT
ATOM      1  O   UNL     1     -14.864 -14.630   9.134  0.00  0.00    +0.000 OA
ATOM      2  O   UNL     1     -11.739 -16.590  12.978  0.00  0.00    +0.000 OA
ATOM      3  C   UNL     1     -13.797 -15.652  12.385  0.00  0.00    +0.000 A 
ATOM      4  C   UNL     1     -14.606 -15.141  11.374  0.00  0.00    +0.000 A 
ATOM      5  C   UNL     1     -12.742 -15.582   9.669  0.00  0.00    +0.000 A 
ATOM      6  C   UNL     1     -11.953 -16.089  10.703  0.00  0.00    +0.000 A 
ATOM      7  C   UNL     1     -14.108 -15.089   9.983  0.00  0.00    +0.000 C 
ATOM      8  C   UNL     1     -12.447 -16.142  12.087  0.00  0.00    +0.000 C 
ATOM      9  C   UNL     1     -14.251 -15.709  13.705  0.00  0.00    +0.000 A 
ATOM     10  C   UNL     1     -15.890 -14.684  11.704  0.00  0.00    +0.000 A 
ATOM     11  C   UNL     1     -15.527 -15.251  14.016  0.00  0.00    +0.000 A 
ATOM     12  C   UNL     1     -12.206 -15.563   8.375  0.00  0.00    +0.000 A 
ATOM     13  C   UNL     1     -10.661 -16.565  10.456  0.00  0.00    +0.000 A 
ATOM     14  C   UNL     1     -16.351 -14.738  13.020  0.00  0.00    +0.000 A 
ATOM     15  C   UNL     1     -10.135 -16.543   9.168  0.00  0.00    +0.000 A 
ATOM     16  C   UNL     1     -10.916 -16.039   8.131  0.00  0.00    +0.000 A 
ATOM     17  C   UNL     1     -16.012 -15.314  15.433  0.00  0.00    +0.000 C 
ENDROOT
BRANCH  10  18
ATOM     18  O   UNL     1     -16.758 -14.166  10.781  0.00  0.00    +0.000 OA
ATOM     19  H   UNL     1     -17.556 -14.743  10.735  0.00  0.00    +0.000 HD
ENDBRANCH  10  18
BRANCH  12  20
ATOM     20  O   UNL     1     -12.918 -15.082   7.315  0.00  0.00    +0.000 OA
ATOM     21  H   UNL     1     -12.314 -14.836   6.592  0.00  0.00    +0.000 HD
ENDBRANCH  12  20
BRANCH  15  22
ATOM     22  O   UNL     1      -8.860 -17.032   9.031  0.00  0.00    +0.000 OA
ATOM     23  C   UNL     1      -8.695 -17.984   8.015  0.00  0.00    +0.000 C 
ENDBRANCH  15  22
TORSDOF 3
ENDMDL
MODEL 5
REMARK VINA RESULT:      -5.5     17.401     17.839
REMARK  Name = 10639_Physcion.pdbqt.pdb
REMARK  3 active torsions:
REMARK  status: ('A' for Active; 'I' for Inactive)
REMARK    1  A    between atoms: C_10  and  O_18
REMARK    2  A    between atoms: C_12  and  O_20
REMARK    3  A    between atoms: C_15  and  O_22
REMARK                            x       y       z     vdW  Elec       q    Type
REMARK                         _______ _______ _______ _____ _____    ______ ____
ROOT
ATOM      1  O   UNL     1       7.209 -11.760  10.593  0.00  0.00    +0.000 OA
ATOM      2  O   UNL     1       3.158 -10.800  13.917  0.00  0.00    +0.000 OA
ATOM      3  C   UNL     1       4.952  -9.948  12.686  0.00  0.00    +0.000 A 
ATOM      4  C   UNL     1       6.009 -10.208  11.817  0.00  0.00    +0.000 A 
ATOM      5  C   UNL     1       5.394 -12.697  11.826  0.00  0.00    +0.000 A 
ATOM      6  C   UNL     1       4.342 -12.407  12.696  0.00  0.00    +0.000 A 
ATOM      7  C   UNL     1       6.267 -11.589  11.358  0.00  0.00    +0.000 C 
ATOM      8  C   UNL     1       4.085 -11.034  13.154  0.00  0.00    +0.000 C 
ATOM      9  C   UNL     1       4.695  -8.649  13.129  0.00  0.00    +0.000 A 
ATOM     10  C   UNL     1       6.813  -9.139  11.395  0.00  0.00    +0.000 A 
ATOM     11  C   UNL     1       5.502  -7.600  12.701  0.00  0.00    +0.000 A 
ATOM     12  C   UNL     1       5.579 -14.028  11.432  0.00  0.00    +0.000 A 
ATOM     13  C   UNL     1       3.494 -13.417  13.164  0.00  0.00    +0.000 A 
ATOM     14  C   UNL     1       6.562  -7.839  11.834  0.00  0.00    +0.000 A 
ATOM     15  C   UNL     1       3.684 -14.737  12.768  0.00  0.00    +0.000 A 
ATOM     16  C   UNL     1       4.732 -15.035  11.899  0.00  0.00    +0.000 A 
ATOM     17  C   UNL     1       5.223  -6.206  13.179  0.00  0.00    +0.000 C 
ENDROOT
BRANCH  10  18
ATOM     18  O   UNL     1       7.874  -9.295  10.543  0.00  0.00    +0.000 OA
ATOM     19  H   UNL     1       8.542  -8.595  10.735  0.00  0.00    +0.000 HD
ENDBRANCH  10  18
BRANCH  12  20
ATOM     20  O   UNL     1       6.586 -14.388  10.583  0.00  0.00    +0.000 OA
ATOM     21  H   UNL     1       6.214 -14.744   9.757  0.00  0.00    +0.000 HD
ENDBRANCH  12  20
BRANCH  15  22
ATOM     22  O   UNL     1       2.799 -15.652  13.282  0.00  0.00    +0.000 OA
ATOM     23  C   UNL     1       2.872 -15.833  14.670  0.00  0.00    +0.000 C 
ENDBRANCH  15  22
TORSDOF 3
ENDMDL
MODEL 6
REMARK VINA RESULT:      -5.4      2.689      5.731
REMARK  Name = 10639_Physcion.pdbqt.pdb
REMARK  3 active torsions:
REMARK  status: ('A' for Active; 'I' for Inactive)
REMARK    1  A    between atoms: C_10  and  O_18
REMARK    2  A    between atoms: C_12  and  O_20
REMARK    3  A    between atoms: C_15  and  O_22
REMARK                            x       y       z     vdW  Elec       q    Type
REMARK                         _______ _______ _______ _____ _____    ______ ____
ROOT
ATOM      1  O   UNL     1      -2.729  -3.518  -3.374  0.00  0.00    +0.000 OA
ATOM      2  O   UNL     1      -5.391  -6.126   0.434  0.00  0.00    +0.000 OA
ATOM      3  C   UNL     1      -4.003  -6.240  -1.443  0.00  0.00    +0.000 A 
ATOM      4  C   UNL     1      -3.310  -5.550  -2.435  0.00  0.00    +0.000 A 
ATOM      5  C   UNL     1      -4.148  -3.329  -1.464  0.00  0.00    +0.000 A 
ATOM      6  C   UNL     1      -4.832  -4.046  -0.482  0.00  0.00    +0.000 A 
ATOM      7  C   UNL     1      -3.358  -4.073  -2.480  0.00  0.00    +0.000 C 
ATOM      8  C   UNL     1      -4.785  -5.515  -0.435  0.00  0.00    +0.000 C 
ATOM      9  C   UNL     1      -3.968  -7.635  -1.385  0.00  0.00    +0.000 A 
ATOM     10  C   UNL     1      -2.575  -6.283  -3.377  0.00  0.00    +0.000 A 
ATOM     11  C   UNL     1      -3.234  -8.347  -2.328  0.00  0.00    +0.000 A 
ATOM     12  C   UNL     1      -4.238  -1.931  -1.447  0.00  0.00    +0.000 A 
ATOM     13  C   UNL     1      -5.588  -3.390   0.495  0.00  0.00    +0.000 A 
ATOM     14  C   UNL     1      -2.536  -7.677  -3.326  0.00  0.00    +0.000 A 
ATOM     15  C   UNL     1      -5.673  -2.001   0.506  0.00  0.00    +0.000 A 
ATOM     16  C   UNL     1      -4.993  -1.278  -0.471  0.00  0.00    +0.000 A 
ATOM     17  C   UNL     1      -3.199  -9.845  -2.264  0.00  0.00    +0.000 C 
ENDROOT
BRANCH  10  18
ATOM     18  O   UNL     1      -1.863  -5.695  -4.388  0.00  0.00    +0.000 OA
ATOM     19  H   UNL     1      -0.961  -6.094  -4.417  0.00  0.00    +0.000 HD
ENDBRANCH  10  18
BRANCH  12  20
ATOM     20  O   UNL     1      -3.596  -1.163  -2.375  0.00  0.00    +0.000 OA
ATOM     21  H   UNL     1      -3.679  -1.568  -3.257  0.00  0.00    +0.000 HD
ENDBRANCH  12  20
BRANCH  15  22
ATOM     22  O   UNL     1      -6.439  -1.454   1.505  0.00  0.00    +0.000 OA
ATOM     23  C   UNL     1      -6.565  -0.059   1.460  0.00  0.00    +0.000 C 
ENDBRANCH  15  22
TORSDOF 3
ENDMDL
MODEL 7
REMARK VINA RESULT:      -5.3     27.110     28.466
REMARK  Name = 10639_Physcion.pdbqt.pdb
REMARK  3 active torsions:
REMARK  status: ('A' for Active; 'I' for Inactive)
REMARK    1  A    between atoms: C_10  and  O_18
REMARK    2  A    between atoms: C_12  and  O_20
REMARK    3  A    between atoms: C_15  and  O_22
REMARK                            x       y       z     vdW  Elec       q    Type
REMARK                         _______ _______ _______ _____ _____    ______ ____
ROOT
ATOM      1  O   UNL     1     -13.135  -5.799  28.033  0.00  0.00    +0.000 OA
ATOM      2  O   UNL     1     -10.496  -9.938  25.963  0.00  0.00    +0.000 OA
ATOM      3  C   UNL     1     -10.438  -7.718  26.691  0.00  0.00    +0.000 A 
ATOM      4  C   UNL     1     -11.135  -6.641  27.233  0.00  0.00    +0.000 A 
ATOM      5  C   UNL     1     -13.265  -8.068  27.305  0.00  0.00    +0.000 A 
ATOM      6  C   UNL     1     -12.541  -9.130  26.762  0.00  0.00    +0.000 A 
ATOM      7  C   UNL     1     -12.571  -6.778  27.558  0.00  0.00    +0.000 C 
ATOM      8  C   UNL     1     -11.113  -8.995  26.438  0.00  0.00    +0.000 C 
ATOM      9  C   UNL     1      -9.081  -7.606  26.378  0.00  0.00    +0.000 A 
ATOM     10  C   UNL     1     -10.450  -5.439  27.458  0.00  0.00    +0.000 A 
ATOM     11  C   UNL     1      -8.416  -6.407  26.608  0.00  0.00    +0.000 A 
ATOM     12  C   UNL     1     -14.622  -8.268  27.589  0.00  0.00    +0.000 A 
ATOM     13  C   UNL     1     -13.151 -10.363  26.507  0.00  0.00    +0.000 A 
ATOM     14  C   UNL     1      -9.095  -5.320  27.148  0.00  0.00    +0.000 A 
ATOM     15  C   UNL     1     -14.499 -10.555  26.791  0.00  0.00    +0.000 A 
ATOM     16  C   UNL     1     -15.230  -9.500  27.334  0.00  0.00    +0.000 A 
ATOM     17  C   UNL     1      -6.960  -6.289  26.271  0.00  0.00    +0.000 C 
ENDROOT
BRANCH  10  18
ATOM     18  O   UNL     1     -11.049  -4.327  27.986  0.00  0.00    +0.000 OA
ATOM     19  H   UNL     1     -11.270  -4.502  28.931  0.00  0.00    +0.000 HD
ENDBRANCH  10  18
BRANCH  12  20
ATOM     20  O   UNL     1     -15.394  -7.276  28.121  0.00  0.00    +0.000 OA
ATOM     21  H   UNL     1     -14.966  -6.912  28.916  0.00  0.00    +0.000 HD
ENDBRANCH  12  20
BRANCH  15  22
ATOM     22  O   UNL     1     -15.003 -11.799  26.504  0.00  0.00    +0.000 OA
ATOM     23  C   UNL     1     -15.784 -11.870  25.343  0.00  0.00    +0.000 C 
ENDBRANCH  15  22
TORSDOF 3
ENDMDL
MODEL 8
REMARK VINA RESULT:      -5.2     14.117     15.510
REMARK  Name = 10639_Physcion.pdbqt.pdb
REMARK  3 active torsions:
REMARK  status: ('A' for Active; 'I' for Inactive)
REMARK    1  A    between atoms: C_10  and  O_18
REMARK    2  A    between atoms: C_12  and  O_20
REMARK    3  A    between atoms: C_15  and  O_22
REMARK                            x       y       z     vdW  Elec       q    Type
REMARK                         _______ _______ _______ _____ _____    ______ ____
ROOT
ATOM      1  O   UNL     1      -4.311  11.011   4.224  0.00  0.00    +0.000 OA
ATOM      2  O   UNL     1      -7.147   6.813   2.575  0.00  0.00    +0.000 OA
ATOM      3  C   UNL     1      -5.702   8.565   2.024  0.00  0.00    +0.000 A 
ATOM      4  C   UNL     1      -4.963   9.661   2.464  0.00  0.00    +0.000 A 
ATOM      5  C   UNL     1      -5.785   9.244   4.857  0.00  0.00    +0.000 A 
ATOM      6  C   UNL     1      -6.515   8.151   4.388  0.00  0.00    +0.000 A 
ATOM      7  C   UNL     1      -4.979  10.038   3.893  0.00  0.00    +0.000 C 
ATOM      8  C   UNL     1      -6.500   7.775   2.966  0.00  0.00    +0.000 C 
ATOM      9  C   UNL     1      -5.698   8.195   0.677  0.00  0.00    +0.000 A 
ATOM     10  C   UNL     1      -4.214  10.389   1.528  0.00  0.00    +0.000 A 
ATOM     11  C   UNL     1      -4.949   8.927  -0.238  0.00  0.00    +0.000 A 
ATOM     12  C   UNL     1      -5.846   9.544   6.224  0.00  0.00    +0.000 A 
ATOM     13  C   UNL     1      -7.288   7.374   5.257  0.00  0.00    +0.000 A 
ATOM     14  C   UNL     1      -4.206  10.025   0.181  0.00  0.00    +0.000 A 
ATOM     15  C   UNL     1      -7.344   7.677   6.614  0.00  0.00    +0.000 A 
ATOM     16  C   UNL     1      -6.618   8.767   7.090  0.00  0.00    +0.000 A 
ATOM     17  C   UNL     1      -4.947   8.528  -1.684  0.00  0.00    +0.000 C 
ENDROOT
BRANCH  10  18
ATOM     18  O   UNL     1      -3.458  11.479   1.864  0.00  0.00    +0.000 OA
ATOM     19  H   UNL     1      -3.611  11.693   2.814  0.00  0.00    +0.000 HD
ENDBRANCH  10  18
BRANCH  12  20
ATOM     20  O   UNL     1      -5.160  10.597   6.755  0.00  0.00    +0.000 OA
ATOM     21  H   UNL     1      -4.353  10.765   6.235  0.00  0.00    +0.000 HD
ENDBRANCH  12  20
BRANCH  15  22
ATOM     22  O   UNL     1      -8.130   6.855   7.381  0.00  0.00    +0.000 OA
ATOM     23  C   UNL     1      -7.526   6.381   8.554  0.00  0.00    +0.000 C 
ENDBRANCH  15  22
TORSDOF 3
ENDMDL
MODEL 9
REMARK VINA RESULT:      -5.2      7.548     10.032
REMARK  Name = 10639_Physcion.pdbqt.pdb
REMARK  3 active torsions:
REMARK  status: ('A' for Active; 'I' for Inactive)
REMARK    1  A    between atoms: C_10  and  O_18
REMARK    2  A    between atoms: C_12  and  O_20
REMARK    3  A    between atoms: C_15  and  O_22
REMARK                            x       y       z     vdW  Elec       q    Type
REMARK                         _______ _______ _______ _____ _____    ______ ____
ROOT
ATOM      1  O   UNL     1     -10.602  -9.348   3.078  0.00  0.00    +0.000 OA
ATOM      2  O   UNL     1     -15.417  -7.380   1.928  0.00  0.00    +0.000 OA
ATOM      3  C   UNL     1     -13.873  -8.001   3.569  0.00  0.00    +0.000 A 
ATOM      4  C   UNL     1     -12.612  -8.517   3.861  0.00  0.00    +0.000 A 
ATOM      5  C   UNL     1     -12.130  -8.735   1.352  0.00  0.00    +0.000 A 
ATOM      6  C   UNL     1     -13.399  -8.216   1.089  0.00  0.00    +0.000 A 
ATOM      7  C   UNL     1     -11.698  -8.901   2.764  0.00  0.00    +0.000 C 
ATOM      8  C   UNL     1     -14.309  -7.834   2.179  0.00  0.00    +0.000 C 
ATOM      9  C   UNL     1     -14.749  -7.633   4.593  0.00  0.00    +0.000 A 
ATOM     10  C   UNL     1     -12.237  -8.660   5.204  0.00  0.00    +0.000 A 
ATOM     11  C   UNL     1     -14.361  -7.782   5.920  0.00  0.00    +0.000 A 
ATOM     12  C   UNL     1     -11.317  -9.078   0.264  0.00  0.00    +0.000 A 
ATOM     13  C   UNL     1     -13.849  -8.042  -0.224  0.00  0.00    +0.000 A 
ATOM     14  C   UNL     1     -13.107  -8.294   6.232  0.00  0.00    +0.000 A 
ATOM     15  C   UNL     1     -13.036  -8.385  -1.299  0.00  0.00    +0.000 A 
ATOM     16  C   UNL     1     -11.768  -8.903  -1.046  0.00  0.00    +0.000 A 
ATOM     17  C   UNL     1     -15.303  -7.386   7.018  0.00  0.00    +0.000 C 
ENDROOT
BRANCH  10  18
ATOM     18  O   UNL     1     -11.021  -9.156   5.590  0.00  0.00    +0.000 OA
ATOM     19  H   UNL     1     -10.319  -8.757   5.023  0.00  0.00    +0.000 HD
ENDBRANCH  10  18
BRANCH  12  20
ATOM     20  O   UNL     1     -10.065  -9.591   0.442  0.00  0.00    +0.000 OA
ATOM     21  H   UNL     1      -9.409  -9.035  -0.015  0.00  0.00    +0.000 HD
ENDBRANCH  12  20
BRANCH  15  22
ATOM     22  O   UNL     1     -13.570  -8.176  -2.546  0.00  0.00    +0.000 OA
ATOM     23  C   UNL     1     -12.634  -8.099  -3.587  0.00  0.00    +0.000 C 
ENDBRANCH  15  22
TORSDOF 3
ENDMDL
