MODEL 1
REMARK VINA RESULT:      -6.2      0.000      0.000
REMARK  Name = 10940649_MilnamideD.pdbqt.pdb
REMARK  7 active torsions:
REMARK  status: ('A' for Active; 'I' for Inactive)
REMARK    1  A    between atoms: C_3  and  C_8
REMARK    2  A    between atoms: C_22  and  C_25
REMARK    3  A    between atoms: C_22  and  C_38
REMARK    4  A    between atoms: N_24  and  C_27
REMARK    5  A    between atoms: C_27  and  C_28
REMARK    6  A    between atoms: C_32  and  C_35
REMARK    7  A    between atoms: C_35  and  O_36
REMARK                            x       y       z     vdW  Elec       q    Type
REMARK                         _______ _______ _______ _____ _____    ______ ____
ROOT
ATOM      1  O   UNL     1      -8.703   8.563   3.862  0.00  0.00    +0.000 OA
ATOM      2  N   UNL     1      -7.155   7.630   5.236  0.00  0.00    +0.000 N 
ATOM      3  C   UNL     1      -7.524   8.426   4.169  0.00  0.00    +0.000 C 
ATOM      4  H   UNL     1      -6.156   7.460   5.397  0.00  0.00    +0.000 HD
ATOM      5  C   UNL     1      -8.054   6.955   6.098  0.00  0.00    +0.000 C 
ENDROOT
BRANCH   3   9
ATOM      6  N   UNL     1      -5.677  10.215   4.046  0.00  0.00    +0.000 NA
ATOM      7  N   UNL     1      -3.382  10.828   0.925  0.00  0.00    +0.000 N 
ATOM      8  C   UNL     1      -6.317   8.744   1.911  0.00  0.00    +0.000 C 
ATOM      9  C   UNL     1      -6.413   9.100   3.424  0.00  0.00    +0.000 C 
ATOM     10  C   UNL     1      -5.122   9.428   1.175  0.00  0.00    +0.000 A 
ATOM     11  C   UNL     1      -4.332  10.386   1.778  0.00  0.00    +0.000 A 
ATOM     12  C   UNL     1      -7.575   9.276   1.163  0.00  0.00    +0.000 C 
ATOM     13  C   UNL     1      -6.057   7.218   1.749  0.00  0.00    +0.000 C 
ATOM     14  C   UNL     1      -4.600   9.302  -0.162  0.00  0.00    +0.000 A 
ATOM     15  C   UNL     1      -4.691  10.667   3.100  0.00  0.00    +0.000 C 
ATOM     16  C   UNL     1      -3.511  10.187  -0.285  0.00  0.00    +0.000 A 
ATOM     17  C   UNL     1      -4.967   9.775   5.237  0.00  0.00    +0.000 C 
ATOM     18  C   UNL     1      -4.958   8.519  -1.278  0.00  0.00    +0.000 A 
ATOM     19  C   UNL     1      -2.415  11.823   1.242  0.00  0.00    +0.000 C 
ATOM     20  C   UNL     1      -2.776  10.307  -1.475  0.00  0.00    +0.000 A 
ATOM     21  C   UNL     1      -4.232   8.634  -2.464  0.00  0.00    +0.000 A 
ATOM     22  C   UNL     1      -3.159   9.512  -2.557  0.00  0.00    +0.000 A 
ENDBRANCH   3   9
BRANCH   5  25
ATOM     23  O   UNL     1      -9.962   8.167   6.652  0.00  0.00    +0.000 OA
ATOM     24  N   UNL     1     -10.225   6.386   5.122  0.00  0.00    +0.000 N 
ATOM     25  C   UNL     1      -9.510   7.222   6.013  0.00  0.00    +0.000 C 
ATOM     26  C   UNL     1      -9.643   5.240   4.414  0.00  0.00    +0.000 C 
BRANCH  24  27
ATOM     27  C   UNL     1     -11.580   6.638   4.841  0.00  0.00    +0.000 C 
ATOM     28  C   UNL     1     -11.985   7.224   3.593  0.00  0.00    +0.000 C 
ATOM     29  C   UNL     1     -12.360   7.755   2.466  0.00  0.00    +0.000 C 
ATOM     30  C   UNL     1     -13.150   6.845   1.549  0.00  0.00    +0.000 C 
BRANCH  27  31
ATOM     31  C   UNL     1     -12.633   6.296   5.786  0.00  0.00    +0.000 C 
ATOM     32  C   UNL     1     -13.912   7.108   5.840  0.00  0.00    +0.000 C 
ATOM     33  C   UNL     1     -12.770   4.862   6.264  0.00  0.00    +0.000 C 
ENDBRANCH  27  31
BRANCH  29  35
ATOM     34  O   UNL     1     -12.708  10.140   2.387  0.00  0.00    +0.000 OA
ATOM     35  C   UNL     1     -12.005   9.167   2.157  0.00  0.00    +0.000 C 
BRANCH  35  36
ATOM     36  O   UNL     1     -10.798   9.328   1.574  0.00  0.00    +0.000 OA
ATOM     37  H   UNL     1     -10.577  10.274   1.696  0.00  0.00    +0.000 HD
ENDBRANCH  35  36
ENDBRANCH  29  35
ENDBRANCH  24  27
ENDBRANCH   5  25
BRANCH   5  38
ATOM     38  C   UNL     1      -7.620   6.148   7.312  0.00  0.00    +0.000 C 
ATOM     39  C   UNL     1      -6.468   5.207   6.837  0.00  0.00    +0.000 C 
ATOM     40  C   UNL     1      -7.039   7.140   8.360  0.00  0.00    +0.000 C 
ATOM     41  C   UNL     1      -8.755   5.290   7.923  0.00  0.00    +0.000 C 
ENDBRANCH   5  38
TORSDOF 7
ENDMDL
MODEL 2
REMARK VINA RESULT:      -6.1      4.082      9.284
REMARK  Name = 10940649_MilnamideD.pdbqt.pdb
REMARK  7 active torsions:
REMARK  status: ('A' for Active; 'I' for Inactive)
REMARK    1  A    between atoms: C_3  and  C_8
REMARK    2  A    between atoms: C_22  and  C_25
REMARK    3  A    between atoms: C_22  and  C_38
REMARK    4  A    between atoms: N_24  and  C_27
REMARK    5  A    between atoms: C_27  and  C_28
REMARK    6  A    between atoms: C_32  and  C_35
REMARK    7  A    between atoms: C_35  and  O_36
REMARK                            x       y       z     vdW  Elec       q    Type
REMARK                         _______ _______ _______ _____ _____    ______ ____
ROOT
ATOM      1  O   UNL     1     -11.217   6.316   1.219  0.00  0.00    +0.000 OA
ATOM      2  N   UNL     1     -12.800   6.957   2.715  0.00  0.00    +0.000 N 
ATOM      3  C   UNL     1     -12.393   6.308   1.565  0.00  0.00    +0.000 C 
ATOM      4  H   UNL     1     -13.805   7.014   2.915  0.00  0.00    +0.000 HD
ATOM      5  C   UNL     1     -11.940   7.626   3.620  0.00  0.00    +0.000 C 
ENDROOT
BRANCH   3   9
ATOM      6  N   UNL     1     -14.845   6.110   0.808  0.00  0.00    +0.000 NA
ATOM      7  N   UNL     1     -16.235   3.261  -1.503  0.00  0.00    +0.000 N 
ATOM      8  C   UNL     1     -13.063   4.209   0.222  0.00  0.00    +0.000 C 
ATOM      9  C   UNL     1     -13.461   5.608   0.782  0.00  0.00    +0.000 C 
ATOM     10  C   UNL     1     -14.182   3.527  -0.627  0.00  0.00    +0.000 A 
ATOM     11  C   UNL     1     -15.457   4.047  -0.726  0.00  0.00    +0.000 A 
ATOM     12  C   UNL     1     -12.825   3.218   1.399  0.00  0.00    +0.000 C 
ATOM     13  C   UNL     1     -11.864   4.361  -0.758  0.00  0.00    +0.000 C 
ATOM     14  C   UNL     1     -14.212   2.316  -1.407  0.00  0.00    +0.000 A 
ATOM     15  C   UNL     1     -15.641   5.237  -0.014  0.00  0.00    +0.000 C 
ATOM     16  C   UNL     1     -15.508   2.181  -1.944  0.00  0.00    +0.000 A 
ATOM     17  C   UNL     1     -14.930   7.444   0.234  0.00  0.00    +0.000 C 
ATOM     18  C   UNL     1     -13.257   1.322  -1.700  0.00  0.00    +0.000 A 
ATOM     19  C   UNL     1     -17.603   3.519  -1.794  0.00  0.00    +0.000 C 
ATOM     20  C   UNL     1     -15.869   1.096  -2.758  0.00  0.00    +0.000 A 
ATOM     21  C   UNL     1     -13.611   0.241  -2.508  0.00  0.00    +0.000 A 
ATOM     22  C   UNL     1     -14.894   0.134  -3.028  0.00  0.00    +0.000 A 
ENDBRANCH   3   9
BRANCH   5  25
ATOM     23  O   UNL     1      -9.863   8.444   2.957  0.00  0.00    +0.000 OA
ATOM     24  N   UNL     1      -9.898   6.340   4.033  0.00  0.00    +0.000 N 
ATOM     25  C   UNL     1     -10.469   7.510   3.475  0.00  0.00    +0.000 C 
ATOM     26  C   UNL     1     -10.673   5.232   4.603  0.00  0.00    +0.000 C 
BRANCH  24  27
ATOM     27  C   UNL     1      -8.502   6.187   4.092  0.00  0.00    +0.000 C 
ATOM     28  C   UNL     1      -7.791   6.315   5.335  0.00  0.00    +0.000 C 
ATOM     29  C   UNL     1      -7.141   6.431   6.456  0.00  0.00    +0.000 C 
ATOM     30  C   UNL     1      -6.516   5.155   6.979  0.00  0.00    +0.000 C 
BRANCH  27  31
ATOM     31  C   UNL     1      -7.717   5.868   2.909  0.00  0.00    +0.000 C 
ATOM     32  C   UNL     1      -8.202   4.824   1.922  0.00  0.00    +0.000 C 
ATOM     33  C   UNL     1      -6.796   6.920   2.318  0.00  0.00    +0.000 C 
ENDBRANCH  27  31
BRANCH  29  35
ATOM     34  O   UNL     1      -7.946   8.589   7.173  0.00  0.00    +0.000 OA
ATOM     35  C   UNL     1      -7.052   7.756   7.128  0.00  0.00    +0.000 C 
BRANCH  35  36
ATOM     36  O   UNL     1      -5.864   8.007   7.718  0.00  0.00    +0.000 OA
ATOM     37  H   UNL     1      -5.520   8.809   7.273  0.00  0.00    +0.000 HD
ENDBRANCH  35  36
ENDBRANCH  29  35
ENDBRANCH  24  27
ENDBRANCH   5  25
BRANCH   5  38
ATOM     38  C   UNL     1     -12.407   8.265   4.919  0.00  0.00    +0.000 C 
ATOM     39  C   UNL     1     -13.132   9.593   4.531  0.00  0.00    +0.000 C 
ATOM     40  C   UNL     1     -13.450   7.312   5.570  0.00  0.00    +0.000 C 
ATOM     41  C   UNL     1     -11.254   8.587   5.900  0.00  0.00    +0.000 C 
ENDBRANCH   5  38
TORSDOF 7
ENDMDL
MODEL 3
REMARK VINA RESULT:      -5.7     27.693     32.161
REMARK  Name = 10940649_MilnamideD.pdbqt.pdb
REMARK  7 active torsions:
REMARK  status: ('A' for Active; 'I' for Inactive)
REMARK    1  A    between atoms: C_3  and  C_8
REMARK    2  A    between atoms: C_22  and  C_25
REMARK    3  A    between atoms: C_22  and  C_38
REMARK    4  A    between atoms: N_24  and  C_27
REMARK    5  A    between atoms: C_27  and  C_28
REMARK    6  A    between atoms: C_32  and  C_35
REMARK    7  A    between atoms: C_35  and  O_36
REMARK                            x       y       z     vdW  Elec       q    Type
REMARK                         _______ _______ _______ _____ _____    ______ ____
ROOT
ATOM      1  O   UNL     1     -12.040 -12.020  28.531  0.00  0.00    +0.000 OA
ATOM      2  N   UNL     1     -13.980 -11.272  27.619  0.00  0.00    +0.000 N 
ATOM      3  C   UNL     1     -12.719 -11.074  28.149  0.00  0.00    +0.000 C 
ATOM      4  H   UNL     1     -14.555 -10.449  27.407  0.00  0.00    +0.000 HD
ATOM      5  C   UNL     1     -14.586 -12.534  27.409  0.00  0.00    +0.000 C 
ENDROOT
BRANCH   3   9
ATOM      6  N   UNL     1     -13.011  -8.661  28.995  0.00  0.00    +0.000 NA
ATOM      7  N   UNL     1     -10.607  -5.689  28.113  0.00  0.00    +0.000 N 
ATOM      8  C   UNL     1     -11.104  -9.282  27.233  0.00  0.00    +0.000 C 
ATOM      9  C   UNL     1     -12.243  -9.655  28.227  0.00  0.00    +0.000 C 
ATOM     10  C   UNL     1     -10.601  -7.810  27.371  0.00  0.00    +0.000 A 
ATOM     11  C   UNL     1     -11.227  -6.888  28.185  0.00  0.00    +0.000 A 
ATOM     12  C   UNL     1     -11.633  -9.364  25.770  0.00  0.00    +0.000 C 
ATOM     13  C   UNL     1      -9.850 -10.156  27.524  0.00  0.00    +0.000 C 
ATOM     14  C   UNL     1      -9.520  -7.088  26.750  0.00  0.00    +0.000 A 
ATOM     15  C   UNL     1     -12.330  -7.398  28.877  0.00  0.00    +0.000 C 
ATOM     16  C   UNL     1      -9.549  -5.766  27.238  0.00  0.00    +0.000 A 
ATOM     17  C   UNL     1     -13.050  -9.004  30.408  0.00  0.00    +0.000 C 
ATOM     18  C   UNL     1      -8.524  -7.437  25.816  0.00  0.00    +0.000 A 
ATOM     19  C   UNL     1     -11.015  -4.528  28.827  0.00  0.00    +0.000 C 
ATOM     20  C   UNL     1      -8.620  -4.798  26.827  0.00  0.00    +0.000 A 
ATOM     21  C   UNL     1      -7.599  -6.478  25.403  0.00  0.00    +0.000 A 
ATOM     22  C   UNL     1      -7.647  -5.183  25.903  0.00  0.00    +0.000 A 
ENDBRANCH   3   9
BRANCH   5  25
ATOM     23  O   UNL     1     -13.079 -14.141  26.656  0.00  0.00    +0.000 OA
ATOM     24  N   UNL     1     -13.901 -14.384  28.859  0.00  0.00    +0.000 N 
ATOM     25  C   UNL     1     -13.798 -13.778  27.583  0.00  0.00    +0.000 C 
ATOM     26  C   UNL     1     -14.810 -13.932  29.919  0.00  0.00    +0.000 C 
BRANCH  24  27
ATOM     27  C   UNL     1     -13.086 -15.479  29.195  0.00  0.00    +0.000 C 
ATOM     28  C   UNL     1     -11.662 -15.337  29.319  0.00  0.00    +0.000 C 
ATOM     29  C   UNL     1     -10.371 -15.217  29.433  0.00  0.00    +0.000 C 
ATOM     30  C   UNL     1      -9.824 -15.382  30.835  0.00  0.00    +0.000 C 
BRANCH  27  31
ATOM     31  C   UNL     1     -13.647 -16.797  29.456  0.00  0.00    +0.000 C 
ATOM     32  C   UNL     1     -13.662 -17.361  30.863  0.00  0.00    +0.000 C 
ATOM     33  C   UNL     1     -14.728 -17.343  28.542  0.00  0.00    +0.000 C 
ENDBRANCH  27  31
BRANCH  29  35
ATOM     34  O   UNL     1      -8.479 -15.474  27.959  0.00  0.00    +0.000 OA
ATOM     35  C   UNL     1      -9.544 -14.937  28.228  0.00  0.00    +0.000 C 
BRANCH  35  36
ATOM     36  O   UNL     1     -10.057 -14.003  27.399  0.00  0.00    +0.000 OA
ATOM     37  H   UNL     1      -9.407 -13.272  27.400  0.00  0.00    +0.000 HD
ENDBRANCH  35  36
ENDBRANCH  29  35
ENDBRANCH  24  27
ENDBRANCH   5  25
BRANCH   5  38
ATOM     38  C   UNL     1     -15.944 -12.724  26.751  0.00  0.00    +0.000 C 
ATOM     39  C   UNL     1     -15.885 -11.981  25.378  0.00  0.00    +0.000 C 
ATOM     40  C   UNL     1     -16.131 -14.243  26.475  0.00  0.00    +0.000 C 
ATOM     41  C   UNL     1     -17.120 -12.157  27.583  0.00  0.00    +0.000 C 
ENDBRANCH   5  38
TORSDOF 7
ENDMDL
MODEL 4
REMARK VINA RESULT:      -5.7      6.316     10.572
REMARK  Name = 10940649_MilnamideD.pdbqt.pdb
REMARK  7 active torsions:
REMARK  status: ('A' for Active; 'I' for Inactive)
REMARK    1  A    between atoms: C_3  and  C_8
REMARK    2  A    between atoms: C_22  and  C_25
REMARK    3  A    between atoms: C_22  and  C_38
REMARK    4  A    between atoms: N_24  and  C_27
REMARK    5  A    between atoms: C_27  and  C_28
REMARK    6  A    between atoms: C_32  and  C_35
REMARK    7  A    between atoms: C_35  and  O_36
REMARK                            x       y       z     vdW  Elec       q    Type
REMARK                         _______ _______ _______ _____ _____    ______ ____
ROOT
ATOM      1  O   UNL     1     -14.373   3.325  -0.730  0.00  0.00    +0.000 OA
ATOM      2  N   UNL     1     -13.126   4.831  -1.884  0.00  0.00    +0.000 N 
ATOM      3  C   UNL     1     -13.763   4.388  -0.741  0.00  0.00    +0.000 C 
ATOM      4  H   UNL     1     -12.714   5.772  -1.880  0.00  0.00    +0.000 HD
ATOM      5  C   UNL     1     -13.054   4.118  -3.105  0.00  0.00    +0.000 C 
ENDROOT
BRANCH   3   9
ATOM      6  N   UNL     1     -14.545   6.445   0.593  0.00  0.00    +0.000 NA
ATOM      7  N   UNL     1     -12.991   7.608   4.002  0.00  0.00    +0.000 N 
ATOM      8  C   UNL     1     -12.413   5.034   1.362  0.00  0.00    +0.000 C 
ATOM      9  C   UNL     1     -13.664   5.273   0.465  0.00  0.00    +0.000 C 
ATOM     10  C   UNL     1     -12.363   5.942   2.631  0.00  0.00    +0.000 A 
ATOM     11  C   UNL     1     -13.260   6.969   2.842  0.00  0.00    +0.000 A 
ATOM     12  C   UNL     1     -11.121   5.411   0.578  0.00  0.00    +0.000 C 
ATOM     13  C   UNL     1     -12.439   3.581   1.917  0.00  0.00    +0.000 C 
ATOM     14  C   UNL     1     -11.474   5.984   3.764  0.00  0.00    +0.000 A 
ATOM     15  C   UNL     1     -14.214   7.106   1.829  0.00  0.00    +0.000 C 
ATOM     16  C   UNL     1     -11.896   7.034   4.604  0.00  0.00    +0.000 A 
ATOM     17  C   UNL     1     -15.941   6.046   0.675  0.00  0.00    +0.000 C 
ATOM     18  C   UNL     1     -10.348   5.229   4.148  0.00  0.00    +0.000 A 
ATOM     19  C   UNL     1     -13.729   8.718   4.499  0.00  0.00    +0.000 C 
ATOM     20  C   UNL     1     -11.235   7.343   5.803  0.00  0.00    +0.000 A 
ATOM     21  C   UNL     1      -9.686   5.532   5.339  0.00  0.00    +0.000 A 
ATOM     22  C   UNL     1     -10.126   6.570   6.150  0.00  0.00    +0.000 A 
ENDBRANCH   3   9
BRANCH   5  25
ATOM     23  O   UNL     1     -12.751   1.827  -2.819  0.00  0.00    +0.000 OA
ATOM     24  N   UNL     1     -14.869   2.546  -3.582  0.00  0.00    +0.000 N 
ATOM     25  C   UNL     1     -13.523   2.713  -3.176  0.00  0.00    +0.000 C 
ATOM     26  C   UNL     1     -15.737   3.637  -4.040  0.00  0.00    +0.000 C 
BRANCH  24  27
ATOM     27  C   UNL     1     -15.473   1.277  -3.543  0.00  0.00    +0.000 C 
ATOM     28  C   UNL     1     -16.511   0.976  -2.597  0.00  0.00    +0.000 C 
ATOM     29  C   UNL     1     -17.452   0.695  -1.742  0.00  0.00    +0.000 C 
ATOM     30  C   UNL     1     -18.824   0.464  -2.339  0.00  0.00    +0.000 C 
BRANCH  27  31
ATOM     31  C   UNL     1     -15.093   0.221  -4.470  0.00  0.00    +0.000 C 
ATOM     32  C   UNL     1     -14.753   0.548  -5.911  0.00  0.00    +0.000 C 
ATOM     33  C   UNL     1     -14.447  -1.045  -3.938  0.00  0.00    +0.000 C 
ENDBRANCH  27  31
BRANCH  29  35
ATOM     34  O   UNL     1     -17.721  -0.076   0.527  0.00  0.00    +0.000 OA
ATOM     35  C   UNL     1     -17.136   0.620  -0.290  0.00  0.00    +0.000 C 
BRANCH  35  36
ATOM     36  O   UNL     1     -16.112   1.407   0.103  0.00  0.00    +0.000 OA
ATOM     37  H   UNL     1     -15.491   1.419  -0.654  0.00  0.00    +0.000 HD
ENDBRANCH  35  36
ENDBRANCH  29  35
ENDBRANCH  24  27
ENDBRANCH   5  25
BRANCH   5  38
ATOM     38  C   UNL     1     -12.278   4.596  -4.322  0.00  0.00    +0.000 C 
ATOM     39  C   UNL     1     -12.875   5.985  -4.717  0.00  0.00    +0.000 C 
ATOM     40  C   UNL     1     -10.799   4.807  -3.892  0.00  0.00    +0.000 C 
ATOM     41  C   UNL     1     -12.377   3.639  -5.535  0.00  0.00    +0.000 C 
ENDBRANCH   5  38
TORSDOF 7
ENDMDL
MODEL 5
REMARK VINA RESULT:      -5.5      3.873      9.049
REMARK  Name = 10940649_MilnamideD.pdbqt.pdb
REMARK  7 active torsions:
REMARK  status: ('A' for Active; 'I' for Inactive)
REMARK    1  A    between atoms: C_3  and  C_8
REMARK    2  A    between atoms: C_22  and  C_25
REMARK    3  A    between atoms: C_22  and  C_38
REMARK    4  A    between atoms: N_24  and  C_27
REMARK    5  A    between atoms: C_27  and  C_28
REMARK    6  A    between atoms: C_32  and  C_35
REMARK    7  A    between atoms: C_35  and  O_36
REMARK                            x       y       z     vdW  Elec       q    Type
REMARK                         _______ _______ _______ _____ _____    ______ ____
ROOT
ATOM      1  O   UNL     1     -12.212   6.511   3.884  0.00  0.00    +0.000 OA
ATOM      2  N   UNL     1     -11.313   7.847   5.485  0.00  0.00    +0.000 N 
ATOM      3  C   UNL     1     -12.381   7.343   4.767  0.00  0.00    +0.000 C 
ATOM      4  H   UNL     1     -11.485   8.616   6.143  0.00  0.00    +0.000 HD
ATOM      5  C   UNL     1      -9.966   7.438   5.334  0.00  0.00    +0.000 C 
ENDROOT
BRANCH   3   9
ATOM      6  N   UNL     1     -14.643   7.065   5.965  0.00  0.00    +0.000 NA
ATOM      7  N   UNL     1     -17.557   9.688   5.850  0.00  0.00    +0.000 N 
ATOM      8  C   UNL     1     -14.190   9.134   4.339  0.00  0.00    +0.000 C 
ATOM      9  C   UNL     1     -13.736   7.871   5.130  0.00  0.00    +0.000 C 
ATOM     10  C   UNL     1     -15.586   9.683   4.772  0.00  0.00    +0.000 A 
ATOM     11  C   UNL     1     -16.404   9.010   5.656  0.00  0.00    +0.000 A 
ATOM     12  C   UNL     1     -14.376   8.775   2.834  0.00  0.00    +0.000 C 
ATOM     13  C   UNL     1     -13.203  10.305   4.614  0.00  0.00    +0.000 C 
ATOM     14  C   UNL     1     -16.327  10.861   4.399  0.00  0.00    +0.000 A 
ATOM     15  C   UNL     1     -15.862   7.812   6.131  0.00  0.00    +0.000 C 
ATOM     16  C   UNL     1     -17.553  10.836   5.094  0.00  0.00    +0.000 A 
ATOM     17  C   UNL     1     -14.082   6.847   7.289  0.00  0.00    +0.000 C 
ATOM     18  C   UNL     1     -16.069  11.942   3.532  0.00  0.00    +0.000 A 
ATOM     19  C   UNL     1     -18.613   9.253   6.700  0.00  0.00    +0.000 C 
ATOM     20  C   UNL     1     -18.513  11.850   4.951  0.00  0.00    +0.000 A 
ATOM     21  C   UNL     1     -17.021  12.952   3.386  0.00  0.00    +0.000 A 
ATOM     22  C   UNL     1     -18.219  12.905   4.085  0.00  0.00    +0.000 A 
ENDBRANCH   3   9
BRANCH   5  25
ATOM     23  O   UNL     1      -9.629   5.156   5.016  0.00  0.00    +0.000 OA
ATOM     24  N   UNL     1      -9.427   6.549   3.117  0.00  0.00    +0.000 N 
ATOM     25  C   UNL     1      -9.633   6.266   4.489  0.00  0.00    +0.000 C 
ATOM     26  C   UNL     1      -9.400   7.901   2.546  0.00  0.00    +0.000 C 
BRANCH  24  27
ATOM     27  C   UNL     1      -9.256   5.505   2.192  0.00  0.00    +0.000 C 
ATOM     28  C   UNL     1     -10.358   5.011   1.413  0.00  0.00    +0.000 C 
ATOM     29  C   UNL     1     -11.352   4.559   0.705  0.00  0.00    +0.000 C 
ATOM     30  C   UNL     1     -11.270   4.837  -0.781  0.00  0.00    +0.000 C 
BRANCH  27  31
ATOM     31  C   UNL     1      -7.955   4.893   1.962  0.00  0.00    +0.000 C 
ATOM     32  C   UNL     1      -7.851   3.520   1.329  0.00  0.00    +0.000 C 
ATOM     33  C   UNL     1      -6.739   5.779   1.759  0.00  0.00    +0.000 C 
ENDBRANCH  27  31
BRANCH  29  35
ATOM     34  O   UNL     1     -13.280   3.114   0.803  0.00  0.00    +0.000 OA
ATOM     35  C   UNL     1     -12.462   3.824   1.369  0.00  0.00    +0.000 C 
BRANCH  35  36
ATOM     36  O   UNL     1     -12.526   3.994   2.707  0.00  0.00    +0.000 OA
ATOM     37  H   UNL     1     -13.248   3.405   3.008  0.00  0.00    +0.000 HD
ENDBRANCH  35  36
ENDBRANCH  29  35
ENDBRANCH  24  27
ENDBRANCH   5  25
BRANCH   5  38
ATOM     38  C   UNL     1      -8.822   7.954   6.192  0.00  0.00    +0.000 C 
ATOM     39  C   UNL     1      -8.799   7.076   7.484  0.00  0.00    +0.000 C 
ATOM     40  C   UNL     1      -7.496   7.711   5.415  0.00  0.00    +0.000 C 
ATOM     41  C   UNL     1      -8.970   9.442   6.594  0.00  0.00    +0.000 C 
ENDBRANCH   5  38
TORSDOF 7
ENDMDL
MODEL 6
REMARK VINA RESULT:      -5.4     27.436     31.588
REMARK  Name = 10940649_MilnamideD.pdbqt.pdb
REMARK  7 active torsions:
REMARK  status: ('A' for Active; 'I' for Inactive)
REMARK    1  A    between atoms: C_3  and  C_8
REMARK    2  A    between atoms: C_22  and  C_25
REMARK    3  A    between atoms: C_22  and  C_38
REMARK    4  A    between atoms: N_24  and  C_27
REMARK    5  A    between atoms: C_27  and  C_28
REMARK    6  A    between atoms: C_32  and  C_35
REMARK    7  A    between atoms: C_35  and  O_36
REMARK                            x       y       z     vdW  Elec       q    Type
REMARK                         _______ _______ _______ _____ _____    ______ ____
ROOT
ATOM      1  O   UNL     1     -12.591 -10.786  29.310  0.00  0.00    +0.000 OA
ATOM      2  N   UNL     1     -14.546  -9.765  28.770  0.00  0.00    +0.000 N 
ATOM      3  C   UNL     1     -13.183  -9.759  28.997  0.00  0.00    +0.000 C 
ATOM      4  H   UNL     1     -15.018  -8.867  28.611  0.00  0.00    +0.000 HD
ATOM      5  C   UNL     1     -15.374 -10.913  28.810  0.00  0.00    +0.000 C 
ENDROOT
BRANCH   3   9
ATOM      6  N   UNL     1     -13.028  -7.238  29.493  0.00  0.00    +0.000 NA
ATOM      7  N   UNL     1     -10.262  -4.856  28.058  0.00  0.00    +0.000 N 
ATOM      8  C   UNL     1     -11.381  -8.402  27.743  0.00  0.00    +0.000 C 
ATOM      9  C   UNL     1     -12.486  -8.442  28.841  0.00  0.00    +0.000 C 
ATOM     10  C   UNL     1     -10.645  -7.030  27.637  0.00  0.00    +0.000 A 
ATOM     11  C   UNL     1     -11.054  -5.914  28.338  0.00  0.00    +0.000 A 
ATOM     12  C   UNL     1     -12.026  -8.594  26.338  0.00  0.00    +0.000 C 
ATOM     13  C   UNL     1     -10.261  -9.424  28.092  0.00  0.00    +0.000 C 
ATOM     14  C   UNL     1      -9.514  -6.588  26.860  0.00  0.00    +0.000 A 
ATOM     15  C   UNL     1     -12.168  -6.135  29.155  0.00  0.00    +0.000 C 
ATOM     16  C   UNL     1      -9.298  -5.226  27.150  0.00  0.00    +0.000 A 
ATOM     17  C   UNL     1     -13.012  -7.374  30.941  0.00  0.00    +0.000 C 
ATOM     18  C   UNL     1      -8.660  -7.222  25.936  0.00  0.00    +0.000 A 
ATOM     19  C   UNL     1     -10.427  -3.557  28.615  0.00  0.00    +0.000 C 
ATOM     20  C   UNL     1      -8.263  -4.491  26.552  0.00  0.00    +0.000 A 
ATOM     21  C   UNL     1      -7.629  -6.495  25.338  0.00  0.00    +0.000 A 
ATOM     22  C   UNL     1      -7.436  -5.155  25.645  0.00  0.00    +0.000 A 
ENDBRANCH   3   9
BRANCH   5  25
ATOM     23  O   UNL     1     -14.815 -12.824  30.017  0.00  0.00    +0.000 OA
ATOM     24  N   UNL     1     -14.266 -12.803  27.719  0.00  0.00    +0.000 N 
ATOM     25  C   UNL     1     -14.771 -12.262  28.926  0.00  0.00    +0.000 C 
ATOM     26  C   UNL     1     -14.198 -12.072  26.449  0.00  0.00    +0.000 C 
BRANCH  24  27
ATOM     27  C   UNL     1     -13.809 -14.132  27.670  0.00  0.00    +0.000 C 
ATOM     28  C   UNL     1     -12.513 -14.493  28.177  0.00  0.00    +0.000 C 
ATOM     29  C   UNL     1     -11.342 -14.828  28.634  0.00  0.00    +0.000 C 
ATOM     30  C   UNL     1     -11.351 -15.703  29.869  0.00  0.00    +0.000 C 
BRANCH  27  31
ATOM     31  C   UNL     1     -14.632 -15.204  27.129  0.00  0.00    +0.000 C 
ATOM     32  C   UNL     1     -14.044 -16.210  26.160  0.00  0.00    +0.000 C 
ATOM     33  C   UNL     1     -15.819 -15.710  27.928  0.00  0.00    +0.000 C 
ENDBRANCH  27  31
BRANCH  29  35
ATOM     34  O   UNL     1      -9.075 -14.986  27.823  0.00  0.00    +0.000 OA
ATOM     35  C   UNL     1     -10.113 -14.351  27.942  0.00  0.00    +0.000 C 
BRANCH  35  36
ATOM     36  O   UNL     1     -10.206 -13.107  27.426  0.00  0.00    +0.000 OA
ATOM     37  H   UNL     1      -9.844 -13.177  26.519  0.00  0.00    +0.000 HD
ENDBRANCH  35  36
ENDBRANCH  29  35
ENDBRANCH  24  27
ENDBRANCH   5  25
BRANCH   5  38
ATOM     38  C   UNL     1     -16.857 -10.901  28.479  0.00  0.00    +0.000 C 
ATOM     39  C   UNL     1     -17.596 -10.358  29.744  0.00  0.00    +0.000 C 
ATOM     40  C   UNL     1     -17.077  -9.891  27.316  0.00  0.00    +0.000 C 
ATOM     41  C   UNL     1     -17.424 -12.297  28.122  0.00  0.00    +0.000 C 
ENDBRANCH   5  38
TORSDOF 7
ENDMDL
MODEL 7
REMARK VINA RESULT:      -5.4     22.612     26.072
REMARK  Name = 10940649_MilnamideD.pdbqt.pdb
REMARK  7 active torsions:
REMARK  status: ('A' for Active; 'I' for Inactive)
REMARK    1  A    between atoms: C_3  and  C_8
REMARK    2  A    between atoms: C_22  and  C_25
REMARK    3  A    between atoms: C_22  and  C_38
REMARK    4  A    between atoms: N_24  and  C_27
REMARK    5  A    between atoms: C_27  and  C_28
REMARK    6  A    between atoms: C_32  and  C_35
REMARK    7  A    between atoms: C_35  and  O_36
REMARK                            x       y       z     vdW  Elec       q    Type
REMARK                         _______ _______ _______ _____ _____    ______ ____
ROOT
ATOM      1  O   UNL     1       4.427 -10.234  15.720  0.00  0.00    +0.000 OA
ATOM      2  N   UNL     1       4.837 -12.105  14.501  0.00  0.00    +0.000 N 
ATOM      3  C   UNL     1       5.083 -10.790  14.848  0.00  0.00    +0.000 C 
ATOM      4  H   UNL     1       5.338 -12.500  13.697  0.00  0.00    +0.000 HD
ATOM      5  C   UNL     1       3.882 -12.946  15.122  0.00  0.00    +0.000 C 
ENDROOT
BRANCH   3   9
ATOM      6  N   UNL     1       7.552 -10.090  14.647  0.00  0.00    +0.000 NA
ATOM      7  N   UNL     1       9.019  -7.924  11.724  0.00  0.00    +0.000 N 
ATOM      8  C   UNL     1       5.719  -9.185  12.930  0.00  0.00    +0.000 C 
ATOM      9  C   UNL     1       6.184 -10.099  14.102  0.00  0.00    +0.000 C 
ATOM     10  C   UNL     1       6.893  -8.515  12.147  0.00  0.00    +0.000 A 
ATOM     11  C   UNL     1       8.205  -8.600  12.565  0.00  0.00    +0.000 A 
ATOM     12  C   UNL     1       4.905  -7.981  13.490  0.00  0.00    +0.000 C 
ATOM     13  C   UNL     1       4.973 -10.040  11.866  0.00  0.00    +0.000 C 
ATOM     14  C   UNL     1       6.932  -7.704  10.956  0.00  0.00    +0.000 A 
ATOM     15  C   UNL     1       8.381  -9.347  13.734  0.00  0.00    +0.000 C 
ATOM     16  C   UNL     1       8.276  -7.355  10.717  0.00  0.00    +0.000 A 
ATOM     17  C   UNL     1       8.094 -11.437  14.727  0.00  0.00    +0.000 C 
ATOM     18  C   UNL     1       5.947  -7.234  10.064  0.00  0.00    +0.000 A 
ATOM     19  C   UNL     1      10.429  -7.813  11.885  0.00  0.00    +0.000 C 
ATOM     20  C   UNL     1       8.658  -6.562   9.624  0.00  0.00    +0.000 A 
ATOM     21  C   UNL     1       6.321  -6.445   8.976  0.00  0.00    +0.000 A 
ATOM     22  C   UNL     1       7.654  -6.118   8.762  0.00  0.00    +0.000 A 
ENDBRANCH   3   9
BRANCH   5  25
ATOM     23  O   UNL     1       2.054 -12.043  16.247  0.00  0.00    +0.000 OA
ATOM     24  N   UNL     1       3.894 -12.730  17.561  0.00  0.00    +0.000 N 
ATOM     25  C   UNL     1       3.188 -12.501  16.355  0.00  0.00    +0.000 C 
ATOM     26  C   UNL     1       5.268 -13.241  17.632  0.00  0.00    +0.000 C 
BRANCH  24  27
ATOM     27  C   UNL     1       3.279 -12.491  18.803  0.00  0.00    +0.000 C 
ATOM     28  C   UNL     1       2.037 -13.123  19.152  0.00  0.00    +0.000 C 
ATOM     29  C   UNL     1       0.911 -13.690  19.475  0.00  0.00    +0.000 C 
ATOM     30  C   UNL     1       0.993 -14.705  20.595  0.00  0.00    +0.000 C 
BRANCH  27  31
ATOM     31  C   UNL     1       3.882 -11.617  19.798  0.00  0.00    +0.000 C 
ATOM     32  C   UNL     1       3.498 -10.152  19.869  0.00  0.00    +0.000 C 
ATOM     33  C   UNL     1       4.382 -12.206  21.104  0.00  0.00    +0.000 C 
ENDBRANCH  27  31
BRANCH  29  35
ATOM     34  O   UNL     1      -1.442 -13.808  18.956  0.00  0.00    +0.000 OA
ATOM     35  C   UNL     1      -0.338 -13.322  18.755  0.00  0.00    +0.000 C 
BRANCH  35  36
ATOM     36  O   UNL     1      -0.182 -12.370  17.810  0.00  0.00    +0.000 OA
ATOM     37  H   UNL     1      -1.046 -12.318  17.351  0.00  0.00    +0.000 HD
ENDBRANCH  35  36
ENDBRANCH  29  35
ENDBRANCH  24  27
ENDBRANCH   5  25
BRANCH   5  38
ATOM     38  C   UNL     1       3.687 -14.412  14.771  0.00  0.00    +0.000 C 
ATOM     39  C   UNL     1       2.931 -14.450  13.405  0.00  0.00    +0.000 C 
ATOM     40  C   UNL     1       5.094 -15.044  14.567  0.00  0.00    +0.000 C 
ATOM     41  C   UNL     1       2.869 -15.198  15.824  0.00  0.00    +0.000 C 
ENDBRANCH   5  38
TORSDOF 7
ENDMDL
MODEL 8
REMARK VINA RESULT:      -5.3     11.516     14.870
REMARK  Name = 10940649_MilnamideD.pdbqt.pdb
REMARK  7 active torsions:
REMARK  status: ('A' for Active; 'I' for Inactive)
REMARK    1  A    between atoms: C_3  and  C_8
REMARK    2  A    between atoms: C_22  and  C_25
REMARK    3  A    between atoms: C_22  and  C_38
REMARK    4  A    between atoms: N_24  and  C_27
REMARK    5  A    between atoms: C_27  and  C_28
REMARK    6  A    between atoms: C_32  and  C_35
REMARK    7  A    between atoms: C_35  and  O_36
REMARK                            x       y       z     vdW  Elec       q    Type
REMARK                         _______ _______ _______ _____ _____    ______ ____
ROOT
ATOM      1  O   UNL     1     -12.102   7.077  17.815  0.00  0.00    +0.000 OA
ATOM      2  N   UNL     1     -13.160   7.748  15.922  0.00  0.00    +0.000 N 
ATOM      3  C   UNL     1     -12.174   7.868  16.882  0.00  0.00    +0.000 C 
ATOM      4  H   UNL     1     -13.249   8.489  15.216  0.00  0.00    +0.000 HD
ATOM      5  C   UNL     1     -14.125   6.712  15.870  0.00  0.00    +0.000 C 
ENDROOT
BRANCH   3   9
ATOM      6  N   UNL     1     -11.488  10.303  17.356  0.00  0.00    +0.000 NA
ATOM      7  N   UNL     1      -8.284  12.035  15.899  0.00  0.00    +0.000 N 
ATOM      8  C   UNL     1     -10.129   8.803  15.615  0.00  0.00    +0.000 C 
ATOM      9  C   UNL     1     -11.214   9.007  16.714  0.00  0.00    +0.000 C 
ATOM     10  C   UNL     1      -9.120   9.988  15.496  0.00  0.00    +0.000 A 
ATOM     11  C   UNL     1      -9.282  11.171  16.189  0.00  0.00    +0.000 A 
ATOM     12  C   UNL     1     -10.804   8.740  14.212  0.00  0.00    +0.000 C 
ATOM     13  C   UNL     1      -9.249   7.570  15.972  0.00  0.00    +0.000 C 
ATOM     14  C   UNL     1      -7.923  10.174  14.715  0.00  0.00    +0.000 A 
ATOM     15  C   UNL     1     -10.415  11.197  17.008  0.00  0.00    +0.000 C 
ATOM     16  C   UNL     1      -7.424  11.462  14.993  0.00  0.00    +0.000 A 
ATOM     17  C   UNL     1     -11.498  10.179  18.805  0.00  0.00    +0.000 C 
ATOM     18  C   UNL     1      -7.224   9.367  13.795  0.00  0.00    +0.000 A 
ATOM     19  C   UNL     1      -8.170  13.344  16.445  0.00  0.00    +0.000 C 
ATOM     20  C   UNL     1      -6.258  11.957  14.388  0.00  0.00    +0.000 A 
ATOM     21  C   UNL     1      -6.065   9.854  13.191  0.00  0.00    +0.000 A 
ATOM     22  C   UNL     1      -5.592  11.126  13.486  0.00  0.00    +0.000 A 
ENDBRANCH   3   9
BRANCH   5  25
ATOM     23  O   UNL     1     -13.245   4.641  16.465  0.00  0.00    +0.000 OA
ATOM     24  N   UNL     1     -14.766   5.638  17.974  0.00  0.00    +0.000 N 
ATOM     25  C   UNL     1     -14.014   5.545  16.778  0.00  0.00    +0.000 C 
ATOM     26  C   UNL     1     -15.705   6.723  18.280  0.00  0.00    +0.000 C 
BRANCH  24  27
ATOM     27  C   UNL     1     -14.626   4.666  18.981  0.00  0.00    +0.000 C 
ATOM     28  C   UNL     1     -13.476   4.647  19.843  0.00  0.00    +0.000 C 
ATOM     29  C   UNL     1     -12.438   4.624  20.627  0.00  0.00    +0.000 C 
ATOM     30  C   UNL     1     -12.712   4.957  22.078  0.00  0.00    +0.000 C 
BRANCH  27  31
ATOM     31  C   UNL     1     -15.645   3.653  19.212  0.00  0.00    +0.000 C 
ATOM     32  C   UNL     1     -16.201   3.424  20.604  0.00  0.00    +0.000 C 
ATOM     33  C   UNL     1     -16.583   3.265  18.083  0.00  0.00    +0.000 C 
ENDBRANCH  27  31
BRANCH  29  35
ATOM     34  O   UNL     1     -10.118   3.972  20.734  0.00  0.00    +0.000 OA
ATOM     35  C   UNL     1     -11.099   4.283  20.073  0.00  0.00    +0.000 C 
BRANCH  35  36
ATOM     36  O   UNL     1     -11.017   4.341  18.727  0.00  0.00    +0.000 OA
ATOM     37  H   UNL     1     -11.930   4.513  18.420  0.00  0.00    +0.000 HD
ENDBRANCH  35  36
ENDBRANCH  29  35
ENDBRANCH  24  27
ENDBRANCH   5  25
BRANCH   5  38
ATOM     38  C   UNL     1     -15.150   6.563  14.757  0.00  0.00    +0.000 C 
ATOM     39  C   UNL     1     -16.112   7.789  14.865  0.00  0.00    +0.000 C 
ATOM     40  C   UNL     1     -14.396   6.653  13.399  0.00  0.00    +0.000 C 
ATOM     41  C   UNL     1     -15.980   5.259  14.850  0.00  0.00    +0.000 C 
ENDBRANCH   5  38
TORSDOF 7
ENDMDL
MODEL 9
REMARK VINA RESULT:      -5.3     14.539     17.785
REMARK  Name = 10940649_MilnamideD.pdbqt.pdb
REMARK  7 active torsions:
REMARK  status: ('A' for Active; 'I' for Inactive)
REMARK    1  A    between atoms: C_3  and  C_8
REMARK    2  A    between atoms: C_22  and  C_25
REMARK    3  A    between atoms: C_22  and  C_38
REMARK    4  A    between atoms: N_24  and  C_27
REMARK    5  A    between atoms: C_27  and  C_28
REMARK    6  A    between atoms: C_32  and  C_35
REMARK    7  A    between atoms: C_35  and  O_36
REMARK                            x       y       z     vdW  Elec       q    Type
REMARK                         _______ _______ _______ _____ _____    ______ ____
ROOT
ATOM      1  O   UNL     1     -19.291   3.859  15.256  0.00  0.00    +0.000 OA
ATOM      2  N   UNL     1     -17.647   4.957  14.139  0.00  0.00    +0.000 N 
ATOM      3  C   UNL     1     -18.856   4.290  14.195  0.00  0.00    +0.000 C 
ATOM      4  H   UNL     1     -17.271   5.211  13.219  0.00  0.00    +0.000 HD
ATOM      5  C   UNL     1     -16.833   5.261  15.258  0.00  0.00    +0.000 C 
ENDROOT
BRANCH   3   9
ATOM      6  N   UNL     1     -19.143   3.122  11.919  0.00  0.00    +0.000 NA
ATOM      7  N   UNL     1     -21.880   4.056   9.270  0.00  0.00    +0.000 N 
ATOM      8  C   UNL     1     -20.607   5.259  12.565  0.00  0.00    +0.000 C 
ATOM      9  C   UNL     1     -19.589   4.128  12.897  0.00  0.00    +0.000 C 
ATOM     10  C   UNL     1     -21.385   5.037  11.229  0.00  0.00    +0.000 A 
ATOM     11  C   UNL     1     -21.072   4.019  10.352  0.00  0.00    +0.000 A 
ATOM     12  C   UNL     1     -19.851   6.602  12.343  0.00  0.00    +0.000 C 
ATOM     13  C   UNL     1     -21.712   5.305  13.660  0.00  0.00    +0.000 C 
ATOM     14  C   UNL     1     -22.469   5.750  10.603  0.00  0.00    +0.000 A 
ATOM     15  C   UNL     1     -20.016   3.207  10.778  0.00  0.00    +0.000 C 
ATOM     16  C   UNL     1     -22.757   5.109   9.382  0.00  0.00    +0.000 A 
ATOM     17  C   UNL     1     -19.264   1.776  12.459  0.00  0.00    +0.000 C 
ATOM     18  C   UNL     1     -23.227   6.883  10.962  0.00  0.00    +0.000 A 
ATOM     19  C   UNL     1     -21.807   3.145   8.178  0.00  0.00    +0.000 C 
ATOM     20  C   UNL     1     -23.771   5.561   8.523  0.00  0.00    +0.000 A 
ATOM     21  C   UNL     1     -24.235   7.336  10.112  0.00  0.00    +0.000 A 
ATOM     22  C   UNL     1     -24.502   6.683   8.915  0.00  0.00    +0.000 A 
ENDBRANCH   3   9
BRANCH   5  25
ATOM     23  O   UNL     1     -18.092   5.870  17.118  0.00  0.00    +0.000 OA
ATOM     24  N   UNL     1     -16.954   3.802  17.220  0.00  0.00    +0.000 N 
ATOM     25  C   UNL     1     -17.340   5.031  16.632  0.00  0.00    +0.000 C 
ATOM     26  C   UNL     1     -16.015   2.852  16.612  0.00  0.00    +0.000 C 
BRANCH  24  27
ATOM     27  C   UNL     1     -17.492   3.404  18.456  0.00  0.00    +0.000 C 
ATOM     28  C   UNL     1     -18.839   2.912  18.558  0.00  0.00    +0.000 C 
ATOM     29  C   UNL     1     -20.057   2.467  18.658  0.00  0.00    +0.000 C 
ATOM     30  C   UNL     1     -20.186   1.002  19.019  0.00  0.00    +0.000 C 
BRANCH  27  31
ATOM     31  C   UNL     1     -16.707   3.446  19.681  0.00  0.00    +0.000 C 
ATOM     32  C   UNL     1     -15.990   4.717  20.091  0.00  0.00    +0.000 C 
ATOM     33  C   UNL     1     -17.062   2.520  20.829  0.00  0.00    +0.000 C 
ENDBRANCH  27  31
BRANCH  29  35
ATOM     34  O   UNL     1     -22.343   3.216  18.834  0.00  0.00    +0.000 OA
ATOM     35  C   UNL     1     -21.204   3.386  18.424  0.00  0.00    +0.000 C 
BRANCH  35  36
ATOM     36  O   UNL     1     -20.906   4.480  17.692  0.00  0.00    +0.000 OA
ATOM     37  H   UNL     1     -20.646   5.164  18.343  0.00  0.00    +0.000 HD
ENDBRANCH  35  36
ENDBRANCH  29  35
ENDBRANCH  24  27
ENDBRANCH   5  25
BRANCH   5  38
ATOM     38  C   UNL     1     -15.546   6.065  15.175  0.00  0.00    +0.000 C 
ATOM     39  C   UNL     1     -14.624   5.334  14.147  0.00  0.00    +0.000 C 
ATOM     40  C   UNL     1     -15.896   7.468  14.603  0.00  0.00    +0.000 C 
ATOM     41  C   UNL     1     -14.801   6.183  16.528  0.00  0.00    +0.000 C 
ENDBRANCH   5  38
TORSDOF 7
ENDMDL
