MODEL 1
REMARK VINA RESULT:      -6.9      0.000      0.000
REMARK  Name = 11167602_Regorafenib.pdbqt.pdb
REMARK  6 active torsions:
REMARK  status: ('A' for Active; 'I' for Inactive)
REMARK    1  A    between atoms: C_2  and  N_10
REMARK    2  A    between atoms: C_3  and  O_25
REMARK    3  A    between atoms: N_9  and  C_15
REMARK    4  A    between atoms: C_16  and  C_24
REMARK    5  A    between atoms: O_25  and  C_27
REMARK    6  A    between atoms: C_29  and  C_34
REMARK                            x       y       z     vdW  Elec       q    Type
REMARK                         _______ _______ _______ _____ _____    ______ ____
ROOT
ATOM      1  F   UNL     1       5.171 -12.861  14.073  0.00  0.00    +0.000 F 
ATOM      2  C   UNL     1       3.484 -11.315  13.469  0.00  0.00    +0.000 A 
ATOM      3  C   UNL     1       5.225 -10.258  11.554  0.00  0.00    +0.000 A 
ATOM      4  C   UNL     1       4.771 -11.836  13.305  0.00  0.00    +0.000 A 
ATOM      5  C   UNL     1       3.089 -10.241  12.673  0.00  0.00    +0.000 A 
ATOM      6  C   UNL     1       5.651 -11.310  12.365  0.00  0.00    +0.000 A 
ATOM      7  C   UNL     1       3.959  -9.703  11.726  0.00  0.00    +0.000 A 
ENDROOT
BRANCH   2  10
ATOM      8  O   UNL     1       3.579 -11.034  16.358  0.00  0.00    +0.000 OA
ATOM      9  N   UNL     1       1.732 -12.421  16.464  0.00  0.00    +0.000 N 
ATOM     10  N   UNL     1       2.642 -11.904  14.435  0.00  0.00    +0.000 N 
ATOM     11  C   UNL     1       2.730 -11.721  15.805  0.00  0.00    +0.000 C 
ATOM     12  H   UNL     1       1.066 -12.933  15.903  0.00  0.00    +0.000 HD
ATOM     13  H   UNL     1       1.927 -12.521  14.074  0.00  0.00    +0.000 HD
BRANCH   9  15
ATOM     14 CL   UNL     1       0.930 -12.435  22.330  0.00  0.00    +0.000 Cl
ATOM     15  C   UNL     1       1.544 -12.458  17.858  0.00  0.00    +0.000 A 
ATOM     16  C   UNL     1       1.178 -11.187  19.908  0.00  0.00    +0.000 A 
ATOM     17  C   UNL     1       1.371 -11.244  18.522  0.00  0.00    +0.000 A 
ATOM     18  C   UNL     1       1.522 -13.639  18.592  0.00  0.00    +0.000 A 
ATOM     19  C   UNL     1       1.160 -12.384  20.625  0.00  0.00    +0.000 A 
ATOM     20  C   UNL     1       1.332 -13.604  19.970  0.00  0.00    +0.000 A 
BRANCH  16  24
ATOM     21  F   UNL     1       2.078  -9.472  21.298  0.00  0.00    +0.000 F 
ATOM     22  F   UNL     1       0.804  -8.846  19.660  0.00  0.00    +0.000 F 
ATOM     23  F   UNL     1      -0.058  -9.815  21.415  0.00  0.00    +0.000 F 
ATOM     24  C   UNL     1       0.998  -9.852  20.557  0.00  0.00    +0.000 C 
ENDBRANCH  16  24
ENDBRANCH   9  15
ENDBRANCH   2  10
BRANCH   3  25
ATOM     25  O   UNL     1       6.066  -9.640  10.658  0.00  0.00    +0.000 OA
BRANCH  25  27
ATOM     26  N   UNL     1       5.824  -5.526  10.008  0.00  0.00    +0.000 NA
ATOM     27  C   UNL     1       5.967  -8.274  10.520  0.00  0.00    +0.000 A 
ATOM     28  C   UNL     1       6.438  -7.373  11.469  0.00  0.00    +0.000 A 
ATOM     29  C   UNL     1       6.334  -6.025  11.170  0.00  0.00    +0.000 A 
ATOM     30  C   UNL     1       5.459  -7.814   9.309  0.00  0.00    +0.000 A 
ATOM     31  C   UNL     1       5.404  -6.445   9.108  0.00  0.00    +0.000 A 
BRANCH  29  34
ATOM     32  O   UNL     1       7.217  -3.931  11.801  0.00  0.00    +0.000 OA
ATOM     33  N   UNL     1       6.680  -5.479  13.469  0.00  0.00    +0.000 N 
ATOM     34  C   UNL     1       6.793  -5.023  12.167  0.00  0.00    +0.000 C 
ATOM     35  C   UNL     1       7.002  -4.862  14.726  0.00  0.00    +0.000 C 
ATOM     36  H   UNL     1       6.304  -6.423  13.551  0.00  0.00    +0.000 HD
ENDBRANCH  29  34
ENDBRANCH  25  27
ENDBRANCH   3  25
TORSDOF 6
ENDMDL
MODEL 2
REMARK VINA RESULT:      -6.7     17.660     20.175
REMARK  Name = 11167602_Regorafenib.pdbqt.pdb
REMARK  6 active torsions:
REMARK  status: ('A' for Active; 'I' for Inactive)
REMARK    1  A    between atoms: C_2  and  N_10
REMARK    2  A    between atoms: C_3  and  O_25
REMARK    3  A    between atoms: N_9  and  C_15
REMARK    4  A    between atoms: C_16  and  C_24
REMARK    5  A    between atoms: O_25  and  C_27
REMARK    6  A    between atoms: C_29  and  C_34
REMARK                            x       y       z     vdW  Elec       q    Type
REMARK                         _______ _______ _______ _____ _____    ______ ____
ROOT
ATOM      1  F   UNL     1      -9.193 -10.005  29.060  0.00  0.00    +0.000 F 
ATOM      2  C   UNL     1      -9.741  -9.343  26.854  0.00  0.00    +0.000 A 
ATOM      3  C   UNL     1      -8.004  -7.172  27.140  0.00  0.00    +0.000 A 
ATOM      4  C   UNL     1      -9.037  -9.141  28.045  0.00  0.00    +0.000 A 
ATOM      5  C   UNL     1      -9.579  -8.429  25.815  0.00  0.00    +0.000 A 
ATOM      6  C   UNL     1      -8.180  -8.056  28.204  0.00  0.00    +0.000 A 
ATOM      7  C   UNL     1      -8.723  -7.338  25.958  0.00  0.00    +0.000 A 
ENDROOT
BRANCH   2  10
ATOM      8  O   UNL     1     -12.597  -9.505  27.360  0.00  0.00    +0.000 OA
ATOM      9  N   UNL     1     -12.480 -11.743  26.791  0.00  0.00    +0.000 N 
ATOM     10  N   UNL     1     -10.586 -10.469  26.760  0.00  0.00    +0.000 N 
ATOM     11  C   UNL     1     -11.949 -10.480  27.003  0.00  0.00    +0.000 C 
ATOM     12  H   UNL     1     -11.857 -12.469  26.469  0.00  0.00    +0.000 HD
ATOM     13  H   UNL     1     -10.133 -11.335  26.504  0.00  0.00    +0.000 HD
BRANCH   9  15
ATOM     14 CL   UNL     1     -18.186 -13.219  27.360  0.00  0.00    +0.000 Cl
ATOM     15  C   UNL     1     -13.831 -12.100  26.959  0.00  0.00    +0.000 A 
ATOM     16  C   UNL     1     -16.022 -12.364  25.919  0.00  0.00    +0.000 A 
ATOM     17  C   UNL     1     -14.665 -12.027  25.843  0.00  0.00    +0.000 A 
ATOM     18  C   UNL     1     -14.362 -12.519  28.175  0.00  0.00    +0.000 A 
ATOM     19  C   UNL     1     -16.535 -12.781  27.149  0.00  0.00    +0.000 A 
ATOM     20  C   UNL     1     -15.708 -12.857  28.270  0.00  0.00    +0.000 A 
BRANCH  16  24
ATOM     21  F   UNL     1     -17.929 -11.430  24.834  0.00  0.00    +0.000 F 
ATOM     22  F   UNL     1     -16.173 -11.783  23.613  0.00  0.00    +0.000 F 
ATOM     23  F   UNL     1     -17.388 -13.460  24.302  0.00  0.00    +0.000 F 
ATOM     24  C   UNL     1     -16.860 -12.265  24.684  0.00  0.00    +0.000 C 
ENDBRANCH  16  24
ENDBRANCH   9  15
ENDBRANCH   2  10
BRANCH   3  25
ATOM     25  O   UNL     1      -7.232  -6.039  27.253  0.00  0.00    +0.000 OA
BRANCH  25  27
ATOM     26  N   UNL     1      -8.639  -2.380  25.825  0.00  0.00    +0.000 NA
ATOM     27  C   UNL     1      -7.768  -4.850  26.811  0.00  0.00    +0.000 A 
ATOM     28  C   UNL     1      -8.656  -4.085  27.561  0.00  0.00    +0.000 A 
ATOM     29  C   UNL     1      -9.063  -2.876  27.022  0.00  0.00    +0.000 A 
ATOM     30  C   UNL     1      -7.289  -4.375  25.594  0.00  0.00    +0.000 A 
ATOM     31  C   UNL     1      -7.757  -3.150  25.147  0.00  0.00    +0.000 A 
BRANCH  29  34
ATOM     32  O   UNL     1      -9.878  -1.823  28.967  0.00  0.00    +0.000 OA
ATOM     33  N   UNL     1     -11.069  -1.583  26.969  0.00  0.00    +0.000 N 
ATOM     34  C   UNL     1     -10.036  -2.039  27.770  0.00  0.00    +0.000 C 
ATOM     35  C   UNL     1     -12.212  -0.763  27.264  0.00  0.00    +0.000 C 
ATOM     36  H   UNL     1     -11.011  -1.884  25.997  0.00  0.00    +0.000 HD
ENDBRANCH  29  34
ENDBRANCH  25  27
ENDBRANCH   3  25
TORSDOF 6
ENDMDL
MODEL 3
REMARK VINA RESULT:      -6.4     17.965     21.359
REMARK  Name = 11167602_Regorafenib.pdbqt.pdb
REMARK  6 active torsions:
REMARK  status: ('A' for Active; 'I' for Inactive)
REMARK    1  A    between atoms: C_2  and  N_10
REMARK    2  A    between atoms: C_3  and  O_25
REMARK    3  A    between atoms: N_9  and  C_15
REMARK    4  A    between atoms: C_16  and  C_24
REMARK    5  A    between atoms: O_25  and  C_27
REMARK    6  A    between atoms: C_29  and  C_34
REMARK                            x       y       z     vdW  Elec       q    Type
REMARK                         _______ _______ _______ _____ _____    ______ ____
ROOT
ATOM      1  F   UNL     1      -8.667  -2.587  28.842  0.00  0.00    +0.000 F 
ATOM      2  C   UNL     1      -8.093  -2.457  26.550  0.00  0.00    +0.000 A 
ATOM      3  C   UNL     1      -7.761  -5.232  26.540  0.00  0.00    +0.000 A 
ATOM      4  C   UNL     1      -8.299  -3.208  27.711  0.00  0.00    +0.000 A 
ATOM      5  C   UNL     1      -7.698  -3.115  25.386  0.00  0.00    +0.000 A 
ATOM      6  C   UNL     1      -8.124  -4.587  27.722  0.00  0.00    +0.000 A 
ATOM      7  C   UNL     1      -7.518  -4.498  25.381  0.00  0.00    +0.000 A 
ENDROOT
BRANCH   2  10
ATOM      8  O   UNL     1     -10.478  -0.953  25.852  0.00  0.00    +0.000 OA
ATOM      9  N   UNL     1      -9.342   0.963  26.473  0.00  0.00    +0.000 N 
ATOM     10  N   UNL     1      -8.299  -1.062  26.609  0.00  0.00    +0.000 N 
ATOM     11  C   UNL     1      -9.469  -0.402  26.272  0.00  0.00    +0.000 C 
ATOM     12  H   UNL     1      -8.472   1.306  26.853  0.00  0.00    +0.000 HD
ATOM     13  H   UNL     1      -7.505  -0.516  26.914  0.00  0.00    +0.000 HD
BRANCH   9  15
ATOM     14 CL   UNL     1     -13.477   5.033  25.288  0.00  0.00    +0.000 Cl
ATOM     15  C   UNL     1     -10.341   1.922  26.220  0.00  0.00    +0.000 A 
ATOM     16  C   UNL     1     -11.165   3.676  24.738  0.00  0.00    +0.000 A 
ATOM     17  C   UNL     1     -10.218   2.699  25.068  0.00  0.00    +0.000 A 
ATOM     18  C   UNL     1     -11.433   2.124  27.058  0.00  0.00    +0.000 A 
ATOM     19  C   UNL     1     -12.252   3.863  25.593  0.00  0.00    +0.000 A 
ATOM     20  C   UNL     1     -12.384   3.090  26.747  0.00  0.00    +0.000 A 
BRANCH  16  24
ATOM     21  F   UNL     1      -9.858   4.108  22.790  0.00  0.00    +0.000 F 
ATOM     22  F   UNL     1     -12.005   4.343  22.610  0.00  0.00    +0.000 F 
ATOM     23  F   UNL     1     -10.830   5.806  23.722  0.00  0.00    +0.000 F 
ATOM     24  C   UNL     1     -10.973   4.473  23.487  0.00  0.00    +0.000 C 
ENDBRANCH  16  24
ENDBRANCH   9  15
ENDBRANCH   2  10
BRANCH   3  25
ATOM     25  O   UNL     1      -7.497  -6.581  26.495  0.00  0.00    +0.000 OA
BRANCH  25  27
ATOM     26  N   UNL     1     -10.159  -9.343  28.137  0.00  0.00    +0.000 NA
ATOM     27  C   UNL     1      -8.432  -7.437  27.033  0.00  0.00    +0.000 A 
ATOM     28  C   UNL     1      -9.743  -7.523  26.576  0.00  0.00    +0.000 A 
ATOM     29  C   UNL     1     -10.558  -8.476  27.164  0.00  0.00    +0.000 A 
ATOM     30  C   UNL     1      -7.971  -8.315  28.009  0.00  0.00    +0.000 A 
ATOM     31  C   UNL     1      -8.868  -9.236  28.528  0.00  0.00    +0.000 A 
BRANCH  29  34
ATOM     32  O   UNL     1     -12.760  -7.664  26.942  0.00  0.00    +0.000 OA
ATOM     33  N   UNL     1     -12.252  -9.790  26.112  0.00  0.00    +0.000 N 
ATOM     34  C   UNL     1     -11.976  -8.584  26.733  0.00  0.00    +0.000 C 
ATOM     35  C   UNL     1     -13.465 -10.318  25.550  0.00  0.00    +0.000 C 
ATOM     36  H   UNL     1     -11.453 -10.419  26.043  0.00  0.00    +0.000 HD
ENDBRANCH  29  34
ENDBRANCH  25  27
ENDBRANCH   3  25
TORSDOF 6
ENDMDL
MODEL 4
REMARK VINA RESULT:      -6.3     23.684     26.373
REMARK  Name = 11167602_Regorafenib.pdbqt.pdb
REMARK  6 active torsions:
REMARK  status: ('A' for Active; 'I' for Inactive)
REMARK    1  A    between atoms: C_2  and  N_10
REMARK    2  A    between atoms: C_3  and  O_25
REMARK    3  A    between atoms: N_9  and  C_15
REMARK    4  A    between atoms: C_16  and  C_24
REMARK    5  A    between atoms: O_25  and  C_27
REMARK    6  A    between atoms: C_29  and  C_34
REMARK                            x       y       z     vdW  Elec       q    Type
REMARK                         _______ _______ _______ _____ _____    ______ ____
ROOT
ATOM      1  F   UNL     1     -12.008   2.232   1.760  0.00  0.00    +0.000 F 
ATOM      2  C   UNL     1     -11.838   4.064   0.271  0.00  0.00    +0.000 A 
ATOM      3  C   UNL     1     -14.136   3.142  -1.027  0.00  0.00    +0.000 A 
ATOM      4  C   UNL     1     -12.490   2.905   0.703  0.00  0.00    +0.000 A 
ATOM      5  C   UNL     1     -12.343   4.744  -0.836  0.00  0.00    +0.000 A 
ATOM      6  C   UNL     1     -13.626   2.429   0.057  0.00  0.00    +0.000 A 
ATOM      7  C   UNL     1     -13.481   4.279  -1.494  0.00  0.00    +0.000 A 
ENDROOT
BRANCH   2  10
ATOM      8  O   UNL     1     -11.711   5.414   2.840  0.00  0.00    +0.000 OA
ATOM      9  N   UNL     1      -9.408   5.387   2.639  0.00  0.00    +0.000 N 
ATOM     10  N   UNL     1     -10.697   4.495   0.980  0.00  0.00    +0.000 N 
ATOM     11  C   UNL     1     -10.701   5.125   2.213  0.00  0.00    +0.000 C 
ATOM     12  H   UNL     1      -8.646   5.077   2.053  0.00  0.00    +0.000 HD
ATOM     13  H   UNL     1      -9.811   4.331   0.522  0.00  0.00    +0.000 HD
BRANCH   9  15
ATOM     14 CL   UNL     1      -7.885   7.954   7.752  0.00  0.00    +0.000 Cl
ATOM     15  C   UNL     1      -9.059   6.026   3.843  0.00  0.00    +0.000 A 
ATOM     16  C   UNL     1      -8.066   5.810   6.061  0.00  0.00    +0.000 A 
ATOM     17  C   UNL     1      -8.448   5.257   4.833  0.00  0.00    +0.000 A 
ATOM     18  C   UNL     1      -9.292   7.376   4.084  0.00  0.00    +0.000 A 
ATOM     19  C   UNL     1      -8.311   7.167   6.282  0.00  0.00    +0.000 A 
ATOM     20  C   UNL     1      -8.921   7.944   5.298  0.00  0.00    +0.000 A 
BRANCH  16  24
ATOM     21  F   UNL     1      -8.144   4.813   8.226  0.00  0.00    +0.000 F 
ATOM     22  F   UNL     1      -7.230   3.655   6.638  0.00  0.00    +0.000 F 
ATOM     23  F   UNL     1      -6.194   5.384   7.473  0.00  0.00    +0.000 F 
ATOM     24  C   UNL     1      -7.414   4.929   7.079  0.00  0.00    +0.000 C 
ENDBRANCH  16  24
ENDBRANCH   9  15
ENDBRANCH   2  10
BRANCH   3  25
ATOM     25  O   UNL     1     -15.209   2.689  -1.759  0.00  0.00    +0.000 OA
BRANCH  25  27
ATOM     26  N   UNL     1     -18.858   1.897   0.102  0.00  0.00    +0.000 NA
ATOM     27  C   UNL     1     -16.400   2.489  -1.097  0.00  0.00    +0.000 A 
ATOM     28  C   UNL     1     -17.241   3.526  -0.706  0.00  0.00    +0.000 A 
ATOM     29  C   UNL     1     -18.441   3.177  -0.108  0.00  0.00    +0.000 A 
ATOM     30  C   UNL     1     -16.792   1.165  -0.924  0.00  0.00    +0.000 A 
ATOM     31  C   UNL     1     -18.016   0.926  -0.320  0.00  0.00    +0.000 A 
BRANCH  29  34
ATOM     32  O   UNL     1     -19.615   5.205  -0.368  0.00  0.00    +0.000 OA
ATOM     33  N   UNL     1     -19.836   4.021   1.636  0.00  0.00    +0.000 N 
ATOM     34  C   UNL     1     -19.358   4.250   0.357  0.00  0.00    +0.000 C 
ATOM     35  C   UNL     1     -20.727   4.781   2.470  0.00  0.00    +0.000 C 
ATOM     36  H   UNL     1     -19.492   3.163   2.065  0.00  0.00    +0.000 HD
ENDBRANCH  29  34
ENDBRANCH  25  27
ENDBRANCH   3  25
TORSDOF 6
ENDMDL
MODEL 5
REMARK VINA RESULT:      -6.3     23.051     25.990
REMARK  Name = 11167602_Regorafenib.pdbqt.pdb
REMARK  6 active torsions:
REMARK  status: ('A' for Active; 'I' for Inactive)
REMARK    1  A    between atoms: C_2  and  N_10
REMARK    2  A    between atoms: C_3  and  O_25
REMARK    3  A    between atoms: N_9  and  C_15
REMARK    4  A    between atoms: C_16  and  C_24
REMARK    5  A    between atoms: O_25  and  C_27
REMARK    6  A    between atoms: C_29  and  C_34
REMARK                            x       y       z     vdW  Elec       q    Type
REMARK                         _______ _______ _______ _____ _____    ______ ____
ROOT
ATOM      1  F   UNL     1     -12.454   2.232   1.554  0.00  0.00    +0.000 F 
ATOM      2  C   UNL     1     -11.991   4.032   0.088  0.00  0.00    +0.000 A 
ATOM      3  C   UNL     1     -14.457   3.578  -1.148  0.00  0.00    +0.000 A 
ATOM      4  C   UNL     1     -12.834   3.005   0.524  0.00  0.00    +0.000 A 
ATOM      5  C   UNL     1     -12.394   4.816  -0.992  0.00  0.00    +0.000 A 
ATOM      6  C   UNL     1     -14.057   2.760  -0.091  0.00  0.00    +0.000 A 
ATOM      7  C   UNL     1     -13.617   4.584  -1.619  0.00  0.00    +0.000 A 
ENDROOT
BRANCH   2  10
ATOM      8  O   UNL     1     -11.439   5.774   2.345  0.00  0.00    +0.000 OA
ATOM      9  N   UNL     1      -9.259   5.004   2.291  0.00  0.00    +0.000 N 
ATOM     10  N   UNL     1     -10.769   4.228   0.765  0.00  0.00    +0.000 N 
ATOM     11  C   UNL     1     -10.571   5.068   1.848  0.00  0.00    +0.000 C 
ATOM     12  H   UNL     1      -8.634   4.363   1.824  0.00  0.00    +0.000 HD
ATOM     13  H   UNL     1      -9.981   3.711   0.403  0.00  0.00    +0.000 HD
BRANCH   9  15
ATOM     14 CL   UNL     1      -6.981   7.972   6.880  0.00  0.00    +0.000 Cl
ATOM     15  C   UNL     1      -8.723   5.738   3.365  0.00  0.00    +0.000 A 
ATOM     16  C   UNL     1      -7.756   5.679   5.604  0.00  0.00    +0.000 A 
ATOM     17  C   UNL     1      -8.303   5.030   4.491  0.00  0.00    +0.000 A 
ATOM     18  C   UNL     1      -8.594   7.123   3.351  0.00  0.00    +0.000 A 
ATOM     19  C   UNL     1      -7.637   7.069   5.569  0.00  0.00    +0.000 A 
ATOM     20  C   UNL     1      -8.054   7.787   4.448  0.00  0.00    +0.000 A 
BRANCH  16  24
ATOM     21  F   UNL     1      -8.102   5.060   7.881  0.00  0.00    +0.000 F 
ATOM     22  F   UNL     1      -7.378   3.520   6.539  0.00  0.00    +0.000 F 
ATOM     23  F   UNL     1      -6.053   5.131   7.179  0.00  0.00    +0.000 F 
ATOM     24  C   UNL     1      -7.325   4.859   6.778  0.00  0.00    +0.000 C 
ENDBRANCH  16  24
ENDBRANCH   9  15
ENDBRANCH   2  10
BRANCH   3  25
ATOM     25  O   UNL     1     -15.617   3.347  -1.850  0.00  0.00    +0.000 OA
BRANCH  25  27
ATOM     26  N   UNL     1     -16.248  -0.533  -3.247  0.00  0.00    +0.000 NA
ATOM     27  C   UNL     1     -15.806   2.092  -2.384  0.00  0.00    +0.000 A 
ATOM     28  C   UNL     1     -14.967   1.533  -3.342  0.00  0.00    +0.000 A 
ATOM     29  C   UNL     1     -15.236   0.235  -3.741  0.00  0.00    +0.000 A 
ATOM     30  C   UNL     1     -16.839   1.340  -1.832  0.00  0.00    +0.000 A 
ATOM     31  C   UNL     1     -17.019   0.047  -2.299  0.00  0.00    +0.000 A 
BRANCH  29  34
ATOM     32  O   UNL     1     -13.652   0.295  -5.486  0.00  0.00    +0.000 OA
ATOM     33  N   UNL     1     -14.548  -1.767  -4.845  0.00  0.00    +0.000 N 
ATOM     34  C   UNL     1     -14.387  -0.393  -4.786  0.00  0.00    +0.000 C 
ATOM     35  C   UNL     1     -13.944  -2.762  -5.689  0.00  0.00    +0.000 C 
ATOM     36  H   UNL     1     -15.216  -2.141  -4.172  0.00  0.00    +0.000 HD
ENDBRANCH  29  34
ENDBRANCH  25  27
ENDBRANCH   3  25
TORSDOF 6
ENDMDL
MODEL 6
REMARK VINA RESULT:      -6.3     23.360     26.241
REMARK  Name = 11167602_Regorafenib.pdbqt.pdb
REMARK  6 active torsions:
REMARK  status: ('A' for Active; 'I' for Inactive)
REMARK    1  A    between atoms: C_2  and  N_10
REMARK    2  A    between atoms: C_3  and  O_25
REMARK    3  A    between atoms: N_9  and  C_15
REMARK    4  A    between atoms: C_16  and  C_24
REMARK    5  A    between atoms: O_25  and  C_27
REMARK    6  A    between atoms: C_29  and  C_34
REMARK                            x       y       z     vdW  Elec       q    Type
REMARK                         _______ _______ _______ _____ _____    ______ ____
ROOT
ATOM      1  F   UNL     1     -12.463   2.311   1.569  0.00  0.00    +0.000 F 
ATOM      2  C   UNL     1     -12.005   4.117   0.109  0.00  0.00    +0.000 A 
ATOM      3  C   UNL     1     -14.470   3.661  -1.128  0.00  0.00    +0.000 A 
ATOM      4  C   UNL     1     -12.845   3.086   0.541  0.00  0.00    +0.000 A 
ATOM      5  C   UNL     1     -12.410   4.904  -0.969  0.00  0.00    +0.000 A 
ATOM      6  C   UNL     1     -14.068   2.841  -0.075  0.00  0.00    +0.000 A 
ATOM      7  C   UNL     1     -13.633   4.671  -1.596  0.00  0.00    +0.000 A 
ENDROOT
BRANCH   2  10
ATOM      8  O   UNL     1     -11.470   5.808   2.409  0.00  0.00    +0.000 OA
ATOM      9  N   UNL     1      -9.279   5.073   2.326  0.00  0.00    +0.000 N 
ATOM     10  N   UNL     1     -10.784   4.314   0.786  0.00  0.00    +0.000 N 
ATOM     11  C   UNL     1     -10.594   5.129   1.890  0.00  0.00    +0.000 C 
ATOM     12  H   UNL     1      -8.647   4.455   1.840  0.00  0.00    +0.000 HD
ATOM     13  H   UNL     1      -9.989   3.819   0.407  0.00  0.00    +0.000 HD
BRANCH   9  15
ATOM     14 CL   UNL     1      -7.029   7.954   6.984  0.00  0.00    +0.000 Cl
ATOM     15  C   UNL     1      -8.750   5.787   3.417  0.00  0.00    +0.000 A 
ATOM     16  C   UNL     1      -7.788   5.685   5.656  0.00  0.00    +0.000 A 
ATOM     17  C   UNL     1      -8.328   5.056   4.528  0.00  0.00    +0.000 A 
ATOM     18  C   UNL     1      -8.629   7.173   3.433  0.00  0.00    +0.000 A 
ATOM     19  C   UNL     1      -7.677   7.076   5.652  0.00  0.00    +0.000 A 
ATOM     20  C   UNL     1      -8.096   7.815   4.546  0.00  0.00    +0.000 A 
BRANCH  16  24
ATOM     21  F   UNL     1      -8.136   5.013   7.918  0.00  0.00    +0.000 F 
ATOM     22  F   UNL     1      -7.397   3.508   6.545  0.00  0.00    +0.000 F 
ATOM     23  F   UNL     1      -6.086   5.114   7.225  0.00  0.00    +0.000 F 
ATOM     24  C   UNL     1      -7.354   4.841   6.814  0.00  0.00    +0.000 C 
ENDBRANCH  16  24
ENDBRANCH   9  15
ENDBRANCH   2  10
BRANCH   3  25
ATOM     25  O   UNL     1     -15.630   3.430  -1.831  0.00  0.00    +0.000 OA
BRANCH  25  27
ATOM     26  N   UNL     1     -16.443  -0.434  -3.180  0.00  0.00    +0.000 NA
ATOM     27  C   UNL     1     -15.909   2.133  -2.200  0.00  0.00    +0.000 A 
ATOM     28  C   UNL     1     -16.925   1.376  -1.626  0.00  0.00    +0.000 A 
ATOM     29  C   UNL     1     -17.140   0.108  -2.142  0.00  0.00    +0.000 A 
ATOM     30  C   UNL     1     -15.185   1.632  -3.278  0.00  0.00    +0.000 A 
ATOM     31  C   UNL     1     -15.484   0.353  -3.720  0.00  0.00    +0.000 A 
BRANCH  29  34
ATOM     32  O   UNL     1     -18.587  -0.541  -0.397  0.00  0.00    +0.000 OA
ATOM     33  N   UNL     1     -18.617  -1.750  -2.398  0.00  0.00    +0.000 N 
ATOM     34  C   UNL     1     -18.191  -0.751  -1.539  0.00  0.00    +0.000 C 
ATOM     35  C   UNL     1     -19.595  -2.792  -2.238  0.00  0.00    +0.000 C 
ATOM     36  H   UNL     1     -18.153  -1.749  -3.305  0.00  0.00    +0.000 HD
ENDBRANCH  29  34
ENDBRANCH  25  27
ENDBRANCH   3  25
TORSDOF 6
ENDMDL
MODEL 7
REMARK VINA RESULT:      -6.2     18.029     21.118
REMARK  Name = 11167602_Regorafenib.pdbqt.pdb
REMARK  6 active torsions:
REMARK  status: ('A' for Active; 'I' for Inactive)
REMARK    1  A    between atoms: C_2  and  N_10
REMARK    2  A    between atoms: C_3  and  O_25
REMARK    3  A    between atoms: N_9  and  C_15
REMARK    4  A    between atoms: C_16  and  C_24
REMARK    5  A    between atoms: O_25  and  C_27
REMARK    6  A    between atoms: C_29  and  C_34
REMARK                            x       y       z     vdW  Elec       q    Type
REMARK                         _______ _______ _______ _____ _____    ______ ____
ROOT
ATOM      1  F   UNL     1     -13.416  -7.252  27.086  0.00  0.00    +0.000 F 
ATOM      2  C   UNL     1     -11.852  -8.765  26.156  0.00  0.00    +0.000 A 
ATOM      3  C   UNL     1      -9.796  -7.118  27.092  0.00  0.00    +0.000 A 
ATOM      4  C   UNL     1     -12.138  -7.589  26.856  0.00  0.00    +0.000 A 
ATOM      5  C   UNL     1     -10.519  -9.094  25.912  0.00  0.00    +0.000 A 
ATOM      6  C   UNL     1     -11.124  -6.755  27.315  0.00  0.00    +0.000 A 
ATOM      7  C   UNL     1      -9.492  -8.268  26.367  0.00  0.00    +0.000 A 
ENDROOT
BRANCH   2  10
ATOM      8  O   UNL     1     -13.519 -10.541  27.737  0.00  0.00    +0.000 OA
ATOM      9  N   UNL     1     -14.693 -11.016  25.803  0.00  0.00    +0.000 N 
ATOM     10  N   UNL     1     -12.930  -9.568  25.727  0.00  0.00    +0.000 N 
ATOM     11  C   UNL     1     -13.698 -10.389  26.537  0.00  0.00    +0.000 C 
ATOM     12  H   UNL     1     -14.767 -10.793  24.821  0.00  0.00    +0.000 HD
ATOM     13  H   UNL     1     -13.133  -9.536  24.738  0.00  0.00    +0.000 HD
BRANCH   9  15
ATOM     14 CL   UNL     1     -18.762 -14.721  27.987  0.00  0.00    +0.000 Cl
ATOM     15  C   UNL     1     -15.638 -11.922  26.317  0.00  0.00    +0.000 A 
ATOM     16  C   UNL     1     -17.861 -12.238  27.273  0.00  0.00    +0.000 A 
ATOM     17  C   UNL     1     -16.862 -11.409  26.748  0.00  0.00    +0.000 A 
ATOM     18  C   UNL     1     -15.408 -13.291  26.412  0.00  0.00    +0.000 A 
ATOM     19  C   UNL     1     -17.609 -13.608  27.360  0.00  0.00    +0.000 A 
ATOM     20  C   UNL     1     -16.388 -14.131  26.932  0.00  0.00    +0.000 A 
BRANCH  16  24
ATOM     21  F   UNL     1     -19.133 -10.259  27.666  0.00  0.00    +0.000 F 
ATOM     22  F   UNL     1     -20.209 -11.998  26.948  0.00  0.00    +0.000 F 
ATOM     23  F   UNL     1     -19.474 -11.932  29.001  0.00  0.00    +0.000 F 
ATOM     24  C   UNL     1     -19.150 -11.623  27.716  0.00  0.00    +0.000 C 
ENDBRANCH  16  24
ENDBRANCH   9  15
ENDBRANCH   2  10
BRANCH   3  25
ATOM     25  O   UNL     1      -8.747  -6.305  27.451  0.00  0.00    +0.000 OA
BRANCH  25  27
ATOM     26  N   UNL     1      -8.091  -2.715  25.429  0.00  0.00    +0.000 NA
ATOM     27  C   UNL     1      -8.608  -5.105  26.790  0.00  0.00    +0.000 A 
ATOM     28  C   UNL     1      -9.269  -3.942  27.170  0.00  0.00    +0.000 A 
ATOM     29  C   UNL     1      -8.984  -2.789  26.457  0.00  0.00    +0.000 A 
ATOM     30  C   UNL     1      -7.671  -5.075  25.763  0.00  0.00    +0.000 A 
ATOM     31  C   UNL     1      -7.456  -3.868  25.117  0.00  0.00    +0.000 A 
BRANCH  29  34
ATOM     32  O   UNL     1      -9.096  -0.455  26.770  0.00  0.00    +0.000 OA
ATOM     33  N   UNL     1     -11.014  -1.738  27.147  0.00  0.00    +0.000 N 
ATOM     34  C   UNL     1      -9.689  -1.528  26.804  0.00  0.00    +0.000 C 
ATOM     35  C   UNL     1     -12.050  -0.827  27.549  0.00  0.00    +0.000 C 
ATOM     36  H   UNL     1     -11.306  -2.714  27.113  0.00  0.00    +0.000 HD
ENDBRANCH  29  34
ENDBRANCH  25  27
ENDBRANCH   3  25
TORSDOF 6
ENDMDL
MODEL 8
REMARK VINA RESULT:      -6.2     17.917     21.158
REMARK  Name = 11167602_Regorafenib.pdbqt.pdb
REMARK  6 active torsions:
REMARK  status: ('A' for Active; 'I' for Inactive)
REMARK    1  A    between atoms: C_2  and  N_10
REMARK    2  A    between atoms: C_3  and  O_25
REMARK    3  A    between atoms: N_9  and  C_15
REMARK    4  A    between atoms: C_16  and  C_24
REMARK    5  A    between atoms: O_25  and  C_27
REMARK    6  A    between atoms: C_29  and  C_34
REMARK                            x       y       z     vdW  Elec       q    Type
REMARK                         _______ _______ _______ _____ _____    ______ ____
ROOT
ATOM      1  F   UNL     1     -12.802  -6.122  27.578  0.00  0.00    +0.000 F 
ATOM      2  C   UNL     1     -11.808  -8.010  26.553  0.00  0.00    +0.000 A 
ATOM      3  C   UNL     1      -9.298  -6.937  27.156  0.00  0.00    +0.000 A 
ATOM      4  C   UNL     1     -11.692  -6.786  27.219  0.00  0.00    +0.000 A 
ATOM      5  C   UNL     1     -10.645  -8.680  26.175  0.00  0.00    +0.000 A 
ATOM      6  C   UNL     1     -10.449  -6.235  27.512  0.00  0.00    +0.000 A 
ATOM      7  C   UNL     1      -9.392  -8.141  26.462  0.00  0.00    +0.000 A 
ENDROOT
BRANCH   2  10
ATOM      8  O   UNL     1     -13.586  -9.425  28.362  0.00  0.00    +0.000 OA
ATOM      9  N   UNL     1     -15.126  -9.507  26.640  0.00  0.00    +0.000 N 
ATOM     10  N   UNL     1     -13.101  -8.513  26.297  0.00  0.00    +0.000 N 
ATOM     11  C   UNL     1     -13.908  -9.172  27.209  0.00  0.00    +0.000 C 
ATOM     12  H   UNL     1     -15.296  -9.222  25.687  0.00  0.00    +0.000 HD
ATOM     13  H   UNL     1     -13.441  -8.382  25.354  0.00  0.00    +0.000 HD
BRANCH   9  15
ATOM     14 CL   UNL     1     -19.586 -12.262  29.394  0.00  0.00    +0.000 Cl
ATOM     15  C   UNL     1     -16.170 -10.191  27.290  0.00  0.00    +0.000 A 
ATOM     16  C   UNL     1     -18.318 -10.034  28.436  0.00  0.00    +0.000 A 
ATOM     17  C   UNL     1     -17.237  -9.436  27.778  0.00  0.00    +0.000 A 
ATOM     18  C   UNL     1     -16.184 -11.571  27.464  0.00  0.00    +0.000 A 
ATOM     19  C   UNL     1     -18.311 -11.420  28.601  0.00  0.00    +0.000 A 
ATOM     20  C   UNL     1     -17.249 -12.184  28.117  0.00  0.00    +0.000 A 
BRANCH  16  24
ATOM     21  F   UNL     1     -20.634  -9.468  28.366  0.00  0.00    +0.000 F 
ATOM     22  F   UNL     1     -19.628  -9.271  30.275  0.00  0.00    +0.000 F 
ATOM     23  F   UNL     1     -19.231  -7.845  28.673  0.00  0.00    +0.000 F 
ATOM     24  C   UNL     1     -19.430  -9.166  28.933  0.00  0.00    +0.000 C 
ENDBRANCH  16  24
ENDBRANCH   9  15
ENDBRANCH   2  10
BRANCH   3  25
ATOM     25  O   UNL     1      -8.039  -6.418  27.347  0.00  0.00    +0.000 OA
BRANCH  25  27
ATOM     26  N   UNL     1      -7.161  -2.644  25.799  0.00  0.00    +0.000 NA
ATOM     27  C   UNL     1      -7.794  -5.141  26.893  0.00  0.00    +0.000 A 
ATOM     28  C   UNL     1      -7.549  -4.063  27.737  0.00  0.00    +0.000 A 
ATOM     29  C   UNL     1      -7.251  -2.847  27.144  0.00  0.00    +0.000 A 
ATOM     30  C   UNL     1      -7.692  -4.988  25.514  0.00  0.00    +0.000 A 
ATOM     31  C   UNL     1      -7.382  -3.730  25.023  0.00  0.00    +0.000 A 
BRANCH  29  34
ATOM     32  O   UNL     1      -7.890  -1.257  28.762  0.00  0.00    +0.000 OA
ATOM     33  N   UNL     1      -5.753  -1.117  27.824  0.00  0.00    +0.000 N 
ATOM     34  C   UNL     1      -7.014  -1.659  28.003  0.00  0.00    +0.000 C 
ATOM     35  C   UNL     1      -5.108   0.016  28.429  0.00  0.00    +0.000 C 
ATOM     36  H   UNL     1      -5.180  -1.606  27.137  0.00  0.00    +0.000 HD
ENDBRANCH  29  34
ENDBRANCH  25  27
ENDBRANCH   3  25
TORSDOF 6
ENDMDL
MODEL 9
REMARK VINA RESULT:      -6.2      5.267      6.236
REMARK  Name = 11167602_Regorafenib.pdbqt.pdb
REMARK  6 active torsions:
REMARK  status: ('A' for Active; 'I' for Inactive)
REMARK    1  A    between atoms: C_2  and  N_10
REMARK    2  A    between atoms: C_3  and  O_25
REMARK    3  A    between atoms: N_9  and  C_15
REMARK    4  A    between atoms: C_16  and  C_24
REMARK    5  A    between atoms: O_25  and  C_27
REMARK    6  A    between atoms: C_29  and  C_34
REMARK                            x       y       z     vdW  Elec       q    Type
REMARK                         _______ _______ _______ _____ _____    ______ ____
ROOT
ATOM      1  F   UNL     1       6.252 -12.756  13.455  0.00  0.00    +0.000 F 
ATOM      2  C   UNL     1       4.406 -11.637  12.484  0.00  0.00    +0.000 A 
ATOM      3  C   UNL     1       6.167  -9.681  11.543  0.00  0.00    +0.000 A 
ATOM      4  C   UNL     1       5.777 -11.720  12.747  0.00  0.00    +0.000 A 
ATOM      5  C   UNL     1       3.927 -10.547  11.760  0.00  0.00    +0.000 A 
ATOM      6  C   UNL     1       6.661 -10.746  12.296  0.00  0.00    +0.000 A 
ATOM      7  C   UNL     1       4.800  -9.563  11.300  0.00  0.00    +0.000 A 
ENDROOT
BRANCH   2  10
ATOM      8  O   UNL     1       4.278 -14.409  11.625  0.00  0.00    +0.000 OA
ATOM      9  N   UNL     1       2.640 -14.735  13.224  0.00  0.00    +0.000 N 
ATOM     10  N   UNL     1       3.569 -12.666  12.965  0.00  0.00    +0.000 N 
ATOM     11  C   UNL     1       3.564 -13.978  12.520  0.00  0.00    +0.000 C 
ATOM     12  H   UNL     1       2.124 -14.282  13.964  0.00  0.00    +0.000 HD
ATOM     13  H   UNL     1       2.915 -12.397  13.686  0.00  0.00    +0.000 HD
BRANCH   9  15
ATOM     14 CL   UNL     1       1.510 -20.500  12.486  0.00  0.00    +0.000 Cl
ATOM     15  C   UNL     1       2.375 -16.101  13.015  0.00  0.00    +0.000 A 
ATOM     16  C   UNL     1       1.851 -18.261  14.021  0.00  0.00    +0.000 A 
ATOM     17  C   UNL     1       2.124 -16.893  14.136  0.00  0.00    +0.000 A 
ATOM     18  C   UNL     1       2.353 -16.688  11.754  0.00  0.00    +0.000 A 
ATOM     19  C   UNL     1       1.834 -18.830  12.747  0.00  0.00    +0.000 A 
ATOM     20  C   UNL     1       2.084 -18.047  11.620  0.00  0.00    +0.000 A 
BRANCH  16  24
ATOM     21  F   UNL     1       0.323 -19.555  15.316  0.00  0.00    +0.000 F 
ATOM     22  F   UNL     1       2.412 -20.128  15.392  0.00  0.00    +0.000 F 
ATOM     23  F   UNL     1       1.731 -18.317  16.402  0.00  0.00    +0.000 F 
ATOM     24  C   UNL     1       1.589 -19.051  15.264  0.00  0.00    +0.000 C 
ENDBRANCH  16  24
ENDBRANCH   9  15
ENDBRANCH   2  10
BRANCH   3  25
ATOM     25  O   UNL     1       6.971  -8.644  11.130  0.00  0.00    +0.000 OA
BRANCH  25  27
ATOM     26  N   UNL     1       5.745  -4.870  12.420  0.00  0.00    +0.000 NA
ATOM     27  C   UNL     1       6.614  -7.367  11.500  0.00  0.00    +0.000 A 
ATOM     28  C   UNL     1       6.373  -6.344  10.589  0.00  0.00    +0.000 A 
ATOM     29  C   UNL     1       5.955  -5.126  11.098  0.00  0.00    +0.000 A 
ATOM     30  C   UNL     1       6.391  -7.161  12.858  0.00  0.00    +0.000 A 
ATOM     31  C   UNL     1       5.967  -5.906  13.262  0.00  0.00    +0.000 A 
BRANCH  29  34
ATOM     32  O   UNL     1       5.023  -4.146   9.166  0.00  0.00    +0.000 OA
ATOM     33  N   UNL     1       6.357  -2.833  10.568  0.00  0.00    +0.000 N 
ATOM     34  C   UNL     1       5.718  -3.993  10.166  0.00  0.00    +0.000 C 
ATOM     35  C   UNL     1       6.409  -1.521   9.982  0.00  0.00    +0.000 C 
ATOM     36  H   UNL     1       6.890  -2.925  11.432  0.00  0.00    +0.000 HD
ENDBRANCH  29  34
ENDBRANCH  25  27
ENDBRANCH   3  25
TORSDOF 6
ENDMDL
