MODEL 1
REMARK VINA RESULT:      -5.9      0.000      0.000
REMARK  Name = 114778_Kahweol.pdbqt.pdb
REMARK  3 active torsions:
REMARK  status: ('A' for Active; 'I' for Inactive)
REMARK    1  A    between atoms: C_8  and  O_21
REMARK    2  A    between atoms: C_8  and  C_23
REMARK    3  A    between atoms: C_23  and  O_24
REMARK                            x       y       z     vdW  Elec       q    Type
REMARK                         _______ _______ _______ _____ _____    ______ ____
ROOT
ATOM      1  O   UNL     1      -8.911  -2.585  26.432  0.00  0.00    +0.000 OA
ATOM      2  C   UNL     1     -10.390  -8.638  27.065  0.00  0.00    +0.000 C 
ATOM      3  C   UNL     1     -10.565  -7.450  28.109  0.00  0.00    +0.000 C 
ATOM      4  C   UNL     1     -11.976 -10.066  28.150  0.00  0.00    +0.000 C 
ATOM      5  C   UNL     1     -10.547  -9.903  27.832  0.00  0.00    +0.000 C 
ATOM      6  C   UNL     1     -11.640  -8.762  26.285  0.00  0.00    +0.000 C 
ATOM      7  C   UNL     1      -9.487  -6.379  28.309  0.00  0.00    +0.000 C 
ATOM      8  C   UNL     1     -12.662  -9.716  26.764  0.00  0.00    +0.000 C 
ATOM      9  C   UNL     1      -9.190  -8.422  26.298  0.00  0.00    +0.000 C 
ATOM     10  C   UNL     1     -11.558  -7.767  29.123  0.00  0.00    +0.000 C 
ATOM     11  C   UNL     1     -12.270  -9.122  29.218  0.00  0.00    +0.000 C 
ATOM     12  C   UNL     1      -8.490  -6.135  27.049  0.00  0.00    +0.000 C 
ATOM     13  C   UNL     1      -8.255  -7.258  26.223  0.00  0.00    +0.000 C 
ATOM     14  C   UNL     1      -8.579  -6.786  29.515  0.00  0.00    +0.000 C 
ATOM     15  C   UNL     1     -10.145  -5.064  28.549  0.00  0.00    +0.000 C 
ATOM     16  C   UNL     1      -8.373  -4.788  26.539  0.00  0.00    +0.000 A 
ATOM     17  C   UNL     1     -10.048  -3.959  28.095  0.00  0.00    +0.000 C 
ATOM     18  C   UNL     1      -9.126  -3.754  27.053  0.00  0.00    +0.000 A 
ATOM     19  C   UNL     1      -7.620  -4.207  25.499  0.00  0.00    +0.000 A 
ATOM     20  C   UNL     1      -7.968  -2.863  25.473  0.00  0.00    +0.000 A 
ENDROOT
BRANCH   8  21
ATOM     21  O   UNL     1     -12.670 -10.855  25.921  0.00  0.00    +0.000 OA
ATOM     22  H   UNL     1     -12.584 -11.623  26.511  0.00  0.00    +0.000 HD
ENDBRANCH   8  21
BRANCH   8  23
ATOM     23  C   UNL     1     -14.023  -9.178  26.884  0.00  0.00    +0.000 C 
BRANCH  23  24
ATOM     24  O   UNL     1     -15.252  -8.673  26.990  0.00  0.00    +0.000 OA
ATOM     25  H   UNL     1     -15.565  -8.712  27.911  0.00  0.00    +0.000 HD
ENDBRANCH  23  24
ENDBRANCH   8  23
TORSDOF 3
ENDMDL
MODEL 2
REMARK VINA RESULT:      -5.4     20.171     21.738
REMARK  Name = 114778_Kahweol.pdbqt.pdb
REMARK  3 active torsions:
REMARK  status: ('A' for Active; 'I' for Inactive)
REMARK    1  A    between atoms: C_8  and  O_21
REMARK    2  A    between atoms: C_8  and  C_23
REMARK    3  A    between atoms: C_23  and  O_24
REMARK                            x       y       z     vdW  Elec       q    Type
REMARK                         _______ _______ _______ _____ _____    ______ ____
ROOT
ATOM      1  O   UNL     1       5.020  -8.918  10.913  0.00  0.00    +0.000 OA
ATOM      2  C   UNL     1       5.129 -14.716  13.278  0.00  0.00    +0.000 C 
ATOM      3  C   UNL     1       4.254 -13.466  13.731  0.00  0.00    +0.000 C 
ATOM      4  C   UNL     1       3.706 -16.324  14.337  0.00  0.00    +0.000 C 
ATOM      5  C   UNL     1       5.046 -15.713  14.379  0.00  0.00    +0.000 C 
ATOM      6  C   UNL     1       4.351 -15.496  12.291  0.00  0.00    +0.000 C 
ATOM      7  C   UNL     1       4.838 -12.051  13.811  0.00  0.00    +0.000 C 
ATOM      8  C   UNL     1       3.528 -16.617  12.790  0.00  0.00    +0.000 C 
ATOM      9  C   UNL     1       6.420 -14.256  12.838  0.00  0.00    +0.000 C 
ATOM     10  C   UNL     1       3.079 -13.876  14.483  0.00  0.00    +0.000 C 
ATOM     11  C   UNL     1       2.784 -15.331  14.869  0.00  0.00    +0.000 C 
ATOM     12  C   UNL     1       6.130 -11.767  12.866  0.00  0.00    +0.000 C 
ATOM     13  C   UNL     1       6.958 -12.881  12.600  0.00  0.00    +0.000 C 
ATOM     14  C   UNL     1       5.297 -11.770  15.278  0.00  0.00    +0.000 C 
ATOM     15  C   UNL     1       3.806 -11.072  13.370  0.00  0.00    +0.000 C 
ATOM     16  C   UNL     1       6.058 -10.648  11.953  0.00  0.00    +0.000 A 
ATOM     17  C   UNL     1       3.762 -10.163  12.590  0.00  0.00    +0.000 C 
ATOM     18  C   UNL     1       4.915  -9.887  11.834  0.00  0.00    +0.000 A 
ATOM     19  C   UNL     1       6.958 -10.101  11.017  0.00  0.00    +0.000 A 
ATOM     20  C   UNL     1       6.292  -9.043  10.413  0.00  0.00    +0.000 A 
ENDROOT
BRANCH   8  21
ATOM     21  O   UNL     1       4.150 -17.843  12.449  0.00  0.00    +0.000 OA
ATOM     22  H   UNL     1       4.365 -17.778  11.504  0.00  0.00    +0.000 HD
ENDBRANCH   8  21
BRANCH   8  23
ATOM     23  C   UNL     1       2.132 -16.627  12.335  0.00  0.00    +0.000 C 
BRANCH  23  24
ATOM     24  O   UNL     1       0.861 -16.621  11.931  0.00  0.00    +0.000 OA
ATOM     25  H   UNL     1       0.785 -16.949  11.017  0.00  0.00    +0.000 HD
ENDBRANCH  23  24
ENDBRANCH   8  23
TORSDOF 3
ENDMDL
MODEL 3
REMARK VINA RESULT:      -5.0     11.408     14.248
REMARK  Name = 114778_Kahweol.pdbqt.pdb
REMARK  3 active torsions:
REMARK  status: ('A' for Active; 'I' for Inactive)
REMARK    1  A    between atoms: C_8  and  O_21
REMARK    2  A    between atoms: C_8  and  C_23
REMARK    3  A    between atoms: C_23  and  O_24
REMARK                            x       y       z     vdW  Elec       q    Type
REMARK                         _______ _______ _______ _____ _____    ______ ____
ROOT
ATOM      1  O   UNL     1     -23.651  -7.054  21.357  0.00  0.00    +0.000 OA
ATOM      2  C   UNL     1     -19.734  -2.169  21.450  0.00  0.00    +0.000 C 
ATOM      3  C   UNL     1     -20.451  -2.854  20.205  0.00  0.00    +0.000 C 
ATOM      4  C   UNL     1     -19.275  -0.126  20.290  0.00  0.00    +0.000 C 
ATOM      5  C   UNL     1     -18.650  -1.313  20.896  0.00  0.00    +0.000 C 
ATOM      6  C   UNL     1     -20.589  -1.061  21.929  0.00  0.00    +0.000 C 
ATOM      7  C   UNL     1     -20.579  -4.376  20.078  0.00  0.00    +0.000 C 
ATOM      8  C   UNL     1     -20.328   0.292  21.399  0.00  0.00    +0.000 C 
ATOM      9  C   UNL     1     -19.409  -3.178  22.424  0.00  0.00    +0.000 C 
ATOM     10  C   UNL     1     -20.509  -1.960  19.059  0.00  0.00    +0.000 C 
ATOM     11  C   UNL     1     -19.869  -0.567  19.037  0.00  0.00    +0.000 C 
ATOM     12  C   UNL     1     -20.531  -5.208  21.473  0.00  0.00    +0.000 C 
ATOM     13  C   UNL     1     -19.768  -4.627  22.512  0.00  0.00    +0.000 C 
ATOM     14  C   UNL     1     -19.402  -4.917  19.203  0.00  0.00    +0.000 C 
ATOM     15  C   UNL     1     -21.899  -4.705  19.470  0.00  0.00    +0.000 C 
ATOM     16  C   UNL     1     -21.629  -6.103  21.757  0.00  0.00    +0.000 A 
ATOM     17  C   UNL     1     -22.809  -5.437  19.738  0.00  0.00    +0.000 C 
ATOM     18  C   UNL     1     -22.715  -6.204  20.913  0.00  0.00    +0.000 A 
ATOM     19  C   UNL     1     -21.920  -6.973  22.827  0.00  0.00    +0.000 A 
ATOM     20  C   UNL     1     -23.154  -7.541  22.540  0.00  0.00    +0.000 A 
ENDROOT
BRANCH   8  21
ATOM     21  O   UNL     1     -19.700   1.075  22.400  0.00  0.00    +0.000 OA
ATOM     22  H   UNL     1     -20.420   1.505  22.891  0.00  0.00    +0.000 HD
ENDBRANCH   8  21
BRANCH   8  23
ATOM     23  C   UNL     1     -21.501   1.005  20.878  0.00  0.00    +0.000 C 
BRANCH  23  24
ATOM     24  O   UNL     1     -22.556   1.664  20.396  0.00  0.00    +0.000 OA
ATOM     25  H   UNL     1     -22.493   2.614  20.598  0.00  0.00    +0.000 HD
ENDBRANCH  23  24
ENDBRANCH   8  23
TORSDOF 3
ENDMDL
MODEL 4
REMARK VINA RESULT:      -4.7      2.174      3.157
REMARK  Name = 114778_Kahweol.pdbqt.pdb
REMARK  3 active torsions:
REMARK  status: ('A' for Active; 'I' for Inactive)
REMARK    1  A    between atoms: C_8  and  O_21
REMARK    2  A    between atoms: C_8  and  C_23
REMARK    3  A    between atoms: C_23  and  O_24
REMARK                            x       y       z     vdW  Elec       q    Type
REMARK                         _______ _______ _______ _____ _____    ______ ____
ROOT
ATOM      1  O   UNL     1      -7.248  -6.238  27.868  0.00  0.00    +0.000 OA
ATOM      2  C   UNL     1     -12.465  -9.641  27.221  0.00  0.00    +0.000 C 
ATOM      3  C   UNL     1     -11.464  -9.569  28.455  0.00  0.00    +0.000 C 
ATOM      4  C   UNL     1     -14.268 -10.552  28.506  0.00  0.00    +0.000 C 
ATOM      5  C   UNL     1     -13.309 -10.849  27.429  0.00  0.00    +0.000 C 
ATOM      6  C   UNL     1     -13.542  -8.650  27.436  0.00  0.00    +0.000 C 
ATOM      7  C   UNL     1      -9.943  -9.528  28.266  0.00  0.00    +0.000 C 
ATOM      8  C   UNL     1     -14.780  -9.108  28.099  0.00  0.00    +0.000 C 
ATOM      9  C   UNL     1     -11.720  -9.504  25.997  0.00  0.00    +0.000 C 
ATOM     10  C   UNL     1     -12.092 -10.024  29.685  0.00  0.00    +0.000 C 
ATOM     11  C   UNL     1     -13.516 -10.591  29.751  0.00  0.00    +0.000 C 
ATOM     12  C   UNL     1      -9.424  -8.952  26.838  0.00  0.00    +0.000 C 
ATOM     13  C   UNL     1     -10.288  -9.158  25.738  0.00  0.00    +0.000 C 
ATOM     14  C   UNL     1      -9.374 -10.979  28.387  0.00  0.00    +0.000 C 
ATOM     15  C   UNL     1      -9.348  -8.628  29.292  0.00  0.00    +0.000 C 
ATOM     16  C   UNL     1      -8.486  -7.853  26.861  0.00  0.00    +0.000 A 
ATOM     17  C   UNL     1      -8.587  -7.702  29.286  0.00  0.00    +0.000 C 
ATOM     18  C   UNL     1      -8.092  -7.264  28.044  0.00  0.00    +0.000 A 
ATOM     19  C   UNL     1      -7.825  -7.120  25.854  0.00  0.00    +0.000 A 
ATOM     20  C   UNL     1      -7.073  -6.154  26.509  0.00  0.00    +0.000 A 
ENDROOT
BRANCH   8  21
ATOM     21  O   UNL     1     -15.817  -9.209  27.138  0.00  0.00    +0.000 OA
ATOM     22  H   UNL     1     -15.380  -9.432  26.299  0.00  0.00    +0.000 HD
ENDBRANCH   8  21
BRANCH   8  23
ATOM     23  C   UNL     1     -15.232  -8.288  29.230  0.00  0.00    +0.000 C 
BRANCH  23  24
ATOM     24  O   UNL     1     -15.654  -7.534  30.246  0.00  0.00    +0.000 OA
ATOM     25  H   UNL     1     -15.603  -6.588  30.021  0.00  0.00    +0.000 HD
ENDBRANCH  23  24
ENDBRANCH   8  23
TORSDOF 3
ENDMDL
MODEL 5
REMARK VINA RESULT:      -4.5     21.245     23.351
REMARK  Name = 114778_Kahweol.pdbqt.pdb
REMARK  3 active torsions:
REMARK  status: ('A' for Active; 'I' for Inactive)
REMARK    1  A    between atoms: C_8  and  O_21
REMARK    2  A    between atoms: C_8  and  C_23
REMARK    3  A    between atoms: C_23  and  O_24
REMARK                            x       y       z     vdW  Elec       q    Type
REMARK                         _______ _______ _______ _____ _____    ______ ____
ROOT
ATOM      1  O   UNL     1      11.488 -12.014  12.925  0.00  0.00    +0.000 OA
ATOM      2  C   UNL     1       5.270 -12.021  12.186  0.00  0.00    +0.000 C 
ATOM      3  C   UNL     1       6.210 -13.166  12.766  0.00  0.00    +0.000 C 
ATOM      4  C   UNL     1       3.276 -12.910  13.169  0.00  0.00    +0.000 C 
ATOM      5  C   UNL     1       3.958 -12.659  11.888  0.00  0.00    +0.000 C 
ATOM      6  C   UNL     1       4.795 -11.190  13.314  0.00  0.00    +0.000 C 
ATOM      7  C   UNL     1       7.564 -13.503  12.133  0.00  0.00    +0.000 C 
ATOM      8  C   UNL     1       3.502 -11.540  13.935  0.00  0.00    +0.000 C 
ATOM      9  C   UNL     1       5.967 -11.320  11.139  0.00  0.00    +0.000 C 
ATOM     10  C   UNL     1       5.466 -14.110  13.584  0.00  0.00    +0.000 C 
ATOM     11  C   UNL     1       3.945 -14.052  13.775  0.00  0.00    +0.000 C 
ATOM     12  C   UNL     1       8.266 -12.307  11.285  0.00  0.00    +0.000 C 
ATOM     13  C   UNL     1       7.386 -11.387  10.671  0.00  0.00    +0.000 C 
ATOM     14  C   UNL     1       7.380 -14.696  11.139  0.00  0.00    +0.000 C 
ATOM     15  C   UNL     1       8.535 -13.843  13.209  0.00  0.00    +0.000 C 
ATOM     16  C   UNL     1       9.613 -11.931  11.648  0.00  0.00    +0.000 A 
ATOM     17  C   UNL     1       9.644 -13.499  13.506  0.00  0.00    +0.000 C 
ATOM     18  C   UNL     1      10.262 -12.514  12.716  0.00  0.00    +0.000 A 
ATOM     19  C   UNL     1      10.522 -10.977  11.148  0.00  0.00    +0.000 A 
ATOM     20  C   UNL     1      11.655 -11.067  11.946  0.00  0.00    +0.000 A 
ENDROOT
BRANCH   8  21
ATOM     21  O   UNL     1       2.523 -10.594  13.544  0.00  0.00    +0.000 OA
ATOM     22  H   UNL     1       2.250 -10.849  12.647  0.00  0.00    +0.000 HD
ENDBRANCH   8  21
BRANCH   8  23
ATOM     23  C   UNL     1       3.516 -11.663  15.398  0.00  0.00    +0.000 C 
BRANCH  23  24
ATOM     24  O   UNL     1       3.526 -11.793  16.725  0.00  0.00    +0.000 OA
ATOM     25  H   UNL     1       4.109 -12.523  16.999  0.00  0.00    +0.000 HD
ENDBRANCH  23  24
ENDBRANCH   8  23
TORSDOF 3
ENDMDL
MODEL 6
REMARK VINA RESULT:      -4.5     12.502     14.894
REMARK  Name = 114778_Kahweol.pdbqt.pdb
REMARK  3 active torsions:
REMARK  status: ('A' for Active; 'I' for Inactive)
REMARK    1  A    between atoms: C_8  and  O_21
REMARK    2  A    between atoms: C_8  and  C_23
REMARK    3  A    between atoms: C_23  and  O_24
REMARK                            x       y       z     vdW  Elec       q    Type
REMARK                         _______ _______ _______ _____ _____    ______ ____
ROOT
ATOM      1  O   UNL     1     -23.579  -8.757  23.467  0.00  0.00    +0.000 OA
ATOM      2  C   UNL     1     -21.902  -5.827  18.192  0.00  0.00    +0.000 C 
ATOM      3  C   UNL     1     -21.336  -5.636  19.666  0.00  0.00    +0.000 C 
ATOM      4  C   UNL     1     -19.998  -4.831  17.138  0.00  0.00    +0.000 C 
ATOM      5  C   UNL     1     -21.436  -4.655  17.403  0.00  0.00    +0.000 C 
ATOM      6  C   UNL     1     -21.068  -6.833  17.499  0.00  0.00    +0.000 C 
ATOM      7  C   UNL     1     -22.254  -5.616  20.893  0.00  0.00    +0.000 C 
ATOM      8  C   UNL     1     -19.930  -6.350  16.691  0.00  0.00    +0.000 C 
ATOM      9  C   UNL     1     -23.311  -6.117  18.259  0.00  0.00    +0.000 C 
ATOM     10  C   UNL     1     -20.016  -5.026  19.661  0.00  0.00    +0.000 C 
ATOM     11  C   UNL     1     -19.310  -4.543  18.388  0.00  0.00    +0.000 C 
ATOM     12  C   UNL     1     -23.676  -6.385  20.724  0.00  0.00    +0.000 C 
ATOM     13  C   UNL     1     -24.211  -6.413  19.416  0.00  0.00    +0.000 C 
ATOM     14  C   UNL     1     -22.597  -4.133  21.250  0.00  0.00    +0.000 C 
ATOM     15  C   UNL     1     -21.571  -6.299  22.026  0.00  0.00    +0.000 C 
ATOM     16  C   UNL     1     -24.004  -7.406  21.692  0.00  0.00    +0.000 A 
ATOM     17  C   UNL     1     -21.855  -7.165  22.804  0.00  0.00    +0.000 C 
ATOM     18  C   UNL     1     -23.120  -7.769  22.686  0.00  0.00    +0.000 A 
ATOM     19  C   UNL     1     -25.118  -8.252  21.871  0.00  0.00    +0.000 A 
ATOM     20  C   UNL     1     -24.824  -9.051  22.968  0.00  0.00    +0.000 A 
ENDROOT
BRANCH   8  21
ATOM     21  O   UNL     1     -20.247  -6.470  15.315  0.00  0.00    +0.000 OA
ATOM     22  H   UNL     1     -20.395  -5.564  14.996  0.00  0.00    +0.000 HD
ENDBRANCH   8  21
BRANCH   8  23
ATOM     23  C   UNL     1     -18.642  -7.001  16.960  0.00  0.00    +0.000 C 
BRANCH  23  24
ATOM     24  O   UNL     1     -17.467  -7.589  17.187  0.00  0.00    +0.000 OA
ATOM     25  H   UNL     1     -17.195  -8.129  16.424  0.00  0.00    +0.000 HD
ENDBRANCH  23  24
ENDBRANCH   8  23
TORSDOF 3
ENDMDL
MODEL 7
REMARK VINA RESULT:      -4.3     22.442     24.563
REMARK  Name = 114778_Kahweol.pdbqt.pdb
REMARK  3 active torsions:
REMARK  status: ('A' for Active; 'I' for Inactive)
REMARK    1  A    between atoms: C_8  and  O_21
REMARK    2  A    between atoms: C_8  and  C_23
REMARK    3  A    between atoms: C_23  and  O_24
REMARK                            x       y       z     vdW  Elec       q    Type
REMARK                         _______ _______ _______ _____ _____    ______ ____
ROOT
ATOM      1  O   UNL     1      10.400 -18.384  10.864  0.00  0.00    +0.000 OA
ATOM      2  C   UNL     1       5.574 -15.615  13.739  0.00  0.00    +0.000 C 
ATOM      3  C   UNL     1       6.302 -15.205  12.385  0.00  0.00    +0.000 C 
ATOM      4  C   UNL     1       3.590 -14.363  13.263  0.00  0.00    +0.000 C 
ATOM      5  C   UNL     1       4.759 -14.442  14.155  0.00  0.00    +0.000 C 
ATOM      6  C   UNL     1       4.434 -16.497  13.407  0.00  0.00    +0.000 C 
ATOM      7  C   UNL     1       7.826 -15.262  12.232  0.00  0.00    +0.000 C 
ATOM      8  C   UNL     1       3.108 -15.872  13.219  0.00  0.00    +0.000 C 
ATOM      9  C   UNL     1       6.544 -16.160  14.652  0.00  0.00    +0.000 C 
ATOM     10  C   UNL     1       5.459 -14.359  11.556  0.00  0.00    +0.000 C 
ATOM     11  C   UNL     1       4.077 -13.853  11.989  0.00  0.00    +0.000 C 
ATOM     12  C   UNL     1       8.597 -16.297  13.220  0.00  0.00    +0.000 C 
ATOM     13  C   UNL     1       7.983 -16.529  14.472  0.00  0.00    +0.000 C 
ATOM     14  C   UNL     1       8.422 -13.847  12.527  0.00  0.00    +0.000 C 
ATOM     15  C   UNL     1       8.162 -15.712  10.853  0.00  0.00    +0.000 C 
ATOM     16  C   UNL     1       9.462 -17.282  12.614  0.00  0.00    +0.000 A 
ATOM     17  C   UNL     1       8.868 -16.552  10.371  0.00  0.00    +0.000 C 
ATOM     18  C   UNL     1       9.583 -17.391  11.245  0.00  0.00    +0.000 A 
ATOM     19  C   UNL     1      10.280 -18.306  13.133  0.00  0.00    +0.000 A 
ATOM     20  C   UNL     1      10.842 -18.946  12.036  0.00  0.00    +0.000 A 
ENDROOT
BRANCH   8  21
ATOM     21  O   UNL     1       2.293 -16.158  14.342  0.00  0.00    +0.000 OA
ATOM     22  H   UNL     1       1.457 -16.500  13.982  0.00  0.00    +0.000 HD
ENDBRANCH   8  21
BRANCH   8  23
ATOM     23  C   UNL     1       2.403 -16.244  11.987  0.00  0.00    +0.000 C 
BRANCH  23  24
ATOM     24  O   UNL     1       1.751 -16.567  10.869  0.00  0.00    +0.000 OA
ATOM     25  H   UNL     1       2.265 -17.201  10.337  0.00  0.00    +0.000 HD
ENDBRANCH  23  24
ENDBRANCH   8  23
TORSDOF 3
ENDMDL
MODEL 8
REMARK VINA RESULT:      -4.2     28.135     30.410
REMARK  Name = 114778_Kahweol.pdbqt.pdb
REMARK  3 active torsions:
REMARK  status: ('A' for Active; 'I' for Inactive)
REMARK    1  A    between atoms: C_8  and  O_21
REMARK    2  A    between atoms: C_8  and  C_23
REMARK    3  A    between atoms: C_23  and  O_24
REMARK                            x       y       z     vdW  Elec       q    Type
REMARK                         _______ _______ _______ _____ _____    ______ ____
ROOT
ATOM      1  O   UNL     1      -1.023 -22.262   3.900  0.00  0.00    +0.000 OA
ATOM      2  C   UNL     1       4.240 -19.004   4.850  0.00  0.00    +0.000 C 
ATOM      3  C   UNL     1       4.067 -20.494   4.321  0.00  0.00    +0.000 C 
ATOM      4  C   UNL     1       6.465 -18.768   4.001  0.00  0.00    +0.000 C 
ATOM      5  C   UNL     1       5.669 -18.854   5.236  0.00  0.00    +0.000 C 
ATOM      6  C   UNL     1       4.290 -18.097   3.682  0.00  0.00    +0.000 C 
ATOM      7  C   UNL     1       3.044 -21.459   4.930  0.00  0.00    +0.000 C 
ATOM      8  C   UNL     1       5.616 -17.750   3.132  0.00  0.00    +0.000 C 
ATOM      9  C   UNL     1       3.213 -18.723   5.820  0.00  0.00    +0.000 C 
ATOM     10  C   UNL     1       5.244 -20.948   3.598  0.00  0.00    +0.000 C 
ATOM     11  C   UNL     1       6.525 -20.116   3.455  0.00  0.00    +0.000 C 
ATOM     12  C   UNL     1       1.771 -20.767   5.666  0.00  0.00    +0.000 C 
ATOM     13  C   UNL     1       2.006 -19.498   6.242  0.00  0.00    +0.000 C 
ATOM     14  C   UNL     1       3.751 -22.338   6.012  0.00  0.00    +0.000 C 
ATOM     15  C   UNL     1       2.462 -22.300   3.848  0.00  0.00    +0.000 C 
ATOM     16  C   UNL     1       0.450 -21.162   5.231  0.00  0.00    +0.000 A 
ATOM     17  C   UNL     1       1.357 -22.596   3.489  0.00  0.00    +0.000 C 
ATOM     18  C   UNL     1       0.268 -22.043   4.186  0.00  0.00    +0.000 A 
ATOM     19  C   UNL     1      -0.852 -20.799   5.631  0.00  0.00    +0.000 A 
ATOM     20  C   UNL     1      -1.720 -21.499   4.803  0.00  0.00    +0.000 A 
ENDROOT
BRANCH   8  21
ATOM     21  O   UNL     1       5.937 -16.417   3.488  0.00  0.00    +0.000 OA
ATOM     22  H   UNL     1       5.134 -15.896   3.319  0.00  0.00    +0.000 HD
ENDBRANCH   8  21
BRANCH   8  23
ATOM     23  C   UNL     1       5.764 -17.925   1.682  0.00  0.00    +0.000 C 
BRANCH  23  24
ATOM     24  O   UNL     1       5.911 -18.098   0.368  0.00  0.00    +0.000 OA
ATOM     25  H   UNL     1       5.224 -17.615  -0.125  0.00  0.00    +0.000 HD
ENDBRANCH  23  24
ENDBRANCH   8  23
TORSDOF 3
ENDMDL
MODEL 9
REMARK VINA RESULT:      -4.2     20.061     21.659
REMARK  Name = 114778_Kahweol.pdbqt.pdb
REMARK  3 active torsions:
REMARK  status: ('A' for Active; 'I' for Inactive)
REMARK    1  A    between atoms: C_8  and  O_21
REMARK    2  A    between atoms: C_8  and  C_23
REMARK    3  A    between atoms: C_23  and  O_24
REMARK                            x       y       z     vdW  Elec       q    Type
REMARK                         _______ _______ _______ _____ _____    ______ ____
ROOT
ATOM      1  O   UNL     1       4.098 -10.631  12.037  0.00  0.00    +0.000 OA
ATOM      2  C   UNL     1       4.746 -16.598  13.823  0.00  0.00    +0.000 C 
ATOM      3  C   UNL     1       3.617 -15.551  14.222  0.00  0.00    +0.000 C 
ATOM      4  C   UNL     1       3.446 -18.510  14.444  0.00  0.00    +0.000 C 
ATOM      5  C   UNL     1       4.642 -17.724  14.791  0.00  0.00    +0.000 C 
ATOM      6  C   UNL     1       4.283 -17.356  12.640  0.00  0.00    +0.000 C 
ATOM      7  C   UNL     1       3.942 -14.087  14.541  0.00  0.00    +0.000 C 
ATOM      8  C   UNL     1       3.581 -18.635  12.869  0.00  0.00    +0.000 C 
ATOM      9  C   UNL     1       6.002 -15.909  13.675  0.00  0.00    +0.000 C 
ATOM     10  C   UNL     1       2.414 -16.213  14.701  0.00  0.00    +0.000 C 
ATOM     11  C   UNL     1       2.298 -17.731  14.886  0.00  0.00    +0.000 C 
ATOM     12  C   UNL     1       5.311 -13.508  13.883  0.00  0.00    +0.000 C 
ATOM     13  C   UNL     1       6.341 -14.452  13.671  0.00  0.00    +0.000 C 
ATOM     14  C   UNL     1       4.095 -13.924  16.088  0.00  0.00    +0.000 C 
ATOM     15  C   UNL     1       2.854 -13.219  14.012  0.00  0.00    +0.000 C 
ATOM     16  C   UNL     1       5.213 -12.309  13.083  0.00  0.00    +0.000 A 
ATOM     17  C   UNL     1       2.795 -12.238  13.326  0.00  0.00    +0.000 C 
ATOM     18  C   UNL     1       3.998 -11.710  12.826  0.00  0.00    +0.000 A 
ATOM     19  C   UNL     1       6.157 -11.529  12.385  0.00  0.00    +0.000 A 
ATOM     20  C   UNL     1       5.440 -10.511  11.771  0.00  0.00    +0.000 A 
ENDROOT
BRANCH   8  21
ATOM     21  O   UNL     1       4.442 -19.709  12.536  0.00  0.00    +0.000 OA
ATOM     22  H   UNL     1       4.987 -19.867  13.324  0.00  0.00    +0.000 HD
ENDBRANCH   8  21
BRANCH   8  23
ATOM     23  C   UNL     1       2.301 -18.789  12.165  0.00  0.00    +0.000 C 
BRANCH  23  24
ATOM     24  O   UNL     1       1.132 -18.936  11.541  0.00  0.00    +0.000 OA
ATOM     25  H   UNL     1       0.391 -18.741  12.142  0.00  0.00    +0.000 HD
ENDBRANCH  23  24
ENDBRANCH   8  23
TORSDOF 3
ENDMDL
