MODEL 1
REMARK VINA RESULT:      -4.3      0.000      0.000
REMARK  Name = 1174_Uracil.pdbqt.pdb
REMARK  0 active torsions:
REMARK  status: ('A' for Active; 'I' for Inactive)
REMARK                            x       y       z     vdW  Elec       q    Type
REMARK                         _______ _______ _______ _____ _____    ______ ____
ROOT
ATOM      1  O   UNL     1      -7.508  -1.913  -0.217  0.00  0.00    +0.000 OA
ATOM      2  O   UNL     1      -4.229  -5.186  -0.106  0.00  0.00    +0.000 OA
ATOM      3  N   UNL     1      -5.920  -3.591  -0.138  0.00  0.00    +0.000 N 
ATOM      4  N   UNL     1      -5.341  -1.440  -0.864  0.00  0.00    +0.000 N 
ATOM      5  C   UNL     1      -6.353  -2.281  -0.392  0.00  0.00    +0.000 A 
ATOM      6  C   UNL     1      -4.617  -4.049  -0.325  0.00  0.00    +0.000 A 
ATOM      7  C   UNL     1      -4.089  -1.896  -1.039  0.00  0.00    +0.000 A 
ATOM      8  C   UNL     1      -3.744  -3.015  -0.816  0.00  0.00    +0.000 A 
ATOM      9  H   UNL     1      -6.602  -4.248   0.205  0.00  0.00    +0.000 HD
ATOM     10  H   UNL     1      -5.574  -0.477  -1.071  0.00  0.00    +0.000 HD
ENDROOT
TORSDOF 0
ENDMDL
MODEL 2
REMARK VINA RESULT:      -3.9     11.922     12.797
REMARK  Name = 1174_Uracil.pdbqt.pdb
REMARK  0 active torsions:
REMARK  status: ('A' for Active; 'I' for Inactive)
REMARK                            x       y       z     vdW  Elec       q    Type
REMARK                         _______ _______ _______ _____ _____    ______ ____
ROOT
ATOM      1  O   UNL     1     -15.120  -3.544   7.266  0.00  0.00    +0.000 OA
ATOM      2  O   UNL     1     -14.169  -7.454   4.968  0.00  0.00    +0.000 OA
ATOM      3  N   UNL     1     -14.618  -5.456   6.068  0.00  0.00    +0.000 N 
ATOM      4  N   UNL     1     -15.642  -5.605   8.171  0.00  0.00    +0.000 N 
ATOM      5  C   UNL     1     -15.127  -4.765   7.178  0.00  0.00    +0.000 A 
ATOM      6  C   UNL     1     -14.608  -6.843   5.930  0.00  0.00    +0.000 A 
ATOM      7  C   UNL     1     -15.625  -6.940   8.022  0.00  0.00    +0.000 A 
ATOM      8  C   UNL     1     -15.187  -7.506   7.069  0.00  0.00    +0.000 A 
ATOM      9  H   UNL     1     -14.232  -4.908   5.316  0.00  0.00    +0.000 HD
ATOM     10  H   UNL     1     -16.029  -5.182   9.005  0.00  0.00    +0.000 HD
ENDROOT
TORSDOF 0
ENDMDL
MODEL 3
REMARK VINA RESULT:      -3.7     10.996     11.965
REMARK  Name = 1174_Uracil.pdbqt.pdb
REMARK  0 active torsions:
REMARK  status: ('A' for Active; 'I' for Inactive)
REMARK                            x       y       z     vdW  Elec       q    Type
REMARK                         _______ _______ _______ _____ _____    ______ ____
ROOT
ATOM      1  O   UNL     1     -11.329  -8.086   4.429  0.00  0.00    +0.000 OA
ATOM      2  O   UNL     1     -15.501  -8.046   6.445  0.00  0.00    +0.000 OA
ATOM      3  N   UNL     1     -13.439  -8.057   5.372  0.00  0.00    +0.000 N 
ATOM      4  N   UNL     1     -11.540  -8.336   6.716  0.00  0.00    +0.000 N 
ATOM      5  C   UNL     1     -12.041  -8.154   5.423  0.00  0.00    +0.000 A 
ATOM      6  C   UNL     1     -14.283  -8.130   6.478  0.00  0.00    +0.000 A 
ATOM      7  C   UNL     1     -12.367  -8.404   7.773  0.00  0.00    +0.000 A 
ATOM      8  C   UNL     1     -13.554  -8.319   7.706  0.00  0.00    +0.000 A 
ATOM      9  H   UNL     1     -13.863  -7.926   4.468  0.00  0.00    +0.000 HD
ATOM     10  H   UNL     1     -10.538  -8.415   6.838  0.00  0.00    +0.000 HD
ENDROOT
TORSDOF 0
ENDMDL
MODEL 4
REMARK VINA RESULT:      -3.7     10.612     11.359
REMARK  Name = 1174_Uracil.pdbqt.pdb
REMARK  0 active torsions:
REMARK  status: ('A' for Active; 'I' for Inactive)
REMARK                            x       y       z     vdW  Elec       q    Type
REMARK                         _______ _______ _______ _____ _____    ______ ____
ROOT
ATOM      1  O   UNL     1     -13.248  -8.599   8.283  0.00  0.00    +0.000 OA
ATOM      2  O   UNL     1     -11.125  -9.073   4.191  0.00  0.00    +0.000 OA
ATOM      3  N   UNL     1     -12.147  -8.884   6.270  0.00  0.00    +0.000 N 
ATOM      4  N   UNL     1     -13.922  -7.365   6.450  0.00  0.00    +0.000 N 
ATOM      5  C   UNL     1     -13.118  -8.306   7.101  0.00  0.00    +0.000 A 
ATOM      6  C   UNL     1     -11.968  -8.577   4.923  0.00  0.00    +0.000 A 
ATOM      7  C   UNL     1     -13.737  -7.080   5.150  0.00  0.00    +0.000 A 
ATOM      8  C   UNL     1     -12.904  -7.584   4.462  0.00  0.00    +0.000 A 
ATOM      9  H   UNL     1     -11.534  -9.570   6.679  0.00  0.00    +0.000 HD
ATOM     10  H   UNL     1     -14.648  -6.902   6.982  0.00  0.00    +0.000 HD
ENDROOT
TORSDOF 0
ENDMDL
MODEL 5
REMARK VINA RESULT:      -3.5     11.114     12.063
REMARK  Name = 1174_Uracil.pdbqt.pdb
REMARK  0 active torsions:
REMARK  status: ('A' for Active; 'I' for Inactive)
REMARK                            x       y       z     vdW  Elec       q    Type
REMARK                         _______ _______ _______ _____ _____    ______ ____
ROOT
ATOM      1  O   UNL     1     -11.146  -8.931   4.225  0.00  0.00    +0.000 OA
ATOM      2  O   UNL     1     -13.317  -7.800   8.159  0.00  0.00    +0.000 OA
ATOM      3  N   UNL     1     -12.170  -8.335   6.209  0.00  0.00    +0.000 N 
ATOM      4  N   UNL     1     -13.344  -9.546   4.582  0.00  0.00    +0.000 N 
ATOM      5  C   UNL     1     -12.137  -8.938   4.943  0.00  0.00    +0.000 A 
ATOM      6  C   UNL     1     -13.277  -8.321   7.055  0.00  0.00    +0.000 A 
ATOM      7  C   UNL     1     -14.402  -9.523   5.409  0.00  0.00    +0.000 A 
ATOM      8  C   UNL     1     -14.408  -9.004   6.482  0.00  0.00    +0.000 A 
ATOM      9  H   UNL     1     -11.331  -7.879   6.529  0.00  0.00    +0.000 HD
ATOM     10  H   UNL     1     -13.401 -10.004   3.681  0.00  0.00    +0.000 HD
ENDROOT
TORSDOF 0
ENDMDL
MODEL 6
REMARK VINA RESULT:      -3.4      3.897      5.174
REMARK  Name = 1174_Uracil.pdbqt.pdb
REMARK  0 active torsions:
REMARK  status: ('A' for Active; 'I' for Inactive)
REMARK                            x       y       z     vdW  Elec       q    Type
REMARK                         _______ _______ _______ _____ _____    ______ ____
ROOT
ATOM      1  O   UNL     1      -7.844  -8.491  -0.346  0.00  0.00    +0.000 OA
ATOM      2  O   UNL     1      -4.559  -5.274   0.234  0.00  0.00    +0.000 OA
ATOM      3  N   UNL     1      -6.207  -6.874  -0.126  0.00  0.00    +0.000 N 
ATOM      4  N   UNL     1      -7.001  -8.026   1.754  0.00  0.00    +0.000 N 
ATOM      5  C   UNL     1      -7.082  -7.852   0.369  0.00  0.00    +0.000 A 
ATOM      6  C   UNL     1      -5.326  -6.127   0.654  0.00  0.00    +0.000 A 
ATOM      7  C   UNL     1      -6.146  -7.297   2.492  0.00  0.00    +0.000 A 
ATOM      8  C   UNL     1      -5.411  -6.470   2.050  0.00  0.00    +0.000 A 
ATOM      9  H   UNL     1      -6.216  -6.700  -1.118  0.00  0.00    +0.000 HD
ATOM     10  H   UNL     1      -7.602  -8.715   2.188  0.00  0.00    +0.000 HD
ENDROOT
TORSDOF 0
ENDMDL
MODEL 7
REMARK VINA RESULT:      -3.3      2.044      3.082
REMARK  Name = 1174_Uracil.pdbqt.pdb
REMARK  0 active torsions:
REMARK  status: ('A' for Active; 'I' for Inactive)
REMARK                            x       y       z     vdW  Elec       q    Type
REMARK                         _______ _______ _______ _____ _____    ______ ____
ROOT
ATOM      1  O   UNL     1      -4.977  -3.692  -3.840  0.00  0.00    +0.000 OA
ATOM      2  O   UNL     1      -7.253  -1.972  -0.188  0.00  0.00    +0.000 OA
ATOM      3  N   UNL     1      -6.160  -2.808  -2.062  0.00  0.00    +0.000 N 
ATOM      4  N   UNL     1      -4.194  -4.028  -1.692  0.00  0.00    +0.000 N 
ATOM      5  C   UNL     1      -5.098  -3.524  -2.633  0.00  0.00    +0.000 A 
ATOM      6  C   UNL     1      -6.333  -2.595  -0.696  0.00  0.00    +0.000 A 
ATOM      7  C   UNL     1      -4.375  -3.815  -0.378  0.00  0.00    +0.000 A 
ATOM      8  C   UNL     1      -5.286  -3.201   0.085  0.00  0.00    +0.000 A 
ATOM      9  H   UNL     1      -6.848  -2.418  -2.687  0.00  0.00    +0.000 HD
ATOM     10  H   UNL     1      -3.399  -4.558  -2.026  0.00  0.00    +0.000 HD
ENDROOT
TORSDOF 0
ENDMDL
MODEL 8
REMARK VINA RESULT:      -3.3     21.941     22.442
REMARK  Name = 1174_Uracil.pdbqt.pdb
REMARK  0 active torsions:
REMARK  status: ('A' for Active; 'I' for Inactive)
REMARK                            x       y       z     vdW  Elec       q    Type
REMARK                         _______ _______ _______ _____ _____    ______ ____
ROOT
ATOM      1  O   UNL     1     -20.490  -4.183  17.761  0.00  0.00    +0.000 OA
ATOM      2  O   UNL     1     -19.853  -7.887  15.051  0.00  0.00    +0.000 OA
ATOM      3  N   UNL     1     -20.239  -6.026  16.390  0.00  0.00    +0.000 N 
ATOM      4  N   UNL     1     -18.425  -5.211  17.629  0.00  0.00    +0.000 N 
ATOM      5  C   UNL     1     -19.777  -5.065  17.300  0.00  0.00    +0.000 A 
ATOM      6  C   UNL     1     -19.460  -7.044  15.843  0.00  0.00    +0.000 A 
ATOM      7  C   UNL     1     -17.688  -6.198  17.093  0.00  0.00    +0.000 A 
ATOM      8  C   UNL     1     -18.102  -7.005  16.320  0.00  0.00    +0.000 A 
ATOM      9  H   UNL     1     -21.206  -5.976  16.111  0.00  0.00    +0.000 HD
ATOM     10  H   UNL     1     -18.015  -4.555  18.282  0.00  0.00    +0.000 HD
ENDROOT
TORSDOF 0
ENDMDL
MODEL 9
REMARK VINA RESULT:      -3.3     10.863     11.543
REMARK  Name = 1174_Uracil.pdbqt.pdb
REMARK  0 active torsions:
REMARK  status: ('A' for Active; 'I' for Inactive)
REMARK                            x       y       z     vdW  Elec       q    Type
REMARK                         _______ _______ _______ _____ _____    ______ ____
ROOT
ATOM      1  O   UNL     1     -14.791  -6.998   1.702  0.00  0.00    +0.000 OA
ATOM      2  O   UNL     1     -14.047  -4.613   5.605  0.00  0.00    +0.000 OA
ATOM      3  N   UNL     1     -14.401  -5.753   3.610  0.00  0.00    +0.000 N 
ATOM      4  N   UNL     1     -15.153  -7.967   3.768  0.00  0.00    +0.000 N 
ATOM      5  C   UNL     1     -14.783  -6.915   2.923  0.00  0.00    +0.000 A 
ATOM      6  C   UNL     1     -14.379  -5.620   4.997  0.00  0.00    +0.000 A 
ATOM      7  C   UNL     1     -15.126  -7.822   5.103  0.00  0.00    +0.000 A 
ATOM      8  C   UNL     1     -14.797  -6.824   5.666  0.00  0.00    +0.000 A 
ATOM      9  H   UNL     1     -14.122  -4.958   3.059  0.00  0.00    +0.000 HD
ATOM     10  H   UNL     1     -15.442  -8.842   3.348  0.00  0.00    +0.000 HD
ENDROOT
TORSDOF 0
ENDMDL
