MODEL 1
REMARK VINA RESULT:      -4.7      0.000      0.000
REMARK  Name = 122180587_TripolinolateA.pdbqt.pdb
REMARK  9 active torsions:
REMARK  status: ('A' for Active; 'I' for Inactive)
REMARK    1  A    between atoms: C_1  and  O_16
REMARK    2  A    between atoms: C_2  and  O_7
REMARK    3  A    between atoms: C_3  and  C_9
REMARK    4  A    between atoms: C_10  and  C_11
REMARK    5  A    between atoms: C_11  and  O_12
REMARK    6  A    between atoms: O_12  and  C_14
REMARK    7  A    between atoms: O_16  and  C_18
REMARK    8  A    between atoms: C_18  and  C_19
REMARK    9  A    between atoms: C_19  and  C_21
REMARK                            x       y       z     vdW  Elec       q    Type
REMARK                         _______ _______ _______ _____ _____    ______ ____
ROOT
ATOM      1  C   UNL     1      -7.227   7.770   4.329  0.00  0.00    +0.000 A 
ATOM      2  C   UNL     1      -6.247   8.756   4.178  0.00  0.00    +0.000 A 
ATOM      3  C   UNL     1      -6.099   8.169   1.829  0.00  0.00    +0.000 A 
ATOM      4  C   UNL     1      -7.624   6.967   3.258  0.00  0.00    +0.000 A 
ATOM      5  C   UNL     1      -5.691   8.949   2.911  0.00  0.00    +0.000 A 
ATOM      6  C   UNL     1      -7.062   7.176   2.002  0.00  0.00    +0.000 A 
ENDROOT
BRANCH   2   7
ATOM      7  O   UNL     1      -5.882   9.457   5.300  0.00  0.00    +0.000 OA
ATOM      8  C   UNL     1      -4.564   9.932   5.316  0.00  0.00    +0.000 C 
ENDBRANCH   2   7
BRANCH   3   9
ATOM      9  C   UNL     1      -5.524   8.384   0.542  0.00  0.00    +0.000 C 
ATOM     10  C   UNL     1      -5.041   8.566  -0.542  0.00  0.00    +0.000 C 
BRANCH  10  11
ATOM     11  C   UNL     1      -4.428   8.798  -1.927  0.00  0.00    +0.000 C 
BRANCH  11  12
ATOM     12  O   UNL     1      -3.895   8.997  -3.130  0.00  0.00    +0.000 OA
BRANCH  12  14
ATOM     13  O   UNL     1      -1.803   8.259  -3.867  0.00  0.00    +0.000 OA
ATOM     14  C   UNL     1      -2.950   8.107  -3.492  0.00  0.00    +0.000 C 
ATOM     15  C   UNL     1      -3.386   6.682  -3.420  0.00  0.00    +0.000 C 
ENDBRANCH  12  14
ENDBRANCH  11  12
ENDBRANCH  10  11
ENDBRANCH   3   9
BRANCH   1  16
ATOM     16  O   UNL     1      -7.770   7.514   5.596  0.00  0.00    +0.000 OA
BRANCH  16  18
ATOM     17  O   UNL     1      -6.325   5.719   5.918  0.00  0.00    +0.000 OA
ATOM     18  C   UNL     1      -7.395   6.281   6.117  0.00  0.00    +0.000 C 
BRANCH  18  19
ATOM     19  C   UNL     1      -8.484   5.713   6.950  0.00  0.00    +0.000 C 
ATOM     20  C   UNL     1      -8.294   5.284   8.399  0.00  0.00    +0.000 C 
BRANCH  19  21
ATOM     21  C   UNL     1      -9.777   5.560   6.384  0.00  0.00    +0.000 C 
ATOM     22  C   UNL     1     -11.182   5.400   5.773  0.00  0.00    +0.000 C 
ENDBRANCH  19  21
ENDBRANCH  18  19
ENDBRANCH  16  18
ENDBRANCH   1  16
TORSDOF 9
ENDMDL
MODEL 2
REMARK VINA RESULT:      -4.7     21.977     24.020
REMARK  Name = 122180587_TripolinolateA.pdbqt.pdb
REMARK  9 active torsions:
REMARK  status: ('A' for Active; 'I' for Inactive)
REMARK    1  A    between atoms: C_1  and  O_16
REMARK    2  A    between atoms: C_2  and  O_7
REMARK    3  A    between atoms: C_3  and  C_9
REMARK    4  A    between atoms: C_10  and  C_11
REMARK    5  A    between atoms: C_11  and  O_12
REMARK    6  A    between atoms: O_12  and  C_14
REMARK    7  A    between atoms: O_16  and  C_18
REMARK    8  A    between atoms: C_18  and  C_19
REMARK    9  A    between atoms: C_19  and  C_21
REMARK                            x       y       z     vdW  Elec       q    Type
REMARK                         _______ _______ _______ _____ _____    ______ ____
ROOT
ATOM      1  C   UNL     1       6.712 -11.774  11.742  0.00  0.00    +0.000 A 
ATOM      2  C   UNL     1       5.476 -11.159  11.968  0.00  0.00    +0.000 A 
ATOM      3  C   UNL     1       6.242  -9.268  10.657  0.00  0.00    +0.000 A 
ATOM      4  C   UNL     1       7.719 -11.141  11.011  0.00  0.00    +0.000 A 
ATOM      5  C   UNL     1       5.252  -9.898  11.410  0.00  0.00    +0.000 A 
ATOM      6  C   UNL     1       7.476  -9.886  10.459  0.00  0.00    +0.000 A 
ENDROOT
BRANCH   2   7
ATOM      7  O   UNL     1       4.570 -11.835  12.745  0.00  0.00    +0.000 OA
ATOM      8  C   UNL     1       4.479 -11.414  14.078  0.00  0.00    +0.000 C 
ENDBRANCH   2   7
BRANCH   3   9
ATOM      9  C   UNL     1       5.993  -7.983  10.091  0.00  0.00    +0.000 C 
ATOM     10  C   UNL     1       5.785  -6.899   9.616  0.00  0.00    +0.000 C 
BRANCH  10  11
ATOM     11  C   UNL     1       5.519  -5.516   9.014  0.00  0.00    +0.000 C 
BRANCH  11  12
ATOM     12  O   UNL     1       5.290  -4.313   8.491  0.00  0.00    +0.000 OA
BRANCH  12  14
ATOM     13  O   UNL     1       7.249  -3.037   8.485  0.00  0.00    +0.000 OA
ATOM     14  C   UNL     1       6.142  -3.347   8.886  0.00  0.00    +0.000 C 
ATOM     15  C   UNL     1       5.643  -2.508  10.013  0.00  0.00    +0.000 C 
ENDBRANCH  12  14
ENDBRANCH  11  12
ENDBRANCH  10  11
ENDBRANCH   3   9
BRANCH   1  16
ATOM     16  O   UNL     1       6.991 -13.016  12.328  0.00  0.00    +0.000 OA
BRANCH  16  18
ATOM     17  O   UNL     1       6.238 -14.399  10.617  0.00  0.00    +0.000 OA
ATOM     18  C   UNL     1       7.106 -14.049  11.406  0.00  0.00    +0.000 C 
BRANCH  18  19
ATOM     19  C   UNL     1       8.437 -14.698  11.511  0.00  0.00    +0.000 C 
ATOM     20  C   UNL     1       9.555 -14.179  12.406  0.00  0.00    +0.000 C 
BRANCH  19  21
ATOM     21  C   UNL     1       8.696 -15.867  10.748  0.00  0.00    +0.000 C 
ATOM     22  C   UNL     1       8.983 -17.132   9.918  0.00  0.00    +0.000 C 
ENDBRANCH  19  21
ENDBRANCH  18  19
ENDBRANCH  16  18
ENDBRANCH   1  16
TORSDOF 9
ENDMDL
MODEL 3
REMARK VINA RESULT:      -4.7     25.936     28.675
REMARK  Name = 122180587_TripolinolateA.pdbqt.pdb
REMARK  9 active torsions:
REMARK  status: ('A' for Active; 'I' for Inactive)
REMARK    1  A    between atoms: C_1  and  O_16
REMARK    2  A    between atoms: C_2  and  O_7
REMARK    3  A    between atoms: C_3  and  C_9
REMARK    4  A    between atoms: C_10  and  C_11
REMARK    5  A    between atoms: C_11  and  O_12
REMARK    6  A    between atoms: O_12  and  C_14
REMARK    7  A    between atoms: O_16  and  C_18
REMARK    8  A    between atoms: C_18  and  C_19
REMARK    9  A    between atoms: C_19  and  C_21
REMARK                            x       y       z     vdW  Elec       q    Type
REMARK                         _______ _______ _______ _____ _____    ______ ____
ROOT
ATOM      1  C   UNL     1      -4.115 -16.155  18.329  0.00  0.00    +0.000 A 
ATOM      2  C   UNL     1      -3.460 -16.486  19.519  0.00  0.00    +0.000 A 
ATOM      3  C   UNL     1      -2.049 -14.536  19.218  0.00  0.00    +0.000 A 
ATOM      4  C   UNL     1      -3.730 -15.050  17.568  0.00  0.00    +0.000 A 
ATOM      5  C   UNL     1      -2.423 -15.657  19.958  0.00  0.00    +0.000 A 
ATOM      6  C   UNL     1      -2.698 -14.234  18.022  0.00  0.00    +0.000 A 
ENDROOT
BRANCH   2   7
ATOM      7  O   UNL     1      -3.871 -17.622  20.170  0.00  0.00    +0.000 OA
ATOM      8  C   UNL     1      -4.266 -17.449  21.502  0.00  0.00    +0.000 C 
ENDBRANCH   2   7
BRANCH   3   9
ATOM      9  C   UNL     1      -0.992 -13.699  19.684  0.00  0.00    +0.000 C 
ATOM     10  C   UNL     1      -0.101 -12.996  20.076  0.00  0.00    +0.000 C 
BRANCH  10  11
ATOM     11  C   UNL     1       1.035 -12.101  20.581  0.00  0.00    +0.000 C 
BRANCH  11  12
ATOM     12  O   UNL     1       2.022 -11.324  21.022  0.00  0.00    +0.000 OA
BRANCH  12  14
ATOM     13  O   UNL     1       3.287  -9.901  19.665  0.00  0.00    +0.000 OA
ATOM     14  C   UNL     1       2.282 -10.243  20.260  0.00  0.00    +0.000 C 
ATOM     15  C   UNL     1       1.137  -9.298  20.120  0.00  0.00    +0.000 C 
ENDBRANCH  12  14
ENDBRANCH  11  12
ENDBRANCH  10  11
ENDBRANCH   3   9
BRANCH   1  16
ATOM     16  O   UNL     1      -5.124 -16.991  17.832  0.00  0.00    +0.000 OA
BRANCH  16  18
ATOM     17  O   UNL     1      -6.852 -15.604  17.127  0.00  0.00    +0.000 OA
ATOM     18  C   UNL     1      -6.392 -16.430  17.906  0.00  0.00    +0.000 C 
BRANCH  18  19
ATOM     19  C   UNL     1      -7.130 -16.955  19.082  0.00  0.00    +0.000 C 
ATOM     20  C   UNL     1      -7.554 -16.090  20.261  0.00  0.00    +0.000 C 
BRANCH  19  21
ATOM     21  C   UNL     1      -7.470 -18.333  19.122  0.00  0.00    +0.000 C 
ATOM     22  C   UNL     1      -7.845 -19.826  19.173  0.00  0.00    +0.000 C 
ENDBRANCH  19  21
ENDBRANCH  18  19
ENDBRANCH  16  18
ENDBRANCH   1  16
TORSDOF 9
ENDMDL
MODEL 4
REMARK VINA RESULT:      -4.5     19.036     21.472
REMARK  Name = 122180587_TripolinolateA.pdbqt.pdb
REMARK  9 active torsions:
REMARK  status: ('A' for Active; 'I' for Inactive)
REMARK    1  A    between atoms: C_1  and  O_16
REMARK    2  A    between atoms: C_2  and  O_7
REMARK    3  A    between atoms: C_3  and  C_9
REMARK    4  A    between atoms: C_10  and  C_11
REMARK    5  A    between atoms: C_11  and  O_12
REMARK    6  A    between atoms: O_12  and  C_14
REMARK    7  A    between atoms: O_16  and  C_18
REMARK    8  A    between atoms: C_18  and  C_19
REMARK    9  A    between atoms: C_19  and  C_21
REMARK                            x       y       z     vdW  Elec       q    Type
REMARK                         _______ _______ _______ _____ _____    ______ ____
ROOT
ATOM      1  C   UNL     1       6.634  -4.680   9.463  0.00  0.00    +0.000 A 
ATOM      2  C   UNL     1       7.201  -5.069  10.682  0.00  0.00    +0.000 A 
ATOM      3  C   UNL     1       6.041  -7.190  10.479  0.00  0.00    +0.000 A 
ATOM      4  C   UNL     1       5.755  -5.515   8.769  0.00  0.00    +0.000 A 
ATOM      5  C   UNL     1       6.896  -6.339  11.179  0.00  0.00    +0.000 A 
ATOM      6  C   UNL     1       5.468  -6.778   9.277  0.00  0.00    +0.000 A 
ENDROOT
BRANCH   2   7
ATOM      7  O   UNL     1       8.008  -4.160  11.319  0.00  0.00    +0.000 OA
ATOM      8  C   UNL     1       9.383  -4.317  11.107  0.00  0.00    +0.000 C 
ENDBRANCH   2   7
BRANCH   3   9
ATOM      9  C   UNL     1       5.746  -8.484  11.000  0.00  0.00    +0.000 C 
ATOM     10  C   UNL     1       5.496  -9.574  11.438  0.00  0.00    +0.000 C 
BRANCH  10  11
ATOM     11  C   UNL     1       5.173 -10.964  11.997  0.00  0.00    +0.000 C 
BRANCH  11  12
ATOM     12  O   UNL     1       4.892 -12.170  12.485  0.00  0.00    +0.000 OA
BRANCH  12  14
ATOM     13  O   UNL     1       4.748 -14.257  11.441  0.00  0.00    +0.000 OA
ATOM     14  C   UNL     1       5.291 -13.204  11.718  0.00  0.00    +0.000 C 
ATOM     15  C   UNL     1       6.636 -13.028  11.097  0.00  0.00    +0.000 C 
ENDBRANCH  12  14
ENDBRANCH  11  12
ENDBRANCH  10  11
ENDBRANCH   3   9
BRANCH   1  16
ATOM     16  O   UNL     1       6.875  -3.395   8.960  0.00  0.00    +0.000 OA
BRANCH  16  18
ATOM     17  O   UNL     1       4.892  -2.569   9.851  0.00  0.00    +0.000 OA
ATOM     18  C   UNL     1       6.063  -2.420   9.526  0.00  0.00    +0.000 C 
BRANCH  18  19
ATOM     19  C   UNL     1       6.805  -1.143   9.675  0.00  0.00    +0.000 C 
ATOM     20  C   UNL     1       8.308  -1.016   9.460  0.00  0.00    +0.000 C 
BRANCH  19  21
ATOM     21  C   UNL     1       6.091   0.032  10.030  0.00  0.00    +0.000 C 
ATOM     22  C   UNL     1       5.314   1.307  10.407  0.00  0.00    +0.000 C 
ENDBRANCH  19  21
ENDBRANCH  18  19
ENDBRANCH  16  18
ENDBRANCH   1  16
TORSDOF 9
ENDMDL
MODEL 5
REMARK VINA RESULT:      -4.5      1.173      2.421
REMARK  Name = 122180587_TripolinolateA.pdbqt.pdb
REMARK  9 active torsions:
REMARK  status: ('A' for Active; 'I' for Inactive)
REMARK    1  A    between atoms: C_1  and  O_16
REMARK    2  A    between atoms: C_2  and  O_7
REMARK    3  A    between atoms: C_3  and  C_9
REMARK    4  A    between atoms: C_10  and  C_11
REMARK    5  A    between atoms: C_11  and  O_12
REMARK    6  A    between atoms: O_12  and  C_14
REMARK    7  A    between atoms: O_16  and  C_18
REMARK    8  A    between atoms: C_18  and  C_19
REMARK    9  A    between atoms: C_19  and  C_21
REMARK                            x       y       z     vdW  Elec       q    Type
REMARK                         _______ _______ _______ _____ _____    ______ ____
ROOT
ATOM      1  C   UNL     1      -6.806   7.418   4.545  0.00  0.00    +0.000 A 
ATOM      2  C   UNL     1      -7.034   6.511   3.505  0.00  0.00    +0.000 A 
ATOM      3  C   UNL     1      -6.003   8.090   1.978  0.00  0.00    +0.000 A 
ATOM      4  C   UNL     1      -6.214   8.661   4.311  0.00  0.00    +0.000 A 
ATOM      5  C   UNL     1      -6.619   6.862   2.217  0.00  0.00    +0.000 A 
ATOM      6  C   UNL     1      -5.803   8.991   3.023  0.00  0.00    +0.000 A 
ENDROOT
BRANCH   2   7
ATOM      7  O   UNL     1      -7.673   5.339   3.821  0.00  0.00    +0.000 OA
ATOM      8  C   UNL     1      -8.718   4.967   2.966  0.00  0.00    +0.000 C 
ENDBRANCH   2   7
BRANCH   3   9
ATOM      9  C   UNL     1      -5.582   8.428   0.659  0.00  0.00    +0.000 C 
ATOM     10  C   UNL     1      -5.227   8.711  -0.453  0.00  0.00    +0.000 C 
BRANCH  10  11
ATOM     11  C   UNL     1      -4.774   9.068  -1.873  0.00  0.00    +0.000 C 
BRANCH  11  12
ATOM     12  O   UNL     1      -4.380   9.376  -3.106  0.00  0.00    +0.000 OA
BRANCH  12  14
ATOM     13  O   UNL     1      -2.690   7.768  -3.256  0.00  0.00    +0.000 OA
ATOM     14  C   UNL     1      -3.194   8.853  -3.475  0.00  0.00    +0.000 C 
ATOM     15  C   UNL     1      -2.347   9.766  -4.297  0.00  0.00    +0.000 C 
ENDBRANCH  12  14
ENDBRANCH  11  12
ENDBRANCH  10  11
ENDBRANCH   3   9
BRANCH   1  16
ATOM     16  O   UNL     1      -7.256   7.123   5.839  0.00  0.00    +0.000 OA
BRANCH  16  18
ATOM     17  O   UNL     1      -9.219   8.363   5.703  0.00  0.00    +0.000 OA
ATOM     18  C   UNL     1      -8.616   7.343   6.014  0.00  0.00    +0.000 C 
BRANCH  18  19
ATOM     19  C   UNL     1      -9.258   6.167   6.653  0.00  0.00    +0.000 C 
ATOM     20  C   UNL     1      -8.642   5.406   7.820  0.00  0.00    +0.000 C 
BRANCH  19  21
ATOM     21  C   UNL     1     -10.515   5.720   6.168  0.00  0.00    +0.000 C 
ATOM     22  C   UNL     1     -11.881   5.232   5.650  0.00  0.00    +0.000 C 
ENDBRANCH  19  21
ENDBRANCH  18  19
ENDBRANCH  16  18
ENDBRANCH   1  16
TORSDOF 9
ENDMDL
MODEL 6
REMARK VINA RESULT:      -4.4     21.930     25.152
REMARK  Name = 122180587_TripolinolateA.pdbqt.pdb
REMARK  9 active torsions:
REMARK  status: ('A' for Active; 'I' for Inactive)
REMARK    1  A    between atoms: C_1  and  O_16
REMARK    2  A    between atoms: C_2  and  O_7
REMARK    3  A    between atoms: C_3  and  C_9
REMARK    4  A    between atoms: C_10  and  C_11
REMARK    5  A    between atoms: C_11  and  O_12
REMARK    6  A    between atoms: O_12  and  C_14
REMARK    7  A    between atoms: O_16  and  C_18
REMARK    8  A    between atoms: C_18  and  C_19
REMARK    9  A    between atoms: C_19  and  C_21
REMARK                            x       y       z     vdW  Elec       q    Type
REMARK                         _______ _______ _______ _____ _____    ______ ____
ROOT
ATOM      1  C   UNL     1     -13.569 -16.461  11.389  0.00  0.00    +0.000 A 
ATOM      2  C   UNL     1     -14.156 -15.805  10.303  0.00  0.00    +0.000 A 
ATOM      3  C   UNL     1     -11.990 -15.794   9.212  0.00  0.00    +0.000 A 
ATOM      4  C   UNL     1     -12.204 -16.757  11.412  0.00  0.00    +0.000 A 
ATOM      5  C   UNL     1     -13.348 -15.480   9.210  0.00  0.00    +0.000 A 
ATOM      6  C   UNL     1     -11.417 -16.429  10.313  0.00  0.00    +0.000 A 
ENDROOT
BRANCH   2   7
ATOM      7  O   UNL     1     -15.492 -15.507  10.395  0.00  0.00    +0.000 OA
ATOM      8  C   UNL     1     -15.820 -14.149  10.289  0.00  0.00    +0.000 C 
ENDBRANCH   2   7
BRANCH   3   9
ATOM      9  C   UNL     1     -11.182 -15.458   8.085  0.00  0.00    +0.000 C 
ATOM     10  C   UNL     1     -10.503 -15.174   7.137  0.00  0.00    +0.000 C 
BRANCH  10  11
ATOM     11  C   UNL     1      -9.640 -14.809   5.925  0.00  0.00    +0.000 C 
BRANCH  11  12
ATOM     12  O   UNL     1      -8.888 -14.493   4.873  0.00  0.00    +0.000 OA
BRANCH  12  14
ATOM     13  O   UNL     1      -7.838 -12.412   5.055  0.00  0.00    +0.000 OA
ATOM     14  C   UNL     1      -8.708 -13.172   4.674  0.00  0.00    +0.000 C 
ATOM     15  C   UNL     1      -9.762 -12.525   3.840  0.00  0.00    +0.000 C 
ENDBRANCH  12  14
ENDBRANCH  11  12
ENDBRANCH  10  11
ENDBRANCH   3   9
BRANCH   1  16
ATOM     16  O   UNL     1     -14.337 -16.757  12.524  0.00  0.00    +0.000 OA
BRANCH  16  18
ATOM     17  O   UNL     1     -14.091 -14.611  13.386  0.00  0.00    +0.000 OA
ATOM     18  C   UNL     1     -14.201 -15.820  13.541  0.00  0.00    +0.000 C 
BRANCH  18  19
ATOM     19  C   UNL     1     -14.190 -16.486  14.868  0.00  0.00    +0.000 C 
ATOM     20  C   UNL     1     -14.961 -15.967  16.073  0.00  0.00    +0.000 C 
BRANCH  19  21
ATOM     21  C   UNL     1     -13.430 -17.674  15.036  0.00  0.00    +0.000 C 
ATOM     22  C   UNL     1     -12.599 -18.958  15.219  0.00  0.00    +0.000 C 
ENDBRANCH  19  21
ENDBRANCH  18  19
ENDBRANCH  16  18
ENDBRANCH   1  16
TORSDOF 9
ENDMDL
MODEL 7
REMARK VINA RESULT:      -4.3      4.230      9.721
REMARK  Name = 122180587_TripolinolateA.pdbqt.pdb
REMARK  9 active torsions:
REMARK  status: ('A' for Active; 'I' for Inactive)
REMARK    1  A    between atoms: C_1  and  O_16
REMARK    2  A    between atoms: C_2  and  O_7
REMARK    3  A    between atoms: C_3  and  C_9
REMARK    4  A    between atoms: C_10  and  C_11
REMARK    5  A    between atoms: C_11  and  O_12
REMARK    6  A    between atoms: O_12  and  C_14
REMARK    7  A    between atoms: O_16  and  C_18
REMARK    8  A    between atoms: C_18  and  C_19
REMARK    9  A    between atoms: C_19  and  C_21
REMARK                            x       y       z     vdW  Elec       q    Type
REMARK                         _______ _______ _______ _____ _____    ______ ____
ROOT
ATOM      1  C   UNL     1      -6.970   6.320   6.104  0.00  0.00    +0.000 A 
ATOM      2  C   UNL     1      -6.970   7.718   6.147  0.00  0.00    +0.000 A 
ATOM      3  C   UNL     1      -7.245   7.586   8.554  0.00  0.00    +0.000 A 
ATOM      4  C   UNL     1      -7.136   5.555   7.260  0.00  0.00    +0.000 A 
ATOM      5  C   UNL     1      -7.104   8.342   7.390  0.00  0.00    +0.000 A 
ATOM      6  C   UNL     1      -7.264   6.194   8.489  0.00  0.00    +0.000 A 
ENDROOT
BRANCH   2   7
ATOM      7  O   UNL     1      -6.857   8.385   4.953  0.00  0.00    +0.000 OA
ATOM      8  C   UNL     1      -5.714   9.182   4.809  0.00  0.00    +0.000 C 
ENDBRANCH   2   7
BRANCH   3   9
ATOM      9  C   UNL     1      -7.375   8.241   9.814  0.00  0.00    +0.000 C 
ATOM     10  C   UNL     1      -7.485   8.791  10.876  0.00  0.00    +0.000 C 
BRANCH  10  11
ATOM     11  C   UNL     1      -7.628   9.489  12.232  0.00  0.00    +0.000 C 
BRANCH  11  12
ATOM     12  O   UNL     1      -7.754  10.094  13.411  0.00  0.00    +0.000 OA
BRANCH  12  14
ATOM     13  O   UNL     1      -6.649   9.634  15.419  0.00  0.00    +0.000 OA
ATOM     14  C   UNL     1      -7.365   9.362  14.473  0.00  0.00    +0.000 C 
ATOM     15  C   UNL     1      -7.909   7.973  14.497  0.00  0.00    +0.000 C 
ENDBRANCH  12  14
ENDBRANCH  11  12
ENDBRANCH  10  11
ENDBRANCH   3   9
BRANCH   1  16
ATOM     16  O   UNL     1      -6.890   5.661   4.870  0.00  0.00    +0.000 OA
BRANCH  16  18
ATOM     17  O   UNL     1      -9.160   5.158   4.855  0.00  0.00    +0.000 OA
ATOM     18  C   UNL     1      -8.127   5.458   4.271  0.00  0.00    +0.000 C 
BRANCH  18  19
ATOM     19  C   UNL     1      -8.033   5.639   2.801  0.00  0.00    +0.000 C 
ATOM     20  C   UNL     1      -6.842   6.291   2.111  0.00  0.00    +0.000 C 
BRANCH  19  21
ATOM     21  C   UNL     1      -9.097   5.182   1.980  0.00  0.00    +0.000 C 
ATOM     22  C   UNL     1     -10.255   4.693   1.090  0.00  0.00    +0.000 C 
ENDBRANCH  19  21
ENDBRANCH  18  19
ENDBRANCH  16  18
ENDBRANCH   1  16
TORSDOF 9
ENDMDL
MODEL 8
REMARK VINA RESULT:      -4.1     23.302     26.906
REMARK  Name = 122180587_TripolinolateA.pdbqt.pdb
REMARK  9 active torsions:
REMARK  status: ('A' for Active; 'I' for Inactive)
REMARK    1  A    between atoms: C_1  and  O_16
REMARK    2  A    between atoms: C_2  and  O_7
REMARK    3  A    between atoms: C_3  and  C_9
REMARK    4  A    between atoms: C_10  and  C_11
REMARK    5  A    between atoms: C_11  and  O_12
REMARK    6  A    between atoms: O_12  and  C_14
REMARK    7  A    between atoms: O_16  and  C_18
REMARK    8  A    between atoms: C_18  and  C_19
REMARK    9  A    between atoms: C_19  and  C_21
REMARK                            x       y       z     vdW  Elec       q    Type
REMARK                         _______ _______ _______ _____ _____    ______ ____
ROOT
ATOM      1  C   UNL     1     -19.665  -3.992  19.568  0.00  0.00    +0.000 A 
ATOM      2  C   UNL     1     -19.820  -2.631  19.853  0.00  0.00    +0.000 A 
ATOM      3  C   UNL     1     -19.654  -3.165  22.214  0.00  0.00    +0.000 A 
ATOM      4  C   UNL     1     -19.537  -4.940  20.586  0.00  0.00    +0.000 A 
ATOM      5  C   UNL     1     -19.807  -2.229  21.191  0.00  0.00    +0.000 A 
ATOM      6  C   UNL     1     -19.523  -4.520  21.912  0.00  0.00    +0.000 A 
ENDROOT
BRANCH   2   7
ATOM      7  O   UNL     1     -19.994  -1.782  18.790  0.00  0.00    +0.000 OA
ATOM      8  C   UNL     1     -19.810  -0.421  19.064  0.00  0.00    +0.000 C 
ENDBRANCH   2   7
BRANCH   3   9
ATOM      9  C   UNL     1     -19.638  -2.735  23.573  0.00  0.00    +0.000 C 
ATOM     10  C   UNL     1     -19.627  -2.372  24.718  0.00  0.00    +0.000 C 
BRANCH  10  11
ATOM     11  C   UNL     1     -19.614  -1.906  26.177  0.00  0.00    +0.000 C 
BRANCH  11  12
ATOM     12  O   UNL     1     -19.603  -1.503  27.446  0.00  0.00    +0.000 OA
BRANCH  12  14
ATOM     13  O   UNL     1     -17.874  -0.872  28.888  0.00  0.00    +0.000 OA
ATOM     14  C   UNL     1     -18.408  -1.589  28.062  0.00  0.00    +0.000 C 
ATOM     15  C   UNL     1     -17.592  -2.772  27.662  0.00  0.00    +0.000 C 
ENDBRANCH  12  14
ENDBRANCH  11  12
ENDBRANCH  10  11
ENDBRANCH   3   9
BRANCH   1  16
ATOM     16  O   UNL     1     -19.725  -4.438  18.241  0.00  0.00    +0.000 OA
BRANCH  16  18
ATOM     17  O   UNL     1     -22.016  -4.836  18.213  0.00  0.00    +0.000 OA
ATOM     18  C   UNL     1     -20.867  -5.176  17.958  0.00  0.00    +0.000 C 
BRANCH  18  19
ATOM     19  C   UNL     1     -20.512  -6.462  17.309  0.00  0.00    +0.000 C 
ATOM     20  C   UNL     1     -21.545  -7.462  16.807  0.00  0.00    +0.000 C 
BRANCH  19  21
ATOM     21  C   UNL     1     -19.142  -6.791  17.134  0.00  0.00    +0.000 C 
ATOM     22  C   UNL     1     -17.653  -7.142  16.950  0.00  0.00    +0.000 C 
ENDBRANCH  19  21
ENDBRANCH  18  19
ENDBRANCH  16  18
ENDBRANCH   1  16
TORSDOF 9
ENDMDL
MODEL 9
REMARK VINA RESULT:      -4.1      2.170      3.316
REMARK  Name = 122180587_TripolinolateA.pdbqt.pdb
REMARK  9 active torsions:
REMARK  status: ('A' for Active; 'I' for Inactive)
REMARK    1  A    between atoms: C_1  and  O_16
REMARK    2  A    between atoms: C_2  and  O_7
REMARK    3  A    between atoms: C_3  and  C_9
REMARK    4  A    between atoms: C_10  and  C_11
REMARK    5  A    between atoms: C_11  and  O_12
REMARK    6  A    between atoms: O_12  and  C_14
REMARK    7  A    between atoms: O_16  and  C_18
REMARK    8  A    between atoms: C_18  and  C_19
REMARK    9  A    between atoms: C_19  and  C_21
REMARK                            x       y       z     vdW  Elec       q    Type
REMARK                         _______ _______ _______ _____ _____    ______ ____
ROOT
ATOM      1  C   UNL     1      -9.033   6.353   4.030  0.00  0.00    +0.000 A 
ATOM      2  C   UNL     1      -7.679   6.104   4.279  0.00  0.00    +0.000 A 
ATOM      3  C   UNL     1      -7.125   7.693   2.532  0.00  0.00    +0.000 A 
ATOM      4  C   UNL     1      -9.440   7.234   3.027  0.00  0.00    +0.000 A 
ATOM      5  C   UNL     1      -6.729   6.792   3.519  0.00  0.00    +0.000 A 
ATOM      6  C   UNL     1      -8.479   7.913   2.283  0.00  0.00    +0.000 A 
ENDROOT
BRANCH   2   7
ATOM      7  O   UNL     1      -7.377   5.180   5.247  0.00  0.00    +0.000 OA
ATOM      8  C   UNL     1      -6.730   5.682   6.384  0.00  0.00    +0.000 C 
ENDBRANCH   2   7
BRANCH   3   9
ATOM      9  C   UNL     1      -6.141   8.389   1.770  0.00  0.00    +0.000 C 
ATOM     10  C   UNL     1      -5.312   8.976   1.129  0.00  0.00    +0.000 C 
BRANCH  10  11
ATOM     11  C   UNL     1      -4.257   9.729   0.313  0.00  0.00    +0.000 C 
BRANCH  11  12
ATOM     12  O   UNL     1      -3.340  10.382  -0.398  0.00  0.00    +0.000 OA
BRANCH  12  14
ATOM     13  O   UNL     1      -3.752   9.116  -2.320  0.00  0.00    +0.000 OA
ATOM     14  C   UNL     1      -3.107   9.882  -1.627  0.00  0.00    +0.000 C 
ATOM     15  C   UNL     1      -1.835  10.347  -2.251  0.00  0.00    +0.000 C 
ENDBRANCH  12  14
ENDBRANCH  11  12
ENDBRANCH  10  11
ENDBRANCH   3   9
BRANCH   1  16
ATOM     16  O   UNL     1     -10.014   5.644   4.737  0.00  0.00    +0.000 OA
BRANCH  16  18
ATOM     17  O   UNL     1     -10.091   6.822   6.740  0.00  0.00    +0.000 OA
ATOM     18  C   UNL     1     -10.632   6.396   5.728  0.00  0.00    +0.000 C 
BRANCH  18  19
ATOM     19  C   UNL     1     -12.065   6.609   5.406  0.00  0.00    +0.000 C 
ATOM     20  C   UNL     1     -12.614   6.612   3.985  0.00  0.00    +0.000 C 
BRANCH  19  21
ATOM     21  C   UNL     1     -12.987   6.817   6.466  0.00  0.00    +0.000 C 
ATOM     22  C   UNL     1     -13.990   7.035   7.613  0.00  0.00    +0.000 C 
ENDBRANCH  19  21
ENDBRANCH  18  19
ENDBRANCH  16  18
ENDBRANCH   1  16
TORSDOF 9
ENDMDL
