MODEL 1
REMARK VINA RESULT:      -6.7      0.000      0.000
REMARK  Name = 135403648_CalciumFolinate.pdbqt.pdb
REMARK  10 active torsions:
REMARK  status: ('A' for Active; 'I' for Inactive)
REMARK    1  A    between atoms: N_1  and  C_3
REMARK    2  A    between atoms: N_1  and  C_24
REMARK    3  A    between atoms: C_6  and  C_11
REMARK    4  A    between atoms: CA_13  and  C_15
REMARK    5  A    between atoms: CA_13  and  CB_18
REMARK    6  A    between atoms: C_15  and  O_16
REMARK    7  A    between atoms: CG_19  and  CD_21
REMARK    8  A    between atoms: CD_21  and  OE1_22
REMARK    9  A    between atoms: C_24  and  C_32
REMARK   10  A    between atoms: N_27  and  C_37
REMARK                            x       y       z     vdW  Elec       q    Type
REMARK                         _______ _______ _______ _____ _____    ______ ____
ROOT
ATOM      1  N   UNL     1     -10.876   5.659   1.092  0.00  0.00    +0.000 N 
ATOM      2  H   UNL     1     -10.108   5.767   0.430  0.00  0.00    +0.000 HD
ENDROOT
BRANCH   1   3
ATOM      3  C   UNL     1     -11.884   4.802   0.603  0.00  0.00    +0.000 A 
ATOM      4  C   UNL     1     -12.108   3.580   1.244  0.00  0.00    +0.000 A 
ATOM      5  C   UNL     1     -12.547   5.045  -0.606  0.00  0.00    +0.000 A 
ATOM      6  C   UNL     1     -13.708   2.933  -0.445  0.00  0.00    +0.000 A 
ATOM      7  C   UNL     1     -13.024   2.659   0.736  0.00  0.00    +0.000 A 
ATOM      8  C   UNL     1     -13.463   4.130  -1.120  0.00  0.00    +0.000 A 
BRANCH   6  11
ATOM      9  O   UNL     1     -14.479   1.519  -2.136  0.00  0.00    +0.000 OA
ATOM     10  N   UNL     1     -15.799   1.704  -0.241  0.00  0.00    +0.000 N 
ATOM     11  C   ACE A   0     -14.695   1.985  -1.023  0.00  0.00    +0.000 C 
ATOM     12  H   UNL     1     -15.891   2.146   0.671  0.00  0.00    +0.000 HD
ATOM     13  CA  UNL     1     -16.850   0.861  -0.554  0.00  0.00    +0.000 C 
BRANCH  13  15
ATOM     14  OXT UNL     1     -19.109   0.758   0.221  0.00  0.00    +0.000 OA
ATOM     15  C   UNL     1     -17.913   0.745   0.474  0.00  0.00    +0.000 C 
BRANCH  15  16
ATOM     16  O   UNL     1     -17.454   0.621   1.728  0.00  0.00    +0.000 OA
ATOM     17  H   UNL     1     -17.666  -0.301   1.984  0.00  0.00    +0.000 HD
ENDBRANCH  15  16
ENDBRANCH  13  15
BRANCH  13  18
ATOM     18  CB  UNL     1     -16.911   0.149  -1.781  0.00  0.00    +0.000 C 
ATOM     19  CG  UNL     1     -16.979  -0.629  -3.100  0.00  0.00    +0.000 C 
BRANCH  19  21
ATOM     20  OE2 UNL     1     -18.079  -1.835  -4.773  0.00  0.00    +0.000 OA
ATOM     21  CD  UNL     1     -17.047  -1.372  -4.322  0.00  0.00    +0.000 C 
BRANCH  21  22
ATOM     22  OE1 UNL     1     -15.858  -1.538  -4.929  0.00  0.00    +0.000 OA
ATOM     23  HE1 UNL     1     -16.068  -2.131  -5.678  0.00  0.00    +0.000 HD
ENDBRANCH  21  22
ENDBRANCH  19  21
ENDBRANCH  13  18
ENDBRANCH   6  11
ENDBRANCH   1   3
BRANCH   1  24
ATOM     24  C   UNL     1     -10.496   5.563   2.496  0.00  0.00    +0.000 C 
BRANCH  24  31
ATOM     25  O   UNL     1      -6.161   5.730   5.472  0.00  0.00    +0.000 OA
ATOM     26  N   UNL     1      -8.825   5.680   4.310  0.00  0.00    +0.000 N 
ATOM     27  N   UNL     1     -10.883   5.355   6.352  0.00  0.00    +0.000 N 
ATOM     28  N   UNL     1      -9.212   5.207   8.009  0.00  0.00    +0.000 NA
ATOM     29  N   UNL     1      -6.969   5.537   7.547  0.00  0.00    +0.000 N 
ATOM     30  N   UNL     1      -7.665   5.141   9.706  0.00  0.00    +0.000 N 
ATOM     31  C   UNL     1     -10.134   5.520   3.869  0.00  0.00    +0.000 C 
ATOM     32  C   UNL     1     -11.035   5.340   4.931  0.00  0.00    +0.000 C 
ATOM     33  C   UNL     1      -8.556   5.575   5.702  0.00  0.00    +0.000 A 
ATOM     34  C   UNL     1      -9.514   5.389   6.676  0.00  0.00    +0.000 A 
ATOM     35  C   UNL     1      -7.143   5.628   6.201  0.00  0.00    +0.000 A 
ATOM     36  C   UNL     1      -7.987   5.292   8.400  0.00  0.00    +0.000 A 
ATOM     37  H   UNL     1     -11.381   4.717   6.965  0.00  0.00    +0.000 HD
ATOM     38  H   UNL     1      -6.015   5.525   7.871  0.00  0.00    +0.000 HD
ATOM     39  H   UNL     1      -8.483   5.171  10.308  0.00  0.00    +0.000 HD
ATOM     40  H   UNL     1      -6.904   5.706  10.058  0.00  0.00    +0.000 HD
BRANCH  26  42
ATOM     41  O   UNL     1      -6.963   6.039   2.642  0.00  0.00    +0.000 OA
ATOM     42  C   UNL     1      -7.854   5.890   3.394  0.00  0.00    +0.000 C 
ENDBRANCH  26  42
ENDBRANCH  24  31
ENDBRANCH   1  24
TORSDOF 10
ENDMDL
MODEL 2
REMARK VINA RESULT:      -6.0     12.216     15.198
REMARK  Name = 135403648_CalciumFolinate.pdbqt.pdb
REMARK  10 active torsions:
REMARK  status: ('A' for Active; 'I' for Inactive)
REMARK    1  A    between atoms: N_1  and  C_3
REMARK    2  A    between atoms: N_1  and  C_24
REMARK    3  A    between atoms: C_6  and  C_11
REMARK    4  A    between atoms: CA_13  and  C_15
REMARK    5  A    between atoms: CA_13  and  CB_18
REMARK    6  A    between atoms: C_15  and  O_16
REMARK    7  A    between atoms: CG_19  and  CD_21
REMARK    8  A    between atoms: CD_21  and  OE1_22
REMARK    9  A    between atoms: C_24  and  C_32
REMARK   10  A    between atoms: N_27  and  C_37
REMARK                            x       y       z     vdW  Elec       q    Type
REMARK                         _______ _______ _______ _____ _____    ______ ____
ROOT
ATOM      1  N   UNL     1      -5.375  -3.227  -4.429  0.00  0.00    +0.000 N 
ATOM      2  H   UNL     1      -6.307  -3.031  -4.793  0.00  0.00    +0.000 HD
ENDROOT
BRANCH   1   3
ATOM      3  C   UNL     1      -4.512  -2.118  -4.551  0.00  0.00    +0.000 A 
ATOM      4  C   UNL     1      -4.155  -1.670  -5.827  0.00  0.00    +0.000 A 
ATOM      5  C   UNL     1      -3.856  -1.559  -3.448  0.00  0.00    +0.000 A 
ATOM      6  C   UNL     1      -2.614  -0.067  -4.885  0.00  0.00    +0.000 A 
ATOM      7  C   UNL     1      -3.226  -0.643  -5.995  0.00  0.00    +0.000 A 
ATOM      8  C   UNL     1      -2.928  -0.532  -3.608  0.00  0.00    +0.000 A 
BRANCH   6  11
ATOM      9  O   UNL     1      -0.464   0.748  -5.296  0.00  0.00    +0.000 OA
ATOM     10  N   UNL     1      -2.100   2.311  -4.798  0.00  0.00    +0.000 N 
ATOM     11  C   ACE A   0      -1.623   1.031  -5.014  0.00  0.00    +0.000 C 
ATOM     12  H   UNL     1      -3.081   2.445  -4.564  0.00  0.00    +0.000 HD
ATOM     13  CA  UNL     1      -1.380   3.491  -4.857  0.00  0.00    +0.000 C 
BRANCH  13  15
ATOM     14  OXT UNL     1      -2.620   5.448  -5.444  0.00  0.00    +0.000 OA
ATOM     15  C   UNL     1      -2.147   4.729  -4.576  0.00  0.00    +0.000 C 
BRANCH  15  16
ATOM     16  O   UNL     1      -2.286   5.006  -3.271  0.00  0.00    +0.000 OA
ATOM     17  H   UNL     1      -1.445   5.439  -3.015  0.00  0.00    +0.000 HD
ENDBRANCH  15  16
ENDBRANCH  13  15
BRANCH  13  18
ATOM     18  CB  UNL     1       0.005   3.519  -5.168  0.00  0.00    +0.000 C 
ATOM     19  CG  UNL     1       1.499   3.543  -5.513  0.00  0.00    +0.000 C 
BRANCH  19  21
ATOM     20  OE2 UNL     1       3.337   4.118  -6.836  0.00  0.00    +0.000 OA
ATOM     21  CD  UNL     1       2.889   3.557  -5.852  0.00  0.00    +0.000 C 
BRANCH  21  22
ATOM     22  OE1 UNL     1       3.669   2.873  -4.996  0.00  0.00    +0.000 OA
ATOM     23  HE1 UNL     1       4.576   3.086  -5.297  0.00  0.00    +0.000 HD
ENDBRANCH  21  22
ENDBRANCH  19  21
ENDBRANCH  13  18
ENDBRANCH   6  11
ENDBRANCH   1   3
BRANCH   1  24
ATOM     24  C   UNL     1      -5.322  -4.023  -3.209  0.00  0.00    +0.000 C 
BRANCH  24  31
ATOM     25  O   UNL     1      -4.892  -9.022  -1.628  0.00  0.00    +0.000 OA
ATOM     26  N   UNL     1      -5.083  -6.141  -1.963  0.00  0.00    +0.000 N 
ATOM     27  N   UNL     1      -5.424  -4.782   0.595  0.00  0.00    +0.000 N 
ATOM     28  N   UNL     1      -5.455  -6.866   1.697  0.00  0.00    +0.000 NA
ATOM     29  N   UNL     1      -5.052  -8.861   0.596  0.00  0.00    +0.000 N 
ATOM     30  N   UNL     1      -5.407  -8.840   2.871  0.00  0.00    +0.000 N 
ATOM     31  C   UNL     1      -5.308  -4.769  -2.000  0.00  0.00    +0.000 C 
ATOM     32  C   UNL     1      -5.490  -4.225  -0.719  0.00  0.00    +0.000 C 
ATOM     33  C   UNL     1      -5.134  -6.807  -0.707  0.00  0.00    +0.000 A 
ATOM     34  C   UNL     1      -5.327  -6.183   0.507  0.00  0.00    +0.000 A 
ATOM     35  C   UNL     1      -5.010  -8.300  -0.643  0.00  0.00    +0.000 A 
ATOM     36  C   UNL     1      -5.310  -8.147   1.713  0.00  0.00    +0.000 A 
ATOM     37  H   UNL     1      -6.062  -4.513   1.339  0.00  0.00    +0.000 HD
ATOM     38  H   UNL     1      -5.016  -9.867   0.628  0.00  0.00    +0.000 HD
ATOM     39  H   UNL     1      -5.391  -8.231   3.685  0.00  0.00    +0.000 HD
ATOM     40  H   UNL     1      -4.802  -9.644   2.976  0.00  0.00    +0.000 HD
BRANCH  26  42
ATOM     41  O   UNL     1      -4.660  -7.298  -4.167  0.00  0.00    +0.000 OA
ATOM     42  C   UNL     1      -4.863  -6.794  -3.125  0.00  0.00    +0.000 C 
ENDBRANCH  26  42
ENDBRANCH  24  31
ENDBRANCH   1  24
TORSDOF 10
ENDMDL
MODEL 3
REMARK VINA RESULT:      -5.9     15.642     17.268
REMARK  Name = 135403648_CalciumFolinate.pdbqt.pdb
REMARK  10 active torsions:
REMARK  status: ('A' for Active; 'I' for Inactive)
REMARK    1  A    between atoms: N_1  and  C_3
REMARK    2  A    between atoms: N_1  and  C_24
REMARK    3  A    between atoms: C_6  and  C_11
REMARK    4  A    between atoms: CA_13  and  C_15
REMARK    5  A    between atoms: CA_13  and  CB_18
REMARK    6  A    between atoms: C_15  and  O_16
REMARK    7  A    between atoms: CG_19  and  CD_21
REMARK    8  A    between atoms: CD_21  and  OE1_22
REMARK    9  A    between atoms: C_24  and  C_32
REMARK   10  A    between atoms: N_27  and  C_37
REMARK                            x       y       z     vdW  Elec       q    Type
REMARK                         _______ _______ _______ _____ _____    ______ ____
ROOT
ATOM      1  N   UNL     1      -7.686 -11.904   1.366  0.00  0.00    +0.000 N 
ATOM      2  H   UNL     1      -7.222 -11.841   0.460  0.00  0.00    +0.000 HD
ENDROOT
BRANCH   1   3
ATOM      3  C   UNL     1      -8.883 -11.158   1.403  0.00  0.00    +0.000 A 
ATOM      4  C   UNL     1      -8.883  -9.845   0.920  0.00  0.00    +0.000 A 
ATOM      5  C   UNL     1     -10.027 -11.616   2.067  0.00  0.00    +0.000 A 
ATOM      6  C   UNL     1     -11.160  -9.523   1.656  0.00  0.00    +0.000 A 
ATOM      7  C   UNL     1     -10.015  -9.038   1.030  0.00  0.00    +0.000 A 
ATOM      8  C   UNL     1     -11.162 -10.816   2.180  0.00  0.00    +0.000 A 
BRANCH   6  11
ATOM      9  O   UNL     1     -13.295  -8.861   0.980  0.00  0.00    +0.000 OA
ATOM     10  N   UNL     1     -12.412  -7.809   2.846  0.00  0.00    +0.000 N 
ATOM     11  C   ACE A   0     -12.390  -8.703   1.792  0.00  0.00    +0.000 C 
ATOM     12  H   UNL     1     -11.608  -7.747   3.465  0.00  0.00    +0.000 HD
ATOM     13  CA  UNL     1     -13.435  -6.939   3.180  0.00  0.00    +0.000 C 
BRANCH  13  15
ATOM     14  OXT UNL     1     -13.830  -6.158   5.405  0.00  0.00    +0.000 OA
ATOM     15  C   UNL     1     -13.190  -6.082   4.366  0.00  0.00    +0.000 C 
BRANCH  15  16
ATOM     16  O   UNL     1     -12.193  -5.198   4.210  0.00  0.00    +0.000 OA
ATOM     17  H   UNL     1     -12.577  -4.336   4.473  0.00  0.00    +0.000 HD
ENDBRANCH  15  16
ENDBRANCH  13  15
BRANCH  13  18
ATOM     18  CB  UNL     1     -14.644  -6.869   2.439  0.00  0.00    +0.000 C 
ATOM     19  CG  UNL     1     -15.954  -6.786   1.647  0.00  0.00    +0.000 C 
BRANCH  19  21
ATOM     20  OE2 UNL     1     -17.270  -6.214  -0.198  0.00  0.00    +0.000 OA
ATOM     21  CD  UNL     1     -17.182  -6.695   0.918  0.00  0.00    +0.000 C 
BRANCH  21  22
ATOM     22  OE1 UNL     1     -18.251  -7.169   1.584  0.00  0.00    +0.000 OA
ATOM     23  HE1 UNL     1     -18.855  -6.400   1.617  0.00  0.00    +0.000 HD
ENDBRANCH  21  22
ENDBRANCH  19  21
ENDBRANCH  13  18
ENDBRANCH   6  11
ENDBRANCH   1   3
BRANCH   1  24
ATOM     24  C   UNL     1      -7.659 -13.213   2.006  0.00  0.00    +0.000 C 
BRANCH  24  31
ATOM     25  O   UNL     1      -4.412 -17.251   2.918  0.00  0.00    +0.000 OA
ATOM     26  N   UNL     1      -6.542 -15.279   2.770  0.00  0.00    +0.000 N 
ATOM     27  N   UNL     1      -8.981 -16.232   4.055  0.00  0.00    +0.000 N 
ATOM     28  N   UNL     1      -7.930 -18.291   4.518  0.00  0.00    +0.000 NA
ATOM     29  N   UNL     1      -5.691 -18.672   4.077  0.00  0.00    +0.000 N 
ATOM     30  N   UNL     1      -6.968 -20.296   5.095  0.00  0.00    +0.000 N 
ATOM     31  C   UNL     1      -7.671 -14.474   2.660  0.00  0.00    +0.000 C 
ATOM     32  C   UNL     1      -8.792 -15.043   3.285  0.00  0.00    +0.000 C 
ATOM     33  C   UNL     1      -6.667 -16.546   3.403  0.00  0.00    +0.000 A 
ATOM     34  C   UNL     1      -7.820 -17.024   3.986  0.00  0.00    +0.000 A 
ATOM     35  C   UNL     1      -5.498 -17.486   3.438  0.00  0.00    +0.000 A 
ATOM     36  C   UNL     1      -6.894 -19.056   4.557  0.00  0.00    +0.000 A 
ATOM     37  H   UNL     1      -9.814 -16.809   3.980  0.00  0.00    +0.000 HD
ATOM     38  H   UNL     1      -4.918 -19.318   4.055  0.00  0.00    +0.000 HD
ATOM     39  H   UNL     1      -7.828 -20.436   5.618  0.00  0.00    +0.000 HD
ATOM     40  H   UNL     1      -6.153 -20.628   5.593  0.00  0.00    +0.000 HD
BRANCH  26  42
ATOM     41  O   UNL     1      -4.408 -14.417   1.730  0.00  0.00    +0.000 OA
ATOM     42  C   UNL     1      -5.380 -14.842   2.236  0.00  0.00    +0.000 C 
ENDBRANCH  26  42
ENDBRANCH  24  31
ENDBRANCH   1  24
TORSDOF 10
ENDMDL
MODEL 4
REMARK VINA RESULT:      -5.9     16.979     18.954
REMARK  Name = 135403648_CalciumFolinate.pdbqt.pdb
REMARK  10 active torsions:
REMARK  status: ('A' for Active; 'I' for Inactive)
REMARK    1  A    between atoms: N_1  and  C_3
REMARK    2  A    between atoms: N_1  and  C_24
REMARK    3  A    between atoms: C_6  and  C_11
REMARK    4  A    between atoms: CA_13  and  C_15
REMARK    5  A    between atoms: CA_13  and  CB_18
REMARK    6  A    between atoms: C_15  and  O_16
REMARK    7  A    between atoms: CG_19  and  CD_21
REMARK    8  A    between atoms: CD_21  and  OE1_22
REMARK    9  A    between atoms: C_24  and  C_32
REMARK   10  A    between atoms: N_27  and  C_37
REMARK                            x       y       z     vdW  Elec       q    Type
REMARK                         _______ _______ _______ _____ _____    ______ ____
ROOT
ATOM      1  N   UNL     1      -2.893  -8.898  -2.825  0.00  0.00    +0.000 N 
ATOM      2  H   UNL     1      -3.424  -9.281  -3.606  0.00  0.00    +0.000 HD
ENDROOT
BRANCH   1   3
ATOM      3  C   UNL     1      -1.500  -8.972  -3.042  0.00  0.00    +0.000 A 
ATOM      4  C   UNL     1      -1.011  -9.819  -4.041  0.00  0.00    +0.000 A 
ATOM      5  C   UNL     1      -0.579  -8.367  -2.180  0.00  0.00    +0.000 A 
ATOM      6  C   UNL     1       1.267  -9.357  -3.384  0.00  0.00    +0.000 A 
ATOM      7  C   UNL     1       0.360 -10.000  -4.223  0.00  0.00    +0.000 A 
ATOM      8  C   UNL     1       0.792  -8.542  -2.356  0.00  0.00    +0.000 A 
BRANCH   6  11
ATOM      9  O   UNL     1       3.205 -10.647  -3.556  0.00  0.00    +0.000 OA
ATOM     10  N   UNL     1       3.464  -8.347  -3.658  0.00  0.00    +0.000 N 
ATOM     11  C   ACE A   0       2.734  -9.515  -3.541  0.00  0.00    +0.000 C 
ATOM     12  H   UNL     1       2.981  -7.452  -3.629  0.00  0.00    +0.000 HD
ATOM     13  CA  UNL     1       4.834  -8.231  -3.810  0.00  0.00    +0.000 C 
BRANCH  13  15
ATOM     14  OXT UNL     1       6.525  -6.545  -3.709  0.00  0.00    +0.000 OA
ATOM     15  C   UNL     1       5.357  -6.847  -3.907  0.00  0.00    +0.000 C 
BRANCH  15  16
ATOM     16  O   UNL     1       4.433  -5.931  -4.237  0.00  0.00    +0.000 OA
ATOM     17  H   UNL     1       3.617  -6.221  -3.779  0.00  0.00    +0.000 HD
ENDBRANCH  15  16
ENDBRANCH  13  15
BRANCH  13  18
ATOM     18  CB  UNL     1       5.688  -9.363  -3.872  0.00  0.00    +0.000 C 
ATOM     19  CG  UNL     1       6.605 -10.591  -3.930  0.00  0.00    +0.000 C 
BRANCH  19  21
ATOM     20  OE2 UNL     1       8.397 -11.861  -4.728  0.00  0.00    +0.000 OA
ATOM     21  CD  UNL     1       7.449 -11.746  -3.972  0.00  0.00    +0.000 C 
BRANCH  21  22
ATOM     22  OE1 UNL     1       7.093 -12.717  -3.112  0.00  0.00    +0.000 OA
ATOM     23  HE1 UNL     1       6.254 -12.386  -2.732  0.00  0.00    +0.000 HD
ENDBRANCH  21  22
ENDBRANCH  19  21
ENDBRANCH  13  18
ENDBRANCH   6  11
ENDBRANCH   1   3
BRANCH   1  24
ATOM     24  C   UNL     1      -3.441  -7.696  -2.209  0.00  0.00    +0.000 C 
BRANCH  24  31
ATOM     25  O   UNL     1      -2.836  -2.481  -2.542  0.00  0.00    +0.000 OA
ATOM     26  N   UNL     1      -3.620  -5.238  -2.060  0.00  0.00    +0.000 N 
ATOM     27  N   UNL     1      -5.730  -5.421  -0.054  0.00  0.00    +0.000 N 
ATOM     28  N   UNL     1      -5.659  -3.081   0.230  0.00  0.00    +0.000 NA
ATOM     29  N   UNL     1      -4.352  -1.706  -1.093  0.00  0.00    +0.000 N 
ATOM     30  N   UNL     1      -5.730  -0.803   0.515  0.00  0.00    +0.000 N 
ATOM     31  C   UNL     1      -3.998  -6.513  -1.654  0.00  0.00    +0.000 C 
ATOM     32  C   UNL     1      -4.994  -6.483  -0.665  0.00  0.00    +0.000 C 
ATOM     33  C   UNL     1      -4.202  -4.115  -1.411  0.00  0.00    +0.000 A 
ATOM     34  C   UNL     1      -5.177  -4.186  -0.439  0.00  0.00    +0.000 A 
ATOM     35  C   UNL     1      -3.735  -2.729  -1.744  0.00  0.00    +0.000 A 
ATOM     36  C   UNL     1      -5.255  -1.906  -0.109  0.00  0.00    +0.000 A 
ATOM     37  H   UNL     1      -5.970  -5.415   0.932  0.00  0.00    +0.000 HD
ATOM     38  H   UNL     1      -4.000  -0.782  -1.287  0.00  0.00    +0.000 HD
ATOM     39  H   UNL     1      -6.546  -1.007   1.086  0.00  0.00    +0.000 HD
ATOM     40  H   UNL     1      -5.851   0.027  -0.050  0.00  0.00    +0.000 HD
BRANCH  26  42
ATOM     41  O   UNL     1      -1.856  -5.080  -3.861  0.00  0.00    +0.000 OA
ATOM     42  C   UNL     1      -2.686  -5.117  -3.029  0.00  0.00    +0.000 C 
ENDBRANCH  26  42
ENDBRANCH  24  31
ENDBRANCH   1  24
TORSDOF 10
ENDMDL
MODEL 5
REMARK VINA RESULT:      -5.8      2.443      3.112
REMARK  Name = 135403648_CalciumFolinate.pdbqt.pdb
REMARK  10 active torsions:
REMARK  status: ('A' for Active; 'I' for Inactive)
REMARK    1  A    between atoms: N_1  and  C_3
REMARK    2  A    between atoms: N_1  and  C_24
REMARK    3  A    between atoms: C_6  and  C_11
REMARK    4  A    between atoms: CA_13  and  C_15
REMARK    5  A    between atoms: CA_13  and  CB_18
REMARK    6  A    between atoms: C_15  and  O_16
REMARK    7  A    between atoms: CG_19  and  CD_21
REMARK    8  A    between atoms: CD_21  and  OE1_22
REMARK    9  A    between atoms: C_24  and  C_32
REMARK   10  A    between atoms: N_27  and  C_37
REMARK                            x       y       z     vdW  Elec       q    Type
REMARK                         _______ _______ _______ _____ _____    ______ ____
ROOT
ATOM      1  N   UNL     1     -13.688   6.191   2.035  0.00  0.00    +0.000 N 
ATOM      2  H   UNL     1     -13.945   7.137   1.757  0.00  0.00    +0.000 HD
ENDROOT
BRANCH   1   3
ATOM      3  C   UNL     1     -13.569   5.325   0.927  0.00  0.00    +0.000 A 
ATOM      4  C   UNL     1     -14.364   5.549  -0.201  0.00  0.00    +0.000 A 
ATOM      5  C   UNL     1     -12.817   4.145   0.981  0.00  0.00    +0.000 A 
ATOM      6  C   UNL     1     -13.566   3.513  -1.227  0.00  0.00    +0.000 A 
ATOM      7  C   UNL     1     -14.352   4.661  -1.276  0.00  0.00    +0.000 A 
ATOM      8  C   UNL     1     -12.800   3.254  -0.090  0.00  0.00    +0.000 A 
BRANCH   6  11
ATOM      9  O   UNL     1     -12.588   2.609  -3.144  0.00  0.00    +0.000 OA
ATOM     10  N   UNL     1     -14.549   1.624  -2.403  0.00  0.00    +0.000 N 
ATOM     11  C   ACE A   0     -13.518   2.542  -2.348  0.00  0.00    +0.000 C 
ATOM     12  H   UNL     1     -15.281   1.651  -1.697  0.00  0.00    +0.000 HD
ATOM     13  CA  UNL     1     -14.729   0.626  -3.345  0.00  0.00    +0.000 C 
BRANCH  13  15
ATOM     14  OXT UNL     1     -16.301  -1.061  -3.975  0.00  0.00    +0.000 OA
ATOM     15  C   UNL     1     -15.933  -0.220  -3.167  0.00  0.00    +0.000 C 
BRANCH  15  16
ATOM     16  O   UNL     1     -16.603   0.008  -2.027  0.00  0.00    +0.000 OA
ATOM     17  H   UNL     1     -16.052   0.654  -1.537  0.00  0.00    +0.000 HD
ENDBRANCH  15  16
ENDBRANCH  13  15
BRANCH  13  18
ATOM     18  CB  UNL     1     -13.819   0.422  -4.416  0.00  0.00    +0.000 C 
ATOM     19  CG  UNL     1     -12.828   0.208  -5.566  0.00  0.00    +0.000 C 
BRANCH  19  21
ATOM     20  OE2 UNL     1     -10.694   0.218  -6.519  0.00  0.00    +0.000 OA
ATOM     21  CD  UNL     1     -11.891   0.020  -6.631  0.00  0.00    +0.000 C 
BRANCH  21  22
ATOM     22  OE1 UNL     1     -12.448  -0.380  -7.788  0.00  0.00    +0.000 OA
ATOM     23  HE1 UNL     1     -12.960   0.403  -8.075  0.00  0.00    +0.000 HD
ENDBRANCH  21  22
ENDBRANCH  19  21
ENDBRANCH  13  18
ENDBRANCH   6  11
ENDBRANCH   1   3
BRANCH   1  24
ATOM     24  C   UNL     1     -12.712   6.086   3.112  0.00  0.00    +0.000 C 
BRANCH  24  31
ATOM     25  O   UNL     1      -7.542   5.368   3.771  0.00  0.00    +0.000 OA
ATOM     26  N   UNL     1     -10.404   5.840   3.955  0.00  0.00    +0.000 N 
ATOM     27  N   UNL     1     -11.319   5.832   6.725  0.00  0.00    +0.000 N 
ATOM     28  N   UNL     1      -9.130   5.330   7.444  0.00  0.00    +0.000 NA
ATOM     29  N   UNL     1      -7.329   5.260   5.994  0.00  0.00    +0.000 N 
ATOM     30  N   UNL     1      -7.017   4.931   8.251  0.00  0.00    +0.000 N 
ATOM     31  C   UNL     1     -11.775   5.935   4.169  0.00  0.00    +0.000 C 
ATOM     32  C   UNL     1     -12.105   5.889   5.533  0.00  0.00    +0.000 C 
ATOM     33  C   UNL     1      -9.551   5.644   5.076  0.00  0.00    +0.000 A 
ATOM     34  C   UNL     1      -9.972   5.606   6.388  0.00  0.00    +0.000 A 
ATOM     35  C   UNL     1      -8.082   5.423   4.872  0.00  0.00    +0.000 A 
ATOM     36  C   UNL     1      -7.869   5.179   7.229  0.00  0.00    +0.000 A 
ATOM     37  H   UNL     1     -11.585   5.277   7.533  0.00  0.00    +0.000 HD
ATOM     38  H   UNL     1      -6.352   5.065   5.847  0.00  0.00    +0.000 HD
ATOM     39  H   UNL     1      -7.449   5.090   9.158  0.00  0.00    +0.000 HD
ATOM     40  H   UNL     1      -6.093   5.336   8.186  0.00  0.00    +0.000 HD
BRANCH  26  42
ATOM     41  O   UNL     1      -9.489   5.998   1.607  0.00  0.00    +0.000 OA
ATOM     42  C   UNL     1      -9.940   5.898   2.688  0.00  0.00    +0.000 C 
ENDBRANCH  26  42
ENDBRANCH  24  31
ENDBRANCH   1  24
TORSDOF 10
ENDMDL
MODEL 6
REMARK VINA RESULT:      -5.7     23.589     27.656
REMARK  Name = 135403648_CalciumFolinate.pdbqt.pdb
REMARK  10 active torsions:
REMARK  status: ('A' for Active; 'I' for Inactive)
REMARK    1  A    between atoms: N_1  and  C_3
REMARK    2  A    between atoms: N_1  and  C_24
REMARK    3  A    between atoms: C_6  and  C_11
REMARK    4  A    between atoms: CA_13  and  C_15
REMARK    5  A    between atoms: CA_13  and  CB_18
REMARK    6  A    between atoms: C_15  and  O_16
REMARK    7  A    between atoms: CG_19  and  CD_21
REMARK    8  A    between atoms: CD_21  and  OE1_22
REMARK    9  A    between atoms: C_24  and  C_32
REMARK   10  A    between atoms: N_27  and  C_37
REMARK                            x       y       z     vdW  Elec       q    Type
REMARK                         _______ _______ _______ _____ _____    ______ ____
ROOT
ATOM      1  N   UNL     1       4.827 -11.034  11.884  0.00  0.00    +0.000 N 
ATOM      2  H   UNL     1       3.901 -11.427  11.716  0.00  0.00    +0.000 HD
ENDROOT
BRANCH   1   3
ATOM      3  C   UNL     1       5.840 -12.013  11.821  0.00  0.00    +0.000 A 
ATOM      4  C   UNL     1       7.164 -11.611  11.619  0.00  0.00    +0.000 A 
ATOM      5  C   UNL     1       5.552 -13.382  11.772  0.00  0.00    +0.000 A 
ATOM      6  C   UNL     1       7.887 -13.909  11.446  0.00  0.00    +0.000 A 
ATOM      7  C   UNL     1       8.183 -12.548  11.450  0.00  0.00    +0.000 A 
ATOM      8  C   UNL     1       6.564 -14.325  11.603  0.00  0.00    +0.000 A 
BRANCH   6  11
ATOM      9  O   UNL     1      10.017 -14.783  11.830  0.00  0.00    +0.000 OA
ATOM     10  N   UNL     1       8.602 -16.025  10.480  0.00  0.00    +0.000 N 
ATOM     11  C   ACE A   0       8.937 -14.944  11.273  0.00  0.00    +0.000 C 
ATOM     12  H   UNL     1       7.679 -16.066  10.056  0.00  0.00    +0.000 HD
ATOM     13  CA  UNL     1       9.403 -17.109  10.167  0.00  0.00    +0.000 C 
BRANCH  13  15
ATOM     14  OXT UNL     1       8.371 -19.210   9.681  0.00  0.00    +0.000 OA
ATOM     15  C   UNL     1       8.788 -18.131   9.285  0.00  0.00    +0.000 C 
BRANCH  15  16
ATOM     16  O   UNL     1       8.722 -17.775   7.993  0.00  0.00    +0.000 OA
ATOM     17  H   UNL     1       8.168 -18.464   7.571  0.00  0.00    +0.000 HD
ENDBRANCH  15  16
ENDBRANCH  13  15
BRANCH  13  18
ATOM     18  CB  UNL     1      10.728 -17.240  10.659  0.00  0.00    +0.000 C 
ATOM     19  CG  UNL     1      12.155 -17.387  11.199  0.00  0.00    +0.000 C 
BRANCH  19  21
ATOM     20  OE2 UNL     1      14.391 -18.061  11.102  0.00  0.00    +0.000 OA
ATOM     21  CD  UNL     1      13.481 -17.535  11.718  0.00  0.00    +0.000 C 
BRANCH  21  22
ATOM     22  OE1 UNL     1      13.638 -17.059  12.966  0.00  0.00    +0.000 OA
ATOM     23  HE1 UNL     1      14.598 -16.881  13.021  0.00  0.00    +0.000 HD
ENDBRANCH  21  22
ENDBRANCH  19  21
ENDBRANCH  13  18
ENDBRANCH   6  11
ENDBRANCH   1   3
BRANCH   1  24
ATOM     24  C   UNL     1       5.081  -9.726  11.293  0.00  0.00    +0.000 C 
BRANCH  24  31
ATOM     25  O   UNL     1       6.252  -4.819  12.785  0.00  0.00    +0.000 OA
ATOM     26  N   UNL     1       5.733  -7.350  11.453  0.00  0.00    +0.000 N 
ATOM     27  N   UNL     1       5.715  -7.054   8.551  0.00  0.00    +0.000 N 
ATOM     28  N   UNL     1       6.075  -4.735   8.787  0.00  0.00    +0.000 NA
ATOM     29  N   UNL     1       6.468  -3.740  10.838  0.00  0.00    +0.000 N 
ATOM     30  N   UNL     1       6.514  -2.484   8.909  0.00  0.00    +0.000 N 
ATOM     31  C   UNL     1       5.376  -8.467  10.705  0.00  0.00    +0.000 C 
ATOM     32  C   UNL     1       5.369  -8.204   9.326  0.00  0.00    +0.000 C 
ATOM     33  C   UNL     1       5.965  -6.121  10.775  0.00  0.00    +0.000 A 
ATOM     34  C   UNL     1       5.928  -5.958   9.408  0.00  0.00    +0.000 A 
ATOM     35  C   UNL     1       6.240  -4.872  11.559  0.00  0.00    +0.000 A 
ATOM     36  C   UNL     1       6.342  -3.692   9.495  0.00  0.00    +0.000 A 
ATOM     37  H   UNL     1       5.194  -6.769   7.727  0.00  0.00    +0.000 HD
ATOM     38  H   UNL     1       6.604  -2.896  11.371  0.00  0.00    +0.000 HD
ATOM     39  H   UNL     1       6.613  -2.558   7.900  0.00  0.00    +0.000 HD
ATOM     40  H   UNL     1       7.201  -1.869   9.323  0.00  0.00    +0.000 HD
BRANCH  26  42
ATOM     41  O   UNL     1       5.880  -7.639  13.957  0.00  0.00    +0.000 OA
ATOM     42  C   UNL     1       5.808  -7.467  12.797  0.00  0.00    +0.000 C 
ENDBRANCH  26  42
ENDBRANCH  24  31
ENDBRANCH   1  24
TORSDOF 10
ENDMDL
MODEL 7
REMARK VINA RESULT:      -5.6     23.505     27.560
REMARK  Name = 135403648_CalciumFolinate.pdbqt.pdb
REMARK  10 active torsions:
REMARK  status: ('A' for Active; 'I' for Inactive)
REMARK    1  A    between atoms: N_1  and  C_3
REMARK    2  A    between atoms: N_1  and  C_24
REMARK    3  A    between atoms: C_6  and  C_11
REMARK    4  A    between atoms: CA_13  and  C_15
REMARK    5  A    between atoms: CA_13  and  CB_18
REMARK    6  A    between atoms: C_15  and  O_16
REMARK    7  A    between atoms: CG_19  and  CD_21
REMARK    8  A    between atoms: CD_21  and  OE1_22
REMARK    9  A    between atoms: C_24  and  C_32
REMARK   10  A    between atoms: N_27  and  C_37
REMARK                            x       y       z     vdW  Elec       q    Type
REMARK                         _______ _______ _______ _____ _____    ______ ____
ROOT
ATOM      1  N   UNL     1       4.739 -10.912  11.939  0.00  0.00    +0.000 N 
ATOM      2  H   UNL     1       3.783 -11.245  11.820  0.00  0.00    +0.000 HD
ENDROOT
BRANCH   1   3
ATOM      3  C   UNL     1       5.684 -11.952  11.813  0.00  0.00    +0.000 A 
ATOM      4  C   UNL     1       7.022 -11.630  11.567  0.00  0.00    +0.000 A 
ATOM      5  C   UNL     1       5.306 -13.298  11.747  0.00  0.00    +0.000 A 
ATOM      6  C   UNL     1       7.588 -13.964  11.316  0.00  0.00    +0.000 A 
ATOM      7  C   UNL     1       7.971 -12.626  11.336  0.00  0.00    +0.000 A 
ATOM      8  C   UNL     1       6.248 -14.299  11.518  0.00  0.00    +0.000 A 
BRANCH   6  11
ATOM      9  O   UNL     1       8.272 -15.940  10.276  0.00  0.00    +0.000 OA
ATOM     10  N   UNL     1       9.739 -14.994  11.799  0.00  0.00    +0.000 N 
ATOM     11  C   ACE A   0       8.562 -15.059  11.078  0.00  0.00    +0.000 C 
ATOM     12  H   UNL     1       9.886 -14.224  12.447  0.00  0.00    +0.000 HD
ATOM     13  CA  UNL     1      10.794 -15.888  11.756  0.00  0.00    +0.000 C 
BRANCH  13  15
ATOM     14  OXT UNL     1      11.908 -15.686  13.861  0.00  0.00    +0.000 OA
ATOM     15  C   UNL     1      11.940 -15.576  12.644  0.00  0.00    +0.000 C 
BRANCH  15  16
ATOM     16  O   UNL     1      13.039 -15.157  11.998  0.00  0.00    +0.000 OA
ATOM     17  H   UNL     1      13.741 -15.140  12.681  0.00  0.00    +0.000 HD
ENDBRANCH  15  16
ENDBRANCH  13  15
BRANCH  13  18
ATOM     18  CB  UNL     1      10.784 -17.033  10.916  0.00  0.00    +0.000 C 
ATOM     19  CG  UNL     1      10.778 -18.262  10.001  0.00  0.00    +0.000 C 
BRANCH  19  21
ATOM     20  OE2 UNL     1      11.299 -20.465   9.420  0.00  0.00    +0.000 OA
ATOM     21  CD  UNL     1      10.782 -19.400   9.132  0.00  0.00    +0.000 C 
BRANCH  21  22
ATOM     22  OE1 UNL     1      10.179 -19.189   7.949  0.00  0.00    +0.000 OA
ATOM     23  HE1 UNL     1      10.704 -18.463   7.554  0.00  0.00    +0.000 HD
ENDBRANCH  21  22
ENDBRANCH  19  21
ENDBRANCH  13  18
ENDBRANCH   6  11
ENDBRANCH   1   3
BRANCH   1  24
ATOM     24  C   UNL     1       5.041  -9.616  11.343  0.00  0.00    +0.000 C 
BRANCH  24  31
ATOM     25  O   UNL     1       6.271  -4.711  12.793  0.00  0.00    +0.000 OA
ATOM     26  N   UNL     1       5.739  -7.252  11.485  0.00  0.00    +0.000 N 
ATOM     27  N   UNL     1       5.816  -7.003   8.580  0.00  0.00    +0.000 N 
ATOM     28  N   UNL     1       6.217  -4.690   8.791  0.00  0.00    +0.000 NA
ATOM     29  N   UNL     1       6.569  -3.669  10.837  0.00  0.00    +0.000 N 
ATOM     30  N   UNL     1       6.700  -2.446   8.891  0.00  0.00    +0.000 N 
ATOM     31  C   UNL     1       5.381  -8.374  10.745  0.00  0.00    +0.000 C 
ATOM     32  C   UNL     1       5.422  -8.133   9.362  0.00  0.00    +0.000 C 
ATOM     33  C   UNL     1       6.018  -6.040  10.796  0.00  0.00    +0.000 A 
ATOM     34  C   UNL     1       6.026  -5.898   9.425  0.00  0.00    +0.000 A 
ATOM     35  C   UNL     1       6.295  -4.784  11.568  0.00  0.00    +0.000 A 
ATOM     36  C   UNL     1       6.485  -3.640   9.490  0.00  0.00    +0.000 A 
ATOM     37  H   UNL     1       5.326  -6.722   7.736  0.00  0.00    +0.000 HD
ATOM     38  H   UNL     1       6.707  -2.820  11.361  0.00  0.00    +0.000 HD
ATOM     39  H   UNL     1       6.829  -2.538   7.887  0.00  0.00    +0.000 HD
ATOM     40  H   UNL     1       7.388  -1.838   9.316  0.00  0.00    +0.000 HD
BRANCH  26  42
ATOM     41  O   UNL     1       5.805  -7.503  13.997  0.00  0.00    +0.000 OA
ATOM     42  C   UNL     1       5.771  -7.348  12.833  0.00  0.00    +0.000 C 
ENDBRANCH  26  42
ENDBRANCH  24  31
ENDBRANCH   1  24
TORSDOF 10
ENDMDL
MODEL 8
REMARK VINA RESULT:      -5.5     26.475     30.175
REMARK  Name = 135403648_CalciumFolinate.pdbqt.pdb
REMARK  10 active torsions:
REMARK  status: ('A' for Active; 'I' for Inactive)
REMARK    1  A    between atoms: N_1  and  C_3
REMARK    2  A    between atoms: N_1  and  C_24
REMARK    3  A    between atoms: C_6  and  C_11
REMARK    4  A    between atoms: CA_13  and  C_15
REMARK    5  A    between atoms: CA_13  and  CB_18
REMARK    6  A    between atoms: C_15  and  O_16
REMARK    7  A    between atoms: CG_19  and  CD_21
REMARK    8  A    between atoms: CD_21  and  OE1_22
REMARK    9  A    between atoms: C_24  and  C_32
REMARK   10  A    between atoms: N_27  and  C_37
REMARK                            x       y       z     vdW  Elec       q    Type
REMARK                         _______ _______ _______ _____ _____    ______ ____
ROOT
ATOM      1  N   UNL     1      10.043 -16.599  11.883  0.00  0.00    +0.000 N 
ATOM      2  H   UNL     1      10.468 -16.696  12.805  0.00  0.00    +0.000 HD
ENDROOT
BRANCH   1   3
ATOM      3  C   UNL     1       9.300 -15.406  11.763  0.00  0.00    +0.000 A 
ATOM      4  C   UNL     1       7.978 -15.469  11.312  0.00  0.00    +0.000 A 
ATOM      5  C   UNL     1       9.888 -14.144  11.905  0.00  0.00    +0.000 A 
ATOM      6  C   UNL     1       7.826 -13.060  11.269  0.00  0.00    +0.000 A 
ATOM      7  C   UNL     1       7.240 -14.309  11.081  0.00  0.00    +0.000 A 
ATOM      8  C   UNL     1       9.157 -12.980  11.678  0.00  0.00    +0.000 A 
BRANCH   6  11
ATOM      9  O   UNL     1       7.463 -11.038  10.158  0.00  0.00    +0.000 OA
ATOM     10  N   UNL     1       5.990 -11.577  11.862  0.00  0.00    +0.000 N 
ATOM     11  C   ACE A   0       7.079 -11.797  11.041  0.00  0.00    +0.000 C 
ATOM     12  H   UNL     1       5.752 -12.266  12.572  0.00  0.00    +0.000 HD
ATOM     13  CA  UNL     1       5.142 -10.483  11.849  0.00  0.00    +0.000 C 
BRANCH  13  15
ATOM     14  OXT UNL     1       3.700 -11.504  13.458  0.00  0.00    +0.000 OA
ATOM     15  C   UNL     1       4.048 -10.502  12.850  0.00  0.00    +0.000 C 
BRANCH  15  16
ATOM     16  O   UNL     1       3.459  -9.313  13.044  0.00  0.00    +0.000 OA
ATOM     17  H   UNL     1       3.789  -8.747  12.316  0.00  0.00    +0.000 HD
ENDBRANCH  15  16
ENDBRANCH  13  15
BRANCH  13  18
ATOM     18  CB  UNL     1       5.305  -9.409  10.934  0.00  0.00    +0.000 C 
ATOM     19  CG  UNL     1       5.470  -8.252   9.942  0.00  0.00    +0.000 C 
BRANCH  19  21
ATOM     20  OE2 UNL     1       5.765  -6.013   9.341  0.00  0.00    +0.000 OA
ATOM     21  CD  UNL     1       5.606  -7.175   9.010  0.00  0.00    +0.000 C 
BRANCH  21  22
ATOM     22  OE1 UNL     1       5.523  -7.551   7.721  0.00  0.00    +0.000 OA
ATOM     23  HE1 UNL     1       6.374  -7.252   7.343  0.00  0.00    +0.000 HD
ENDBRANCH  21  22
ENDBRANCH  19  21
ENDBRANCH  13  18
ENDBRANCH   6  11
ENDBRANCH   1   3
BRANCH   1  24
ATOM     24  C   UNL     1      10.862 -17.029  10.757  0.00  0.00    +0.000 C 
BRANCH  24  31
ATOM     25  O   UNL     1      10.433 -18.778   5.813  0.00  0.00    +0.000 OA
ATOM     26  N   UNL     1      11.210 -17.775   8.429  0.00  0.00    +0.000 N 
ATOM     27  N   UNL     1      14.107 -17.798   8.772  0.00  0.00    +0.000 N 
ATOM     28  N   UNL     1      14.350 -18.762   6.634  0.00  0.00    +0.000 NA
ATOM     29  N   UNL     1      12.562 -19.078   5.200  0.00  0.00    +0.000 N 
ATOM     30  N   UNL     1      14.698 -19.618   4.531  0.00  0.00    +0.000 N 
ATOM     31  C   UNL     1      11.701 -17.432   9.684  0.00  0.00    +0.000 C 
ATOM     32  C   UNL     1      13.102 -17.508   9.746  0.00  0.00    +0.000 C 
ATOM     33  C   UNL     1      12.127 -18.210   7.432  0.00  0.00    +0.000 A 
ATOM     34  C   UNL     1      13.496 -18.257   7.590  0.00  0.00    +0.000 A 
ATOM     35  C   UNL     1      11.622 -18.696   6.107  0.00  0.00    +0.000 A 
ATOM     36  C   UNL     1      13.878 -19.140   5.496  0.00  0.00    +0.000 A 
ATOM     37  H   UNL     1      14.935 -18.346   8.984  0.00  0.00    +0.000 HD
ATOM     38  H   UNL     1      12.214 -19.448   4.331  0.00  0.00    +0.000 HD
ATOM     39  H   UNL     1      15.677 -19.441   4.737  0.00  0.00    +0.000 HD
ATOM     40  H   UNL     1      14.457 -19.395   3.574  0.00  0.00    +0.000 HD
BRANCH  26  42
ATOM     41  O   UNL     1       8.709 -17.724   8.081  0.00  0.00    +0.000 OA
ATOM     42  C   UNL     1       9.877 -17.719   8.217  0.00  0.00    +0.000 C 
ENDBRANCH  26  42
ENDBRANCH  24  31
ENDBRANCH   1  24
TORSDOF 10
ENDMDL
MODEL 9
REMARK VINA RESULT:      -5.5     20.394     22.215
REMARK  Name = 135403648_CalciumFolinate.pdbqt.pdb
REMARK  10 active torsions:
REMARK  status: ('A' for Active; 'I' for Inactive)
REMARK    1  A    between atoms: N_1  and  C_3
REMARK    2  A    between atoms: N_1  and  C_24
REMARK    3  A    between atoms: C_6  and  C_11
REMARK    4  A    between atoms: CA_13  and  C_15
REMARK    5  A    between atoms: CA_13  and  CB_18
REMARK    6  A    between atoms: C_15  and  O_16
REMARK    7  A    between atoms: CG_19  and  CD_21
REMARK    8  A    between atoms: CD_21  and  OE1_22
REMARK    9  A    between atoms: C_24  and  C_32
REMARK   10  A    between atoms: N_27  and  C_37
REMARK                            x       y       z     vdW  Elec       q    Type
REMARK                         _______ _______ _______ _____ _____    ______ ____
ROOT
ATOM      1  N   UNL     1      -8.639 -18.411   5.110  0.00  0.00    +0.000 N 
ATOM      2  H   UNL     1      -8.064 -19.251   5.165  0.00  0.00    +0.000 HD
ENDROOT
BRANCH   1   3
ATOM      3  C   UNL     1      -9.335 -18.163   6.313  0.00  0.00    +0.000 A 
ATOM      4  C   UNL     1      -8.676 -18.351   7.532  0.00  0.00    +0.000 A 
ATOM      5  C   UNL     1     -10.711 -17.909   6.339  0.00  0.00    +0.000 A 
ATOM      6  C   UNL     1     -10.714 -17.920   8.754  0.00  0.00    +0.000 A 
ATOM      7  C   UNL     1      -9.353 -18.216   8.743  0.00  0.00    +0.000 A 
ATOM      8  C   UNL     1     -11.394 -17.772   7.545  0.00  0.00    +0.000 A 
BRANCH   6  11
ATOM      9  O   UNL     1     -11.888 -16.648  10.321  0.00  0.00    +0.000 OA
ATOM     10  N   UNL     1     -11.659 -18.910  10.766  0.00  0.00    +0.000 N 
ATOM     11  C   ACE A   0     -11.476 -17.762  10.018  0.00  0.00    +0.000 C 
ATOM     12  H   UNL     1     -11.273 -19.790  10.433  0.00  0.00    +0.000 HD
ATOM     13  CA  UNL     1     -12.327 -19.021  11.973  0.00  0.00    +0.000 C 
BRANCH  13  15
ATOM     14  OXT UNL     1     -11.965 -21.384  11.993  0.00  0.00    +0.000 OA
ATOM     15  C   UNL     1     -12.369 -20.381  12.564  0.00  0.00    +0.000 C 
BRANCH  15  16
ATOM     16  O   UNL     1     -12.893 -20.429  13.798  0.00  0.00    +0.000 OA
ATOM     17  H   UNL     1     -12.991 -21.385  13.992  0.00  0.00    +0.000 HD
ENDBRANCH  15  16
ENDBRANCH  13  15
BRANCH  13  18
ATOM     18  CB  UNL     1     -12.936 -17.907  12.608  0.00  0.00    +0.000 C 
ATOM     19  CG  UNL     1     -13.592 -16.698  13.284  0.00  0.00    +0.000 C 
BRANCH  19  21
ATOM     20  OE2 UNL     1     -14.897 -15.623  14.898  0.00  0.00    +0.000 OA
ATOM     21  CD  UNL     1     -14.203 -15.558  13.899  0.00  0.00    +0.000 C 
BRANCH  21  22
ATOM     22  OE1 UNL     1     -13.963 -14.398  13.263  0.00  0.00    +0.000 OA
ATOM     23  HE1 UNL     1     -14.837 -14.157  12.894  0.00  0.00    +0.000 HD
ENDBRANCH  21  22
ENDBRANCH  19  21
ENDBRANCH  13  18
ENDBRANCH   6  11
ENDBRANCH   1   3
BRANCH   1  24
ATOM     24  C   UNL     1      -8.054 -17.283   4.396  0.00  0.00    +0.000 C 
BRANCH  24  31
ATOM     25  O   UNL     1      -8.815 -12.110   3.814  0.00  0.00    +0.000 OA
ATOM     26  N   UNL     1      -7.940 -14.882   3.832  0.00  0.00    +0.000 N 
ATOM     27  N   UNL     1      -5.767 -15.335   1.940  0.00  0.00    +0.000 N 
ATOM     28  N   UNL     1      -5.895 -13.082   1.256  0.00  0.00    +0.000 NA
ATOM     29  N   UNL     1      -7.279 -11.545   2.291  0.00  0.00    +0.000 N 
ATOM     30  N   UNL     1      -5.879 -10.885   0.586  0.00  0.00    +0.000 N 
ATOM     31  C   UNL     1      -7.515 -16.195   3.660  0.00  0.00    +0.000 C 
ATOM     32  C   UNL     1      -6.490 -16.301   2.705  0.00  0.00    +0.000 C 
ATOM     33  C   UNL     1      -7.370 -13.867   3.014  0.00  0.00    +0.000 A 
ATOM     34  C   UNL     1      -6.366 -14.071   2.093  0.00  0.00    +0.000 A 
ATOM     35  C   UNL     1      -7.886 -12.461   3.093  0.00  0.00    +0.000 A 
ATOM     36  C   UNL     1      -6.342 -11.880   1.379  0.00  0.00    +0.000 A 
ATOM     37  H   UNL     1      -5.498 -15.490   0.973  0.00  0.00    +0.000 HD
ATOM     38  H   UNL     1      -7.662 -10.613   2.315  0.00  0.00    +0.000 HD
ATOM     39  H   UNL     1      -5.042 -11.157   0.079  0.00  0.00    +0.000 HD
ATOM     40  H   UNL     1      -5.798  -9.967   1.004  0.00  0.00    +0.000 HD
BRANCH  26  42
ATOM     41  O   UNL     1      -9.793 -14.417   5.483  0.00  0.00    +0.000 OA
ATOM     42  C   UNL     1      -8.905 -14.628   4.743  0.00  0.00    +0.000 C 
ENDBRANCH  26  42
ENDBRANCH  24  31
ENDBRANCH   1  24
TORSDOF 10
ENDMDL
