MODEL 1
REMARK VINA RESULT:      -5.9      0.000      0.000
REMARK  Name = 135423438_Nintedanib.pdbqt.pdb
REMARK  9 active torsions:
REMARK  status: ('A' for Active; 'I' for Inactive)
REMARK    1  A    between atoms: N_1  and  C_22
REMARK    2  A    between atoms: C_2  and  C_4
REMARK    3  A    between atoms: C_2  and  C_37
REMARK    4  A    between atoms: C_7  and  O_13
REMARK    5  A    between atoms: C_10  and  C_16
REMARK    6  A    between atoms: C_16  and  O_17
REMARK    7  A    between atoms: C_19  and  N_26
REMARK    8  A    between atoms: C_27  and  C_29
REMARK    9  A    between atoms: C_29  and  N_30
REMARK                            x       y       z     vdW  Elec       q    Type
REMARK                         _______ _______ _______ _____ _____    ______ ____
ROOT
ATOM      1  N   UNL     1     -14.594   4.321  16.114  0.00  0.00    +0.000 NA
ATOM      2  C   UNL     1     -14.474   4.398  17.409  0.00  0.00    +0.000 C 
ENDROOT
BRANCH   2   4
ATOM      3  N   UNL     1     -10.980   3.590  18.158  0.00  0.00    +0.000 N 
ATOM      4  C   UNL     1     -13.133   4.162  17.960  0.00  0.00    +0.000 A 
ATOM      5  C   UNL     1     -12.705   4.385  19.316  0.00  0.00    +0.000 A 
ATOM      6  C   UNL     1     -11.362   4.022  19.403  0.00  0.00    +0.000 A 
ATOM      7  C   UNL     1     -12.031   3.663  17.279  0.00  0.00    +0.000 A 
ATOM      8  C   UNL     1     -13.339   4.871  20.478  0.00  0.00    +0.000 A 
ATOM      9  C   UNL     1     -10.622   4.114  20.587  0.00  0.00    +0.000 A 
ATOM     10  C   UNL     1     -11.282   4.597  21.724  0.00  0.00    +0.000 A 
ATOM     11  C   UNL     1     -12.620   4.971  21.670  0.00  0.00    +0.000 A 
ATOM     12  H   UNL     1     -10.052   3.262  17.934  0.00  0.00    +0.000 HD
BRANCH   7  13
ATOM     13  O   UNL     1     -11.900   3.280  16.013  0.00  0.00    +0.000 OA
ATOM     14  H   UNL     1     -10.963   3.271  15.750  0.00  0.00    +0.000 HD
ENDBRANCH   7  13
BRANCH  10  16
ATOM     15  O   UNL     1     -10.860   4.044  23.993  0.00  0.00    +0.000 OA
ATOM     16  C   UNL     1     -10.580   4.729  23.020  0.00  0.00    +0.000 C 
BRANCH  16  17
ATOM     17  O   UNL     1      -9.630   5.699  22.904  0.00  0.00    +0.000 OA
ATOM     18  C   UNL     1      -9.379   6.517  24.018  0.00  0.00    +0.000 C 
ENDBRANCH  16  17
ENDBRANCH  10  16
ENDBRANCH   2   4
BRANCH   1  22
ATOM     19  C   UNL     1     -18.306   4.825  14.147  0.00  0.00    +0.000 A 
ATOM     20  C   UNL     1     -17.321   5.816  14.116  0.00  0.00    +0.000 A 
ATOM     21  C   UNL     1     -18.013   3.655  14.860  0.00  0.00    +0.000 A 
ATOM     22  C   UNL     1     -15.839   4.497  15.499  0.00  0.00    +0.000 A 
ATOM     23  C   UNL     1     -16.101   5.657  14.771  0.00  0.00    +0.000 A 
ATOM     24  C   UNL     1     -16.796   3.484  15.518  0.00  0.00    +0.000 A 
BRANCH  19  26
ATOM     25  O   UNL     1     -19.203   3.286  11.866  0.00  0.00    +0.000 OA
ATOM     26  N   UNL     1     -19.576   4.989  13.476  0.00  0.00    +0.000 N 
ATOM     27  C   UNL     1     -19.894   4.168  12.365  0.00  0.00    +0.000 C 
ATOM     28  C   UNL     1     -20.443   6.035  14.026  0.00  0.00    +0.000 C 
BRANCH  27  29
ATOM     29  C   UNL     1     -21.188   4.397  11.737  0.00  0.00    +0.000 C 
BRANCH  29  30
ATOM     30  N   UNL     1     -22.481   4.603  11.088  0.00  0.00    +0.000 N 
ATOM     31  N   UNL     1     -23.244   2.346   8.456  0.00  0.00    +0.000 N 
ATOM     32  C   UNL     1     -22.224   4.656   9.622  0.00  0.00    +0.000 C 
ATOM     33  C   UNL     1     -23.164   3.279  11.076  0.00  0.00    +0.000 C 
ATOM     34  C   UNL     1     -22.555   3.665   8.469  0.00  0.00    +0.000 C 
ATOM     35  C   UNL     1     -23.495   2.289   9.922  0.00  0.00    +0.000 C 
ATOM     36  C   UNL     1     -22.230   1.343   8.161  0.00  0.00    +0.000 C 
ENDBRANCH  29  30
ENDBRANCH  27  29
ENDBRANCH  19  26
ENDBRANCH   1  22
BRANCH   2  37
ATOM     37  C   UNL     1     -15.575   4.695  18.342  0.00  0.00    +0.000 A 
ATOM     38  C   UNL     1     -15.979   6.015  18.528  0.00  0.00    +0.000 A 
ATOM     39  C   UNL     1     -16.213   3.642  18.997  0.00  0.00    +0.000 A 
ATOM     40  C   UNL     1     -17.037   6.284  19.392  0.00  0.00    +0.000 A 
ATOM     41  C   UNL     1     -17.269   3.922  19.858  0.00  0.00    +0.000 A 
ATOM     42  C   UNL     1     -17.680   5.241  20.055  0.00  0.00    +0.000 A 
ENDBRANCH   2  37
TORSDOF 9
ENDMDL
MODEL 2
REMARK VINA RESULT:      -5.9     27.820     30.210
REMARK  Name = 135423438_Nintedanib.pdbqt.pdb
REMARK  9 active torsions:
REMARK  status: ('A' for Active; 'I' for Inactive)
REMARK    1  A    between atoms: N_1  and  C_22
REMARK    2  A    between atoms: C_2  and  C_4
REMARK    3  A    between atoms: C_2  and  C_37
REMARK    4  A    between atoms: C_7  and  O_13
REMARK    5  A    between atoms: C_10  and  C_16
REMARK    6  A    between atoms: C_16  and  O_17
REMARK    7  A    between atoms: C_19  and  N_26
REMARK    8  A    between atoms: C_27  and  C_29
REMARK    9  A    between atoms: C_29  and  N_30
REMARK                            x       y       z     vdW  Elec       q    Type
REMARK                         _______ _______ _______ _____ _____    ______ ____
ROOT
ATOM      1  N   UNL     1       2.002 -10.362  -3.112  0.00  0.00    +0.000 NA
ATOM      2  C   UNL     1       2.887 -10.005  -3.997  0.00  0.00    +0.000 C 
ENDROOT
BRANCH   2   4
ATOM      3  N   UNL     1       5.208 -12.761  -4.659  0.00  0.00    +0.000 N 
ATOM      4  C   UNL     1       4.012 -10.925  -4.211  0.00  0.00    +0.000 A 
ATOM      5  C   UNL     1       5.413 -10.624  -4.073  0.00  0.00    +0.000 A 
ATOM      6  C   UNL     1       6.127 -11.786  -4.361  0.00  0.00    +0.000 A 
ATOM      7  C   UNL     1       3.933 -12.264  -4.570  0.00  0.00    +0.000 A 
ATOM      8  C   UNL     1       6.139  -9.464  -3.735  0.00  0.00    +0.000 A 
ATOM      9  C   UNL     1       7.524 -11.851  -4.325  0.00  0.00    +0.000 A 
ATOM     10  C   UNL     1       8.216 -10.682  -3.982  0.00  0.00    +0.000 A 
ATOM     11  C   UNL     1       7.533  -9.505  -3.693  0.00  0.00    +0.000 A 
ATOM     12  H   UNL     1       5.451 -13.710  -4.903  0.00  0.00    +0.000 HD
BRANCH   7  13
ATOM     13  O   UNL     1       2.874 -13.034  -4.800  0.00  0.00    +0.000 OA
ATOM     14  H   UNL     1       2.949 -13.475  -5.664  0.00  0.00    +0.000 HD
ENDBRANCH   7  13
BRANCH  10  16
ATOM     15  O   UNL     1      10.399 -10.994  -4.858  0.00  0.00    +0.000 OA
ATOM     16  C   UNL     1       9.694 -10.656  -3.919  0.00  0.00    +0.000 C 
BRANCH  16  17
ATOM     17  O   UNL     1      10.070 -10.209  -2.687  0.00  0.00    +0.000 OA
ATOM     18  C   UNL     1      11.073 -10.915  -2.004  0.00  0.00    +0.000 C 
ENDBRANCH  16  17
ENDBRANCH  10  16
ENDBRANCH   2   4
BRANCH   1  22
ATOM     19  C   UNL     1      -1.229  -7.769  -2.250  0.00  0.00    +0.000 A 
ATOM     20  C   UNL     1      -0.120  -7.862  -1.405  0.00  0.00    +0.000 A 
ATOM     21  C   UNL     1      -1.227  -8.573  -3.397  0.00  0.00    +0.000 A 
ATOM     22  C   UNL     1       0.912  -9.535  -2.814  0.00  0.00    +0.000 A 
ATOM     23  C   UNL     1       0.942  -8.722  -1.682  0.00  0.00    +0.000 A 
ATOM     24  C   UNL     1      -0.171  -9.437  -3.685  0.00  0.00    +0.000 A 
BRANCH  19  26
ATOM     25  O   UNL     1      -3.728  -8.560  -1.022  0.00  0.00    +0.000 OA
ATOM     26  N   UNL     1      -2.335  -6.884  -1.963  0.00  0.00    +0.000 N 
ATOM     27  C   UNL     1      -3.508  -7.400  -1.357  0.00  0.00    +0.000 C 
ATOM     28  C   UNL     1      -2.132  -5.485  -2.349  0.00  0.00    +0.000 C 
BRANCH  27  29
ATOM     29  C   UNL     1      -4.583  -6.450  -1.107  0.00  0.00    +0.000 C 
BRANCH  29  30
ATOM     30  N   UNL     1      -5.678  -5.509  -0.878  0.00  0.00    +0.000 N 
ATOM     31  N   UNL     1      -4.893  -2.092  -1.431  0.00  0.00    +0.000 N 
ATOM     32  C   UNL     1      -5.150  -4.447   0.024  0.00  0.00    +0.000 C 
ATOM     33  C   UNL     1      -5.759  -4.651  -2.093  0.00  0.00    +0.000 C 
ATOM     34  C   UNL     1      -4.804  -2.950  -0.219  0.00  0.00    +0.000 C 
ATOM     35  C   UNL     1      -5.412  -3.153  -2.335  0.00  0.00    +0.000 C 
ATOM     36  C   UNL     1      -3.527  -1.809  -1.850  0.00  0.00    +0.000 C 
ENDBRANCH  29  30
ENDBRANCH  27  29
ENDBRANCH  19  26
ENDBRANCH   1  22
BRANCH   2  37
ATOM     37  C   UNL     1       2.841  -8.758  -4.782  0.00  0.00    +0.000 A 
ATOM     38  C   UNL     1       3.201  -7.554  -4.179  0.00  0.00    +0.000 A 
ATOM     39  C   UNL     1       2.469  -8.815  -6.124  0.00  0.00    +0.000 A 
ATOM     40  C   UNL     1       3.180  -6.386  -4.935  0.00  0.00    +0.000 A 
ATOM     41  C   UNL     1       2.450  -7.641  -6.870  0.00  0.00    +0.000 A 
ATOM     42  C   UNL     1       2.805  -6.429  -6.277  0.00  0.00    +0.000 A 
ENDBRANCH   2  37
TORSDOF 9
ENDMDL
MODEL 3
REMARK VINA RESULT:      -5.7     23.169     26.233
REMARK  Name = 135423438_Nintedanib.pdbqt.pdb
REMARK  9 active torsions:
REMARK  status: ('A' for Active; 'I' for Inactive)
REMARK    1  A    between atoms: N_1  and  C_22
REMARK    2  A    between atoms: C_2  and  C_4
REMARK    3  A    between atoms: C_2  and  C_37
REMARK    4  A    between atoms: C_7  and  O_13
REMARK    5  A    between atoms: C_10  and  C_16
REMARK    6  A    between atoms: C_16  and  O_17
REMARK    7  A    between atoms: C_19  and  N_26
REMARK    8  A    between atoms: C_27  and  C_29
REMARK    9  A    between atoms: C_29  and  N_30
REMARK                            x       y       z     vdW  Elec       q    Type
REMARK                         _______ _______ _______ _____ _____    ______ ____
ROOT
ATOM      1  N   UNL     1      -6.036  -4.185  -3.528  0.00  0.00    +0.000 NA
ATOM      2  C   UNL     1      -4.970  -3.892  -2.840  0.00  0.00    +0.000 C 
ENDROOT
BRANCH   2   4
ATOM      3  N   UNL     1      -5.211  -3.470   0.791  0.00  0.00    +0.000 N 
ATOM      4  C   UNL     1      -5.081  -3.995  -1.379  0.00  0.00    +0.000 A 
ATOM      5  C   UNL     1      -5.167  -5.203  -0.603  0.00  0.00    +0.000 A 
ATOM      6  C   UNL     1      -5.249  -4.841   0.740  0.00  0.00    +0.000 A 
ATOM      7  C   UNL     1      -5.106  -2.944  -0.472  0.00  0.00    +0.000 A 
ATOM      8  C   UNL     1      -5.190  -6.576  -0.923  0.00  0.00    +0.000 A 
ATOM      9  C   UNL     1      -5.348  -5.774   1.778  0.00  0.00    +0.000 A 
ATOM     10  C   UNL     1      -5.364  -7.130   1.427  0.00  0.00    +0.000 A 
ATOM     11  C   UNL     1      -5.288  -7.525   0.096  0.00  0.00    +0.000 A 
ATOM     12  H   UNL     1      -5.251  -2.935   1.646  0.00  0.00    +0.000 HD
BRANCH   7  13
ATOM     13  O   UNL     1      -5.035  -1.632  -0.670  0.00  0.00    +0.000 OA
ATOM     14  H   UNL     1      -5.541  -1.375  -1.461  0.00  0.00    +0.000 HD
ENDBRANCH   7  13
BRANCH  10  16
ATOM     15  O   UNL     1      -4.709  -8.249   3.415  0.00  0.00    +0.000 OA
ATOM     16  C   UNL     1      -5.466  -8.187   2.456  0.00  0.00    +0.000 C 
BRANCH  16  17
ATOM     17  O   UNL     1      -6.502  -9.012   2.133  0.00  0.00    +0.000 OA
ATOM     18  C   UNL     1      -6.210 -10.348   1.811  0.00  0.00    +0.000 C 
ENDBRANCH  16  17
ENDBRANCH  10  16
ENDBRANCH   2   4
BRANCH   1  22
ATOM     19  C   UNL     1      -6.145  -3.941  -7.751  0.00  0.00    +0.000 A 
ATOM     20  C   UNL     1      -5.733  -5.104  -7.096  0.00  0.00    +0.000 A 
ATOM     21  C   UNL     1      -6.520  -2.855  -6.949  0.00  0.00    +0.000 A 
ATOM     22  C   UNL     1      -6.038  -4.084  -4.925  0.00  0.00    +0.000 A 
ATOM     23  C   UNL     1      -5.688  -5.185  -5.705  0.00  0.00    +0.000 A 
ATOM     24  C   UNL     1      -6.479  -2.924  -5.558  0.00  0.00    +0.000 A 
BRANCH  19  26
ATOM     25  O   UNL     1      -8.425  -4.610  -9.404  0.00  0.00    +0.000 OA
ATOM     26  N   UNL     1      -6.187  -3.850  -9.193  0.00  0.00    +0.000 N 
ATOM     27  C   UNL     1      -7.370  -4.210  -9.886  0.00  0.00    +0.000 C 
ATOM     28  C   UNL     1      -4.950  -3.383  -9.826  0.00  0.00    +0.000 C 
BRANCH  27  29
ATOM     29  C   UNL     1      -7.333  -4.100 -11.337  0.00  0.00    +0.000 C 
BRANCH  29  30
ATOM     30  N   UNL     1      -7.268  -4.000 -12.794  0.00  0.00    +0.000 N 
ATOM     31  N   UNL     1      -4.156  -2.907 -14.108  0.00  0.00    +0.000 N 
ATOM     32  C   UNL     1      -6.737  -2.644 -13.108  0.00  0.00    +0.000 C 
ATOM     33  C   UNL     1      -6.046  -4.742 -13.215  0.00  0.00    +0.000 C 
ATOM     34  C   UNL     1      -5.373  -2.164 -13.681  0.00  0.00    +0.000 C 
ATOM     35  C   UNL     1      -4.681  -4.262 -13.788  0.00  0.00    +0.000 C 
ATOM     36  C   UNL     1      -3.117  -2.614 -13.131  0.00  0.00    +0.000 C 
ENDBRANCH  29  30
ENDBRANCH  27  29
ENDBRANCH  19  26
ENDBRANCH   1  22
BRANCH   2  37
ATOM     37  C   UNL     1      -3.683  -3.466  -3.418  0.00  0.00    +0.000 A 
ATOM     38  C   UNL     1      -2.689  -4.414  -3.653  0.00  0.00    +0.000 A 
ATOM     39  C   UNL     1      -3.498  -2.124  -3.750  0.00  0.00    +0.000 A 
ATOM     40  C   UNL     1      -1.487  -4.007  -4.224  0.00  0.00    +0.000 A 
ATOM     41  C   UNL     1      -2.292  -1.728  -4.319  0.00  0.00    +0.000 A 
ATOM     42  C   UNL     1      -1.289  -2.668  -4.556  0.00  0.00    +0.000 A 
ENDBRANCH   2  37
TORSDOF 9
ENDMDL
MODEL 4
REMARK VINA RESULT:      -5.5      3.663      6.008
REMARK  Name = 135423438_Nintedanib.pdbqt.pdb
REMARK  9 active torsions:
REMARK  status: ('A' for Active; 'I' for Inactive)
REMARK    1  A    between atoms: N_1  and  C_22
REMARK    2  A    between atoms: C_2  and  C_4
REMARK    3  A    between atoms: C_2  and  C_37
REMARK    4  A    between atoms: C_7  and  O_13
REMARK    5  A    between atoms: C_10  and  C_16
REMARK    6  A    between atoms: C_16  and  O_17
REMARK    7  A    between atoms: C_19  and  N_26
REMARK    8  A    between atoms: C_27  and  C_29
REMARK    9  A    between atoms: C_29  and  N_30
REMARK                            x       y       z     vdW  Elec       q    Type
REMARK                         _______ _______ _______ _____ _____    ______ ____
ROOT
ATOM      1  N   UNL     1     -18.691   2.821  13.485  0.00  0.00    +0.000 NA
ATOM      2  C   UNL     1     -18.530   3.948  14.117  0.00  0.00    +0.000 C 
ENDROOT
BRANCH   2   4
ATOM      3  N   UNL     1     -15.485   4.177  16.141  0.00  0.00    +0.000 N 
ATOM      4  C   UNL     1     -17.474   3.985  15.138  0.00  0.00    +0.000 A 
ATOM      5  C   UNL     1     -17.627   3.737  16.547  0.00  0.00    +0.000 A 
ATOM      6  C   UNL     1     -16.373   3.868  17.141  0.00  0.00    +0.000 A 
ATOM      7  C   UNL     1     -16.127   4.248  14.931  0.00  0.00    +0.000 A 
ATOM      8  C   UNL     1     -18.724   3.420  17.375  0.00  0.00    +0.000 A 
ATOM      9  C   UNL     1     -16.155   3.694  18.511  0.00  0.00    +0.000 A 
ATOM     10  C   UNL     1     -17.265   3.376  19.306  0.00  0.00    +0.000 A 
ATOM     11  C   UNL     1     -18.531   3.243  18.746  0.00  0.00    +0.000 A 
ATOM     12  H   UNL     1     -14.497   4.325  16.289  0.00  0.00    +0.000 HD
BRANCH   7  13
ATOM     13  O   UNL     1     -15.463   4.519  13.812  0.00  0.00    +0.000 OA
ATOM     14  H   UNL     1     -15.945   5.172  13.275  0.00  0.00    +0.000 HD
ENDBRANCH   7  13
BRANCH  10  16
ATOM     15  O   UNL     1     -17.716   3.870  21.582  0.00  0.00    +0.000 OA
ATOM     16  C   UNL     1     -17.131   3.175  20.765  0.00  0.00    +0.000 C 
BRANCH  16  17
ATOM     17  O   UNL     1     -16.281   2.131  20.985  0.00  0.00    +0.000 OA
ATOM     18  C   UNL     1     -16.757   1.035  21.723  0.00  0.00    +0.000 C 
ENDBRANCH  16  17
ENDBRANCH  10  16
ENDBRANCH   2   4
BRANCH   1  22
ATOM     19  C   UNL     1     -21.758   2.501  10.587  0.00  0.00    +0.000 A 
ATOM     20  C   UNL     1     -22.025   2.373  11.953  0.00  0.00    +0.000 A 
ATOM     21  C   UNL     1     -20.428   2.740  10.216  0.00  0.00    +0.000 A 
ATOM     22  C   UNL     1     -19.694   2.678  12.519  0.00  0.00    +0.000 A 
ATOM     23  C   UNL     1     -21.016   2.469  12.910  0.00  0.00    +0.000 A 
ATOM     24  C   UNL     1     -19.410   2.838  11.164  0.00  0.00    +0.000 A 
BRANCH  19  26
ATOM     25  O   UNL     1     -23.014   0.036   9.737  0.00  0.00    +0.000 OA
ATOM     26  N   UNL     1     -22.800   2.395   9.591  0.00  0.00    +0.000 N 
ATOM     27  C   UNL     1     -23.332   1.122   9.264  0.00  0.00    +0.000 C 
ATOM     28  C   UNL     1     -23.217   3.663   8.986  0.00  0.00    +0.000 C 
BRANCH  27  29
ATOM     29  C   UNL     1     -24.373   1.095   8.246  0.00  0.00    +0.000 C 
BRANCH  29  30
ATOM     30  N   UNL     1     -25.398   1.055   7.205  0.00  0.00    +0.000 N 
ATOM     31  N   UNL     1     -25.497   3.880   5.057  0.00  0.00    +0.000 N 
ATOM     32  C   UNL     1     -26.140   2.344   7.284  0.00  0.00    +0.000 C 
ATOM     33  C   UNL     1     -24.707   1.356   5.920  0.00  0.00    +0.000 C 
ATOM     34  C   UNL     1     -26.182   3.583   6.344  0.00  0.00    +0.000 C 
ATOM     35  C   UNL     1     -24.748   2.597   4.980  0.00  0.00    +0.000 C 
ATOM     36  C   UNL     1     -24.520   4.925   5.329  0.00  0.00    +0.000 C 
ENDBRANCH  29  30
ENDBRANCH  27  29
ENDBRANCH  19  26
ENDBRANCH   1  22
BRANCH   2  37
ATOM     37  C   UNL     1     -19.323   5.168  13.883  0.00  0.00    +0.000 A 
ATOM     38  C   UNL     1     -18.959   6.037  12.856  0.00  0.00    +0.000 A 
ATOM     39  C   UNL     1     -20.445   5.410  14.674  0.00  0.00    +0.000 A 
ATOM     40  C   UNL     1     -19.729   7.173  12.625  0.00  0.00    +0.000 A 
ATOM     41  C   UNL     1     -21.207   6.549  14.435  0.00  0.00    +0.000 A 
ATOM     42  C   UNL     1     -20.850   7.428  13.413  0.00  0.00    +0.000 A 
ENDBRANCH   2  37
TORSDOF 9
ENDMDL
MODEL 5
REMARK VINA RESULT:      -5.5      3.558      6.017
REMARK  Name = 135423438_Nintedanib.pdbqt.pdb
REMARK  9 active torsions:
REMARK  status: ('A' for Active; 'I' for Inactive)
REMARK    1  A    between atoms: N_1  and  C_22
REMARK    2  A    between atoms: C_2  and  C_4
REMARK    3  A    between atoms: C_2  and  C_37
REMARK    4  A    between atoms: C_7  and  O_13
REMARK    5  A    between atoms: C_10  and  C_16
REMARK    6  A    between atoms: C_16  and  O_17
REMARK    7  A    between atoms: C_19  and  N_26
REMARK    8  A    between atoms: C_27  and  C_29
REMARK    9  A    between atoms: C_29  and  N_30
REMARK                            x       y       z     vdW  Elec       q    Type
REMARK                         _______ _______ _______ _____ _____    ______ ____
ROOT
ATOM      1  N   UNL     1     -18.734   2.907  13.500  0.00  0.00    +0.000 NA
ATOM      2  C   UNL     1     -18.530   4.009  14.163  0.00  0.00    +0.000 C 
ENDROOT
BRANCH   2   4
ATOM      3  N   UNL     1     -15.420   4.132  16.095  0.00  0.00    +0.000 N 
ATOM      4  C   UNL     1     -17.442   3.991  15.149  0.00  0.00    +0.000 A 
ATOM      5  C   UNL     1     -17.548   3.668  16.548  0.00  0.00    +0.000 A 
ATOM      6  C   UNL     1     -16.275   3.768  17.106  0.00  0.00    +0.000 A 
ATOM      7  C   UNL     1     -16.101   4.267  14.912  0.00  0.00    +0.000 A 
ATOM      8  C   UNL     1     -18.617   3.306  17.393  0.00  0.00    +0.000 A 
ATOM      9  C   UNL     1     -16.012   3.521  18.457  0.00  0.00    +0.000 A 
ATOM     10  C   UNL     1     -17.095   3.159  19.269  0.00  0.00    +0.000 A 
ATOM     11  C   UNL     1     -18.379   3.055  18.745  0.00  0.00    +0.000 A 
ATOM     12  H   UNL     1     -14.428   4.272  16.219  0.00  0.00    +0.000 HD
BRANCH   7  13
ATOM     13  O   UNL     1     -15.475   4.598  13.788  0.00  0.00    +0.000 OA
ATOM     14  H   UNL     1     -15.611   3.919  13.104  0.00  0.00    +0.000 HD
ENDBRANCH   7  13
BRANCH  10  16
ATOM     15  O   UNL     1     -16.144   2.024  21.124  0.00  0.00    +0.000 OA
ATOM     16  C   UNL     1     -16.913   2.880  20.710  0.00  0.00    +0.000 C 
BRANCH  16  17
ATOM     17  O   UNL     1     -17.723   3.714  21.422  0.00  0.00    +0.000 OA
ATOM     18  C   UNL     1     -17.215   4.969  21.798  0.00  0.00    +0.000 C 
ENDBRANCH  16  17
ENDBRANCH  10  16
ENDBRANCH   2   4
BRANCH   1  22
ATOM     19  C   UNL     1     -21.815   2.529  10.626  0.00  0.00    +0.000 A 
ATOM     20  C   UNL     1     -20.553   3.021  10.285  0.00  0.00    +0.000 A 
ATOM     21  C   UNL     1     -22.019   2.166  11.963  0.00  0.00    +0.000 A 
ATOM     22  C   UNL     1     -19.770   2.815  12.563  0.00  0.00    +0.000 A 
ATOM     23  C   UNL     1     -19.538   3.156  11.231  0.00  0.00    +0.000 A 
ATOM     24  C   UNL     1     -21.013   2.295  12.919  0.00  0.00    +0.000 A 
BRANCH  19  26
ATOM     25  O   UNL     1     -21.944   0.498   8.567  0.00  0.00    +0.000 OA
ATOM     26  N   UNL     1     -22.873   2.395   9.649  0.00  0.00    +0.000 N 
ATOM     27  C   UNL     1     -22.816   1.353   8.690  0.00  0.00    +0.000 C 
ATOM     28  C   UNL     1     -23.940   3.395   9.743  0.00  0.00    +0.000 C 
BRANCH  27  29
ATOM     29  C   UNL     1     -23.913   1.287   7.735  0.00  0.00    +0.000 C 
BRANCH  29  30
ATOM     30  N   UNL     1     -24.997   1.237   6.756  0.00  0.00    +0.000 N 
ATOM     31  N   UNL     1     -25.925  -2.013   5.673  0.00  0.00    +0.000 N 
ATOM     32  C   UNL     1     -24.520   0.387   5.630  0.00  0.00    +0.000 C 
ATOM     33  C   UNL     1     -25.992   0.259   7.276  0.00  0.00    +0.000 C 
ATOM     34  C   UNL     1     -24.925  -1.040   5.157  0.00  0.00    +0.000 C 
ATOM     35  C   UNL     1     -26.396  -1.168   6.803  0.00  0.00    +0.000 C 
ATOM     36  C   UNL     1     -25.176  -3.119   6.255  0.00  0.00    +0.000 C 
ENDBRANCH  29  30
ENDBRANCH  27  29
ENDBRANCH  19  26
ENDBRANCH   1  22
BRANCH   2  37
ATOM     37  C   UNL     1     -19.307   5.250  13.996  0.00  0.00    +0.000 A 
ATOM     38  C   UNL     1     -20.465   5.441  14.748  0.00  0.00    +0.000 A 
ATOM     39  C   UNL     1     -18.847   6.225  13.112  0.00  0.00    +0.000 A 
ATOM     40  C   UNL     1     -21.177   6.627  14.604  0.00  0.00    +0.000 A 
ATOM     41  C   UNL     1     -19.567   7.407  12.975  0.00  0.00    +0.000 A 
ATOM     42  C   UNL     1     -20.730   7.608  13.720  0.00  0.00    +0.000 A 
ENDBRANCH   2  37
TORSDOF 9
ENDMDL
MODEL 6
REMARK VINA RESULT:      -5.5      1.929      2.786
REMARK  Name = 135423438_Nintedanib.pdbqt.pdb
REMARK  9 active torsions:
REMARK  status: ('A' for Active; 'I' for Inactive)
REMARK    1  A    between atoms: N_1  and  C_22
REMARK    2  A    between atoms: C_2  and  C_4
REMARK    3  A    between atoms: C_2  and  C_37
REMARK    4  A    between atoms: C_7  and  O_13
REMARK    5  A    between atoms: C_10  and  C_16
REMARK    6  A    between atoms: C_16  and  O_17
REMARK    7  A    between atoms: C_19  and  N_26
REMARK    8  A    between atoms: C_27  and  C_29
REMARK    9  A    between atoms: C_29  and  N_30
REMARK                            x       y       z     vdW  Elec       q    Type
REMARK                         _______ _______ _______ _____ _____    ______ ____
ROOT
ATOM      1  N   UNL     1     -14.548   4.433  16.016  0.00  0.00    +0.000 NA
ATOM      2  C   UNL     1     -14.489   4.408  17.317  0.00  0.00    +0.000 C 
ENDROOT
BRANCH   2   4
ATOM      3  N   UNL     1     -11.021   3.605  18.181  0.00  0.00    +0.000 N 
ATOM      4  C   UNL     1     -13.166   4.179  17.911  0.00  0.00    +0.000 A 
ATOM      5  C   UNL     1     -12.777   4.422  19.275  0.00  0.00    +0.000 A 
ATOM      6  C   UNL     1     -11.439   4.057  19.408  0.00  0.00    +0.000 A 
ATOM      7  C   UNL     1     -12.045   3.666  17.270  0.00  0.00    +0.000 A 
ATOM      8  C   UNL     1     -13.444   4.927  20.410  0.00  0.00    +0.000 A 
ATOM      9  C   UNL     1     -10.734   4.166  20.611  0.00  0.00    +0.000 A 
ATOM     10  C   UNL     1     -11.426   4.668  21.721  0.00  0.00    +0.000 A 
ATOM     11  C   UNL     1     -12.761   5.045  21.622  0.00  0.00    +0.000 A 
ATOM     12  H   UNL     1     -10.088   3.271  17.990  0.00  0.00    +0.000 HD
BRANCH   7  13
ATOM     13  O   UNL     1     -11.879   3.263  16.015  0.00  0.00    +0.000 OA
ATOM     14  H   UNL     1     -12.424   2.479  15.830  0.00  0.00    +0.000 HD
ENDBRANCH   7  13
BRANCH  10  16
ATOM     15  O   UNL     1     -10.066   3.942  23.525  0.00  0.00    +0.000 OA
ATOM     16  C   UNL     1     -10.762   4.818  23.035  0.00  0.00    +0.000 C 
BRANCH  16  17
ATOM     17  O   UNL     1     -11.069   6.047  23.540  0.00  0.00    +0.000 OA
ATOM     18  C   UNL     1     -10.113   7.069  23.421  0.00  0.00    +0.000 C 
ENDBRANCH  16  17
ENDBRANCH  10  16
ENDBRANCH   2   4
BRANCH   1  22
ATOM     19  C   UNL     1     -18.296   4.987  14.132  0.00  0.00    +0.000 A 
ATOM     20  C   UNL     1     -17.950   3.772  14.728  0.00  0.00    +0.000 A 
ATOM     21  C   UNL     1     -17.348   6.018  14.183  0.00  0.00    +0.000 A 
ATOM     22  C   UNL     1     -15.771   4.612  15.358  0.00  0.00    +0.000 A 
ATOM     23  C   UNL     1     -16.712   3.583  15.342  0.00  0.00    +0.000 A 
ATOM     24  C   UNL     1     -16.107   5.841  14.794  0.00  0.00    +0.000 A 
BRANCH  19  26
ATOM     25  O   UNL     1     -20.686   5.982  15.428  0.00  0.00    +0.000 OA
ATOM     26  N   UNL     1     -19.575   5.185  13.487  0.00  0.00    +0.000 N 
ATOM     27  C   UNL     1     -20.671   5.679  14.238  0.00  0.00    +0.000 C 
ATOM     28  C   UNL     1     -19.619   4.834  12.065  0.00  0.00    +0.000 C 
BRANCH  27  29
ATOM     29  C   UNL     1     -21.928   5.845  13.522  0.00  0.00    +0.000 C 
BRANCH  29  30
ATOM     30  N   UNL     1     -23.205   5.998  12.828  0.00  0.00    +0.000 N 
ATOM     31  N   UNL     1     -23.403   8.749  10.593  0.00  0.00    +0.000 N 
ATOM     32  C   UNL     1     -23.632   7.412  13.020  0.00  0.00    +0.000 C 
ATOM     33  C   UNL     1     -22.884   6.132  11.379  0.00  0.00    +0.000 C 
ATOM     34  C   UNL     1     -23.716   8.619  12.042  0.00  0.00    +0.000 C 
ATOM     35  C   UNL     1     -22.968   7.340  10.400  0.00  0.00    +0.000 C 
ATOM     36  C   UNL     1     -22.209   9.578  10.492  0.00  0.00    +0.000 C 
ENDBRANCH  29  30
ENDBRANCH  27  29
ENDBRANCH  19  26
ENDBRANCH   1  22
BRANCH   2  37
ATOM     37  C   UNL     1     -15.642   4.588  18.217  0.00  0.00    +0.000 A 
ATOM     38  C   UNL     1     -16.211   3.475  18.834  0.00  0.00    +0.000 A 
ATOM     39  C   UNL     1     -16.119   5.875  18.462  0.00  0.00    +0.000 A 
ATOM     40  C   UNL     1     -17.282   3.657  19.703  0.00  0.00    +0.000 A 
ATOM     41  C   UNL     1     -17.190   6.046  19.332  0.00  0.00    +0.000 A 
ATOM     42  C   UNL     1     -17.770   4.939  19.952  0.00  0.00    +0.000 A 
ENDBRANCH   2  37
TORSDOF 9
ENDMDL
MODEL 7
REMARK VINA RESULT:      -5.4      3.633     11.903
REMARK  Name = 135423438_Nintedanib.pdbqt.pdb
REMARK  9 active torsions:
REMARK  status: ('A' for Active; 'I' for Inactive)
REMARK    1  A    between atoms: N_1  and  C_22
REMARK    2  A    between atoms: C_2  and  C_4
REMARK    3  A    between atoms: C_2  and  C_37
REMARK    4  A    between atoms: C_7  and  O_13
REMARK    5  A    between atoms: C_10  and  C_16
REMARK    6  A    between atoms: C_16  and  O_17
REMARK    7  A    between atoms: C_19  and  N_26
REMARK    8  A    between atoms: C_27  and  C_29
REMARK    9  A    between atoms: C_29  and  N_30
REMARK                            x       y       z     vdW  Elec       q    Type
REMARK                         _______ _______ _______ _____ _____    ______ ____
ROOT
ATOM      1  N   UNL     1     -18.606   5.052  15.440  0.00  0.00    +0.000 NA
ATOM      2  C   UNL     1     -18.089   5.733  14.459  0.00  0.00    +0.000 C 
ENDROOT
BRANCH   2   4
ATOM      3  N   UNL     1     -20.151   6.855  11.646  0.00  0.00    +0.000 N 
ATOM      4  C   UNL     1     -18.931   5.918  13.270  0.00  0.00    +0.000 A 
ATOM      5  C   UNL     1     -19.458   4.886  12.415  0.00  0.00    +0.000 A 
ATOM      6  C   UNL     1     -20.208   5.503  11.416  0.00  0.00    +0.000 A 
ATOM      7  C   UNL     1     -19.392   7.123  12.757  0.00  0.00    +0.000 A 
ATOM      8  C   UNL     1     -19.357   3.480  12.399  0.00  0.00    +0.000 A 
ATOM      9  C   UNL     1     -20.866   4.792  10.407  0.00  0.00    +0.000 A 
ATOM     10  C   UNL     1     -20.750   3.396  10.420  0.00  0.00    +0.000 A 
ATOM     11  C   UNL     1     -20.005   2.749  11.401  0.00  0.00    +0.000 A 
ATOM     12  H   UNL     1     -20.612   7.545  11.072  0.00  0.00    +0.000 HD
BRANCH   7  13
ATOM     13  O   UNL     1     -19.208   8.368  13.184  0.00  0.00    +0.000 OA
ATOM     14  H   UNL     1     -20.009   8.903  13.041  0.00  0.00    +0.000 HD
ENDBRANCH   7  13
BRANCH  10  16
ATOM     15  O   UNL     1     -21.834   1.439   9.628  0.00  0.00    +0.000 OA
ATOM     16  C   UNL     1     -21.410   2.561   9.393  0.00  0.00    +0.000 C 
BRANCH  16  17
ATOM     17  O   UNL     1     -21.442   3.257   8.221  0.00  0.00    +0.000 OA
ATOM     18  C   UNL     1     -22.564   3.104   7.390  0.00  0.00    +0.000 C 
ENDBRANCH  16  17
ENDBRANCH  10  16
ENDBRANCH   2   4
BRANCH   1  22
ATOM     19  C   UNL     1     -16.472   4.221  18.998  0.00  0.00    +0.000 A 
ATOM     20  C   UNL     1     -17.374   5.284  18.917  0.00  0.00    +0.000 A 
ATOM     21  C   UNL     1     -16.302   3.439  17.847  0.00  0.00    +0.000 A 
ATOM     22  C   UNL     1     -17.868   4.794  16.601  0.00  0.00    +0.000 A 
ATOM     23  C   UNL     1     -18.072   5.566  17.744  0.00  0.00    +0.000 A 
ATOM     24  C   UNL     1     -16.994   3.710  16.668  0.00  0.00    +0.000 A 
BRANCH  19  26
ATOM     25  O   UNL     1     -17.267   2.296  21.009  0.00  0.00    +0.000 OA
ATOM     26  N   UNL     1     -15.741   3.929  20.210  0.00  0.00    +0.000 N 
ATOM     27  C   UNL     1     -16.241   2.961  21.116  0.00  0.00    +0.000 C 
ATOM     28  C   UNL     1     -14.508   4.699  20.396  0.00  0.00    +0.000 C 
BRANCH  27  29
ATOM     29  C   UNL     1     -15.453   2.728  22.319  0.00  0.00    +0.000 C 
BRANCH  29  30
ATOM     30  N   UNL     1     -14.647   2.473  23.511  0.00  0.00    +0.000 N 
ATOM     31  N   UNL     1     -16.469   2.103  26.535  0.00  0.00    +0.000 N 
ATOM     32  C   UNL     1     -15.081   3.456  24.542  0.00  0.00    +0.000 C 
ATOM     33  C   UNL     1     -15.242   1.281  24.177  0.00  0.00    +0.000 C 
ATOM     34  C   UNL     1     -15.882   3.295  25.866  0.00  0.00    +0.000 C 
ATOM     35  C   UNL     1     -16.044   1.120  25.502  0.00  0.00    +0.000 C 
ATOM     36  C   UNL     1     -17.916   2.229  26.428  0.00  0.00    +0.000 C 
ENDBRANCH  29  30
ENDBRANCH  27  29
ENDBRANCH  19  26
ENDBRANCH   1  22
BRANCH   2  37
ATOM     37  C   UNL     1     -16.736   6.319  14.459  0.00  0.00    +0.000 A 
ATOM     38  C   UNL     1     -15.695   5.643  13.826  0.00  0.00    +0.000 A 
ATOM     39  C   UNL     1     -16.533   7.558  15.064  0.00  0.00    +0.000 A 
ATOM     40  C   UNL     1     -14.428   6.216  13.808  0.00  0.00    +0.000 A 
ATOM     41  C   UNL     1     -15.262   8.122  15.041  0.00  0.00    +0.000 A 
ATOM     42  C   UNL     1     -14.211   7.452  14.414  0.00  0.00    +0.000 A 
ENDBRANCH   2  37
TORSDOF 9
ENDMDL
MODEL 8
REMARK VINA RESULT:      -5.4     22.473     25.280
REMARK  Name = 135423438_Nintedanib.pdbqt.pdb
REMARK  9 active torsions:
REMARK  status: ('A' for Active; 'I' for Inactive)
REMARK    1  A    between atoms: N_1  and  C_22
REMARK    2  A    between atoms: C_2  and  C_4
REMARK    3  A    between atoms: C_2  and  C_37
REMARK    4  A    between atoms: C_7  and  O_13
REMARK    5  A    between atoms: C_10  and  C_16
REMARK    6  A    between atoms: C_16  and  O_17
REMARK    7  A    between atoms: C_19  and  N_26
REMARK    8  A    between atoms: C_27  and  C_29
REMARK    9  A    between atoms: C_29  and  N_30
REMARK                            x       y       z     vdW  Elec       q    Type
REMARK                         _______ _______ _______ _____ _____    ______ ____
ROOT
ATOM      1  N   UNL     1       7.334   1.057  11.407  0.00  0.00    +0.000 NA
ATOM      2  C   UNL     1       7.158   0.905  10.126  0.00  0.00    +0.000 C 
ENDROOT
BRANCH   2   4
ATOM      3  N   UNL     1       8.768  -1.943   8.477  0.00  0.00    +0.000 N 
ATOM      4  C   UNL     1       7.585  -0.377   9.550  0.00  0.00    +0.000 A 
ATOM      5  C   UNL     1       6.866  -1.623   9.585  0.00  0.00    +0.000 A 
ATOM      6  C   UNL     1       7.630  -2.575   8.913  0.00  0.00    +0.000 A 
ATOM      7  C   UNL     1       8.757  -0.622   8.847  0.00  0.00    +0.000 A 
ATOM      8  C   UNL     1       5.633  -2.029  10.137  0.00  0.00    +0.000 A 
ATOM      9  C   UNL     1       7.228  -3.905   8.758  0.00  0.00    +0.000 A 
ATOM     10  C   UNL     1       5.996  -4.276   9.314  0.00  0.00    +0.000 A 
ATOM     11  C   UNL     1       5.212  -3.352   9.995  0.00  0.00    +0.000 A 
ATOM     12  H   UNL     1       9.501  -2.398   7.954  0.00  0.00    +0.000 HD
BRANCH   7  13
ATOM     13  O   UNL     1       9.753   0.195   8.519  0.00  0.00    +0.000 OA
ATOM     14  H   UNL     1      10.526   0.043   9.091  0.00  0.00    +0.000 HD
ENDBRANCH   7  13
BRANCH  10  16
ATOM     15  O   UNL     1       4.985  -6.096   8.176  0.00  0.00    +0.000 OA
ATOM     16  C   UNL     1       5.490  -5.661   9.200  0.00  0.00    +0.000 C 
BRANCH  16  17
ATOM     17  O   UNL     1       5.692  -6.298  10.388  0.00  0.00    +0.000 OA
ATOM     18  C   UNL     1       6.529  -7.426  10.402  0.00  0.00    +0.000 C 
ENDBRANCH  16  17
ENDBRANCH  10  16
ENDBRANCH   2   4
BRANCH   1  22
ATOM     19  C   UNL     1       6.318   4.631  13.430  0.00  0.00    +0.000 A 
ATOM     20  C   UNL     1       5.441   3.545  13.378  0.00  0.00    +0.000 A 
ATOM     21  C   UNL     1       7.552   4.488  12.781  0.00  0.00    +0.000 A 
ATOM     22  C   UNL     1       6.990   2.256  12.041  0.00  0.00    +0.000 A 
ATOM     23  C   UNL     1       5.769   2.369  12.705  0.00  0.00    +0.000 A 
ATOM     24  C   UNL     1       7.891   3.317  12.105  0.00  0.00    +0.000 A 
BRANCH  19  26
ATOM     25  O   UNL     1       5.287   7.029  12.176  0.00  0.00    +0.000 OA
ATOM     26  N   UNL     1       5.979   5.855  14.120  0.00  0.00    +0.000 N 
ATOM     27  C   UNL     1       5.482   6.961  13.386  0.00  0.00    +0.000 C 
ATOM     28  C   UNL     1       6.197   5.836  15.569  0.00  0.00    +0.000 C 
BRANCH  27  29
ATOM     29  C   UNL     1       5.171   8.162  14.149  0.00  0.00    +0.000 C 
BRANCH  29  30
ATOM     30  N   UNL     1       4.874   9.383  14.896  0.00  0.00    +0.000 N 
ATOM     31  N   UNL     1       6.379  12.342  13.639  0.00  0.00    +0.000 N 
ATOM     32  C   UNL     1       6.179  10.038  15.184  0.00  0.00    +0.000 C 
ATOM     33  C   UNL     1       4.416  10.388  13.897  0.00  0.00    +0.000 C 
ATOM     34  C   UNL     1       6.841  11.333  14.632  0.00  0.00    +0.000 C 
ATOM     35  C   UNL     1       5.078  11.684  13.343  0.00  0.00    +0.000 C 
ATOM     36  C   UNL     1       7.213  12.182  12.456  0.00  0.00    +0.000 C 
ENDBRANCH  29  30
ENDBRANCH  27  29
ENDBRANCH  19  26
ENDBRANCH   1  22
BRANCH   2  37
ATOM     37  C   UNL     1       6.572   1.917   9.229  0.00  0.00    +0.000 A 
ATOM     38  C   UNL     1       5.186   2.052   9.159  0.00  0.00    +0.000 A 
ATOM     39  C   UNL     1       7.419   2.744   8.493  0.00  0.00    +0.000 A 
ATOM     40  C   UNL     1       4.642   3.027   8.330  0.00  0.00    +0.000 A 
ATOM     41  C   UNL     1       6.865   3.716   7.667  0.00  0.00    +0.000 A 
ATOM     42  C   UNL     1       5.479   3.858   7.585  0.00  0.00    +0.000 A 
ENDBRANCH   2  37
TORSDOF 9
ENDMDL
MODEL 9
REMARK VINA RESULT:      -5.3     21.002     22.844
REMARK  Name = 135423438_Nintedanib.pdbqt.pdb
REMARK  9 active torsions:
REMARK  status: ('A' for Active; 'I' for Inactive)
REMARK    1  A    between atoms: N_1  and  C_22
REMARK    2  A    between atoms: C_2  and  C_4
REMARK    3  A    between atoms: C_2  and  C_37
REMARK    4  A    between atoms: C_7  and  O_13
REMARK    5  A    between atoms: C_10  and  C_16
REMARK    6  A    between atoms: C_16  and  O_17
REMARK    7  A    between atoms: C_19  and  N_26
REMARK    8  A    between atoms: C_27  and  C_29
REMARK    9  A    between atoms: C_29  and  N_30
REMARK                            x       y       z     vdW  Elec       q    Type
REMARK                         _______ _______ _______ _____ _____    ______ ____
ROOT
ATOM      1  N   UNL     1       4.500   2.516  14.770  0.00  0.00    +0.000 NA
ATOM      2  C   UNL     1       5.080   2.887  15.875  0.00  0.00    +0.000 C 
ENDROOT
BRANCH   2   4
ATOM      3  N   UNL     1       3.399   2.505  19.107  0.00  0.00    +0.000 N 
ATOM      4  C   UNL     1       4.440   2.467  17.128  0.00  0.00    +0.000 A 
ATOM      5  C   UNL     1       4.280   1.119  17.607  0.00  0.00    +0.000 A 
ATOM      6  C   UNL     1       3.627   1.179  18.837  0.00  0.00    +0.000 A 
ATOM      7  C   UNL     1       3.883   3.294  18.095  0.00  0.00    +0.000 A 
ATOM      8  C   UNL     1       4.626  -0.150  17.100  0.00  0.00    +0.000 A 
ATOM      9  C   UNL     1       3.308   0.043  19.588  0.00  0.00    +0.000 A 
ATOM     10  C   UNL     1       3.669  -1.203  19.058  0.00  0.00    +0.000 A 
ATOM     11  C   UNL     1       4.317  -1.298  17.832  0.00  0.00    +0.000 A 
ATOM     12  H   UNL     1       2.941   2.840  19.942  0.00  0.00    +0.000 HD
BRANCH   7  13
ATOM     13  O   UNL     1       3.790   4.618  18.146  0.00  0.00    +0.000 OA
ATOM     14  H   UNL     1       4.088   5.018  17.310  0.00  0.00    +0.000 HD
ENDBRANCH   7  13
BRANCH  10  16
ATOM     15  O   UNL     1       2.934  -3.454  19.221  0.00  0.00    +0.000 OA
ATOM     16  C   UNL     1       3.371  -2.459  19.781  0.00  0.00    +0.000 C 
BRANCH  16  17
ATOM     17  O   UNL     1       3.665  -2.283  21.100  0.00  0.00    +0.000 OA
ATOM     18  C   UNL     1       4.255  -3.351  21.795  0.00  0.00    +0.000 C 
ENDBRANCH  16  17
ENDBRANCH  10  16
ENDBRANCH   2   4
BRANCH   1  22
ATOM     19  C   UNL     1       6.128   3.752  11.065  0.00  0.00    +0.000 A 
ATOM     20  C   UNL     1       5.100   4.465  11.687  0.00  0.00    +0.000 A 
ATOM     21  C   UNL     1       6.598   2.606  11.721  0.00  0.00    +0.000 A 
ATOM     22  C   UNL     1       5.017   2.897  13.526  0.00  0.00    +0.000 A 
ATOM     23  C   UNL     1       4.555   4.056  12.903  0.00  0.00    +0.000 A 
ATOM     24  C   UNL     1       6.062   2.187  12.938  0.00  0.00    +0.000 A 
BRANCH  19  26
ATOM     25  O   UNL     1       5.100   3.027   8.458  0.00  0.00    +0.000 OA
ATOM     26  N   UNL     1       6.690   4.168   9.800  0.00  0.00    +0.000 N 
ATOM     27  C   UNL     1       6.089   3.741   8.590  0.00  0.00    +0.000 C 
ATOM     28  C   UNL     1       7.879   5.020   9.896  0.00  0.00    +0.000 C 
BRANCH  27  29
ATOM     29  C   UNL     1       6.717   4.195   7.357  0.00  0.00    +0.000 C 
BRANCH  29  30
ATOM     30  N   UNL     1       7.375   4.644   6.131  0.00  0.00    +0.000 N 
ATOM     31  N   UNL     1       5.216   5.948   3.633  0.00  0.00    +0.000 N 
ATOM     32  C   UNL     1       6.656   3.999   4.997  0.00  0.00    +0.000 C 
ATOM     33  C   UNL     1       6.876   6.022   5.864  0.00  0.00    +0.000 C 
ATOM     34  C   UNL     1       5.708   4.570   3.903  0.00  0.00    +0.000 C 
ATOM     35  C   UNL     1       5.926   6.593   4.770  0.00  0.00    +0.000 C 
ATOM     36  C   UNL     1       3.796   5.962   3.959  0.00  0.00    +0.000 C 
ENDBRANCH  29  30
ENDBRANCH  27  29
ENDBRANCH  19  26
ENDBRANCH   1  22
BRANCH   2  37
ATOM     37  C   UNL     1       6.314   3.690  15.953  0.00  0.00    +0.000 A 
ATOM     38  C   UNL     1       6.241   5.075  15.812  0.00  0.00    +0.000 A 
ATOM     39  C   UNL     1       7.527   3.049  16.199  0.00  0.00    +0.000 A 
ATOM     40  C   UNL     1       7.406   5.828  15.913  0.00  0.00    +0.000 A 
ATOM     41  C   UNL     1       8.687   3.812  16.297  0.00  0.00    +0.000 A 
ATOM     42  C   UNL     1       8.626   5.198  16.155  0.00  0.00    +0.000 A 
ENDBRANCH   2  37
TORSDOF 9
ENDMDL
