MODEL 1
REMARK VINA RESULT:      -6.9      0.000      0.000
REMARK  Name = 14132199_RiccardinD.pdbqt.pdb
REMARK  3 active torsions:
REMARK  status: ('A' for Active; 'I' for Inactive)
REMARK    1  A    between atoms: C_11  and  O_30
REMARK    2  A    between atoms: C_16  and  O_32
REMARK    3  A    between atoms: C_28  and  O_34
REMARK                            x       y       z     vdW  Elec       q    Type
REMARK                         _______ _______ _______ _____ _____    ______ ____
ROOT
ATOM      1  O   UNL     1      10.714   0.030   9.968  0.00  0.00    +0.000 OA
ATOM      2  C   UNL     1       9.264  -6.737  10.659  0.00  0.00    +0.000 C 
ATOM      3  C   UNL     1       8.434  -7.907  10.671  0.00  0.00    +0.000 A 
ATOM      4  C   UNL     1       7.032  -7.826  10.464  0.00  0.00    +0.000 A 
ATOM      5  C   UNL     1      10.012  -5.396  10.588  0.00  0.00    +0.000 C 
ATOM      6  C   UNL     1       5.496  -2.443   9.884  0.00  0.00    +0.000 C 
ATOM      7  C   UNL     1       6.357  -6.514  10.354  0.00  0.00    +0.000 A 
ATOM      8  C   UNL     1       5.475  -3.849  10.115  0.00  0.00    +0.000 A 
ATOM      9  C   UNL     1       6.036  -1.022   9.705  0.00  0.00    +0.000 C 
ATOM     10  C   UNL     1      10.510  -4.064  10.472  0.00  0.00    +0.000 A 
ATOM     11  C   UNL     1       5.736  -6.055   9.182  0.00  0.00    +0.000 A 
ATOM     12  C   UNL     1       7.020   0.001   9.638  0.00  0.00    +0.000 A 
ATOM     13  C   UNL     1       6.411  -5.631  11.442  0.00  0.00    +0.000 A 
ATOM     14  C   UNL     1       5.317  -4.729   9.049  0.00  0.00    +0.000 A 
ATOM     15  C   UNL     1       5.986  -4.311  11.325  0.00  0.00    +0.000 A 
ATOM     16  C   UNL     1       6.328  -9.042  10.388  0.00  0.00    +0.000 A 
ATOM     17  C   UNL     1       9.065  -9.140  10.844  0.00  0.00    +0.000 A 
ATOM     18  C   UNL     1       6.961 -10.270  10.580  0.00  0.00    +0.000 A 
ATOM     19  C   UNL     1       8.329 -10.318  10.818  0.00  0.00    +0.000 A 
ATOM     20  C   UNL     1       8.331  -0.427   9.814  0.00  0.00    +0.000 A 
ATOM     21  C   UNL     1      10.526  -3.234  11.594  0.00  0.00    +0.000 A 
ATOM     22  C   UNL     1      10.770  -3.538   9.205  0.00  0.00    +0.000 A 
ATOM     23  C   UNL     1       9.407   0.453   9.790  0.00  0.00    +0.000 A 
ATOM     24  C   UNL     1       6.757   1.346   9.427  0.00  0.00    +0.000 A 
ATOM     25  C   UNL     1      10.861  -1.332  10.159  0.00  0.00    +0.000 A 
ATOM     26  C   UNL     1      10.714  -1.862  11.442  0.00  0.00    +0.000 A 
ATOM     27  C   UNL     1      10.958  -2.167   9.045  0.00  0.00    +0.000 A 
ATOM     28  C   UNL     1       9.142   1.802   9.579  0.00  0.00    +0.000 A 
ATOM     29  C   UNL     1       7.828   2.248   9.398  0.00  0.00    +0.000 A 
ENDROOT
BRANCH  11  30
ATOM     30  O   UNL     1       5.552  -6.920   8.136  0.00  0.00    +0.000 OA
ATOM     31  H   UNL     1       4.620  -7.213   8.145  0.00  0.00    +0.000 HD
ENDBRANCH  11  30
BRANCH  16  32
ATOM     32  O   UNL     1       4.989  -9.095  10.102  0.00  0.00    +0.000 OA
ATOM     33  H   UNL     1       4.882  -9.743   9.381  0.00  0.00    +0.000 HD
ENDBRANCH  16  32
BRANCH  28  34
ATOM     34  O   UNL     1      10.147   2.726   9.541  0.00  0.00    +0.000 OA
ATOM     35  H   UNL     1      10.506   2.728   8.635  0.00  0.00    +0.000 HD
ENDBRANCH  28  34
TORSDOF 3
ENDMDL
MODEL 2
REMARK VINA RESULT:      -6.8     22.449     24.492
REMARK  Name = 14132199_RiccardinD.pdbqt.pdb
REMARK  3 active torsions:
REMARK  status: ('A' for Active; 'I' for Inactive)
REMARK    1  A    between atoms: C_11  and  O_30
REMARK    2  A    between atoms: C_16  and  O_32
REMARK    3  A    between atoms: C_28  and  O_34
REMARK                            x       y       z     vdW  Elec       q    Type
REMARK                         _______ _______ _______ _____ _____    ______ ____
ROOT
ATOM      1  O   UNL     1      -8.600 -21.304   6.506  0.00  0.00    +0.000 OA
ATOM      2  C   UNL     1     -12.105 -18.935  12.025  0.00  0.00    +0.000 C 
ATOM      3  C   UNL     1     -12.802 -17.965  12.821  0.00  0.00    +0.000 A 
ATOM      4  C   UNL     1     -12.932 -16.616  12.402  0.00  0.00    +0.000 A 
ATOM      5  C   UNL     1     -11.354 -19.852  11.046  0.00  0.00    +0.000 C 
ATOM      6  C   UNL     1     -10.190 -15.851   7.547  0.00  0.00    +0.000 C 
ATOM      7  C   UNL     1     -12.241 -16.129  11.187  0.00  0.00    +0.000 A 
ATOM      8  C   UNL     1     -10.847 -15.626   8.792  0.00  0.00    +0.000 A 
ATOM      9  C   UNL     1      -9.480 -16.584   6.406  0.00  0.00    +0.000 C 
ATOM     10  C   UNL     1     -10.646 -20.525  10.007  0.00  0.00    +0.000 A 
ATOM     11  C   UNL     1     -12.911 -15.700  10.031  0.00  0.00    +0.000 A 
ATOM     12  C   UNL     1      -8.913 -17.692   5.721  0.00  0.00    +0.000 A 
ATOM     13  C   UNL     1     -10.841 -16.181  11.138  0.00  0.00    +0.000 A 
ATOM     14  C   UNL     1     -12.229 -15.470   8.835  0.00  0.00    +0.000 A 
ATOM     15  C   UNL     1     -10.148 -15.942   9.955  0.00  0.00    +0.000 A 
ATOM     16  C   UNL     1     -13.726 -15.774  13.203  0.00  0.00    +0.000 A 
ATOM     17  C   UNL     1     -13.396 -18.412  14.003  0.00  0.00    +0.000 A 
ATOM     18  C   UNL     1     -14.300 -16.220  14.392  0.00  0.00    +0.000 A 
ATOM     19  C   UNL     1     -14.127 -17.538  14.798  0.00  0.00    +0.000 A 
ATOM     20  C   UNL     1      -9.017 -18.912   6.381  0.00  0.00    +0.000 A 
ATOM     21  C   UNL     1      -9.250 -20.529  10.013  0.00  0.00    +0.000 A 
ATOM     22  C   UNL     1     -11.344 -20.983   8.888  0.00  0.00    +0.000 A 
ATOM     23  C   UNL     1      -8.501 -20.088   5.849  0.00  0.00    +0.000 A 
ATOM     24  C   UNL     1      -8.280 -17.627   4.489  0.00  0.00    +0.000 A 
ATOM     25  C   UNL     1      -9.261 -21.254   7.719  0.00  0.00    +0.000 A 
ATOM     26  C   UNL     1      -8.550 -20.905   8.869  0.00  0.00    +0.000 A 
ATOM     27  C   UNL     1     -10.652 -21.361   7.740  0.00  0.00    +0.000 A 
ATOM     28  C   UNL     1      -7.866 -20.021   4.614  0.00  0.00    +0.000 A 
ATOM     29  C   UNL     1      -7.755 -18.802   3.936  0.00  0.00    +0.000 A 
ENDROOT
BRANCH  11  30
ATOM     30  O   UNL     1     -14.268 -15.518  10.070  0.00  0.00    +0.000 OA
ATOM     31  H   UNL     1     -14.525 -15.346  10.997  0.00  0.00    +0.000 HD
ENDBRANCH  11  30
BRANCH  16  32
ATOM     32  O   UNL     1     -13.998 -14.477  12.855  0.00  0.00    +0.000 OA
ATOM     33  H   UNL     1     -14.590 -14.513  12.079  0.00  0.00    +0.000 HD
ENDBRANCH  16  32
BRANCH  28  34
ATOM     34  O   UNL     1      -7.335 -21.135   4.027  0.00  0.00    +0.000 OA
ATOM     35  H   UNL     1      -7.701 -21.910   4.490  0.00  0.00    +0.000 HD
ENDBRANCH  28  34
TORSDOF 3
ENDMDL
MODEL 3
REMARK VINA RESULT:      -6.7     19.725     22.823
REMARK  Name = 14132199_RiccardinD.pdbqt.pdb
REMARK  3 active torsions:
REMARK  status: ('A' for Active; 'I' for Inactive)
REMARK    1  A    between atoms: C_11  and  O_30
REMARK    2  A    between atoms: C_16  and  O_32
REMARK    3  A    between atoms: C_28  and  O_34
REMARK                            x       y       z     vdW  Elec       q    Type
REMARK                         _______ _______ _______ _____ _____    ______ ____
ROOT
ATOM      1  O   UNL     1      -2.593 -19.381  16.664  0.00  0.00    +0.000 OA
ATOM      2  C   UNL     1      -7.537 -17.254  21.067  0.00  0.00    +0.000 C 
ATOM      3  C   UNL     1      -8.085 -16.852  22.331  0.00  0.00    +0.000 A 
ATOM      4  C   UNL     1      -7.301 -16.849  23.514  0.00  0.00    +0.000 A 
ATOM      5  C   UNL     1      -6.793 -17.686  19.794  0.00  0.00    +0.000 C 
ATOM      6  C   UNL     1      -2.143 -18.797  22.391  0.00  0.00    +0.000 C 
ATOM      7  C   UNL     1      -5.921 -17.383  23.511  0.00  0.00    +0.000 A 
ATOM      8  C   UNL     1      -3.334 -18.404  23.068  0.00  0.00    +0.000 A 
ATOM      9  C   UNL     1      -1.195 -19.188  21.254  0.00  0.00    +0.000 C 
ATOM     10  C   UNL     1      -5.924 -18.100  18.741  0.00  0.00    +0.000 A 
ATOM     11  C   UNL     1      -4.782 -16.594  23.726  0.00  0.00    +0.000 A 
ATOM     12  C   UNL     1      -0.809 -19.463  19.915  0.00  0.00    +0.000 A 
ATOM     13  C   UNL     1      -5.719 -18.732  23.185  0.00  0.00    +0.000 A 
ATOM     14  C   UNL     1      -3.497 -17.087  23.486  0.00  0.00    +0.000 A 
ATOM     15  C   UNL     1      -4.443 -19.238  22.956  0.00  0.00    +0.000 A 
ATOM     16  C   UNL     1      -7.905 -16.334  24.676  0.00  0.00    +0.000 A 
ATOM     17  C   UNL     1      -9.411 -16.411  22.345  0.00  0.00    +0.000 A 
ATOM     18  C   UNL     1      -9.234 -15.913  24.689  0.00  0.00    +0.000 A 
ATOM     19  C   UNL     1      -9.991 -15.961  23.524  0.00  0.00    +0.000 A 
ATOM     20  C   UNL     1      -1.811 -19.298  18.964  0.00  0.00    +0.000 A 
ATOM     21  C   UNL     1      -5.760 -19.461  18.477  0.00  0.00    +0.000 A 
ATOM     22  C   UNL     1      -5.088 -17.161  18.135  0.00  0.00    +0.000 A 
ATOM     23  C   UNL     1      -1.595 -19.540  17.612  0.00  0.00    +0.000 A 
ATOM     24  C   UNL     1       0.454 -19.878  19.520  0.00  0.00    +0.000 A 
ATOM     25  C   UNL     1      -3.807 -18.952  17.167  0.00  0.00    +0.000 A 
ATOM     26  C   UNL     1      -4.705 -19.892  17.677  0.00  0.00    +0.000 A 
ATOM     27  C   UNL     1      -4.029 -17.585  17.333  0.00  0.00    +0.000 A 
ATOM     28  C   UNL     1      -0.329 -19.956  17.218  0.00  0.00    +0.000 A 
ATOM     29  C   UNL     1       0.691 -20.124  18.161  0.00  0.00    +0.000 A 
ENDROOT
BRANCH  11  30
ATOM     30  O   UNL     1      -4.930 -15.305  24.163  0.00  0.00    +0.000 OA
ATOM     31  H   UNL     1      -5.885 -15.099  24.184  0.00  0.00    +0.000 HD
ENDBRANCH  11  30
BRANCH  16  32
ATOM     32  O   UNL     1      -7.221 -16.196  25.856  0.00  0.00    +0.000 OA
ATOM     33  H   UNL     1      -6.764 -15.334  25.817  0.00  0.00    +0.000 HD
ENDBRANCH  16  32
BRANCH  28  34
ATOM     34  O   UNL     1      -0.041 -20.213  15.907  0.00  0.00    +0.000 OA
ATOM     35  H   UNL     1       0.901 -20.458  15.860  0.00  0.00    +0.000 HD
ENDBRANCH  28  34
TORSDOF 3
ENDMDL
MODEL 4
REMARK VINA RESULT:      -6.5     27.479     30.179
REMARK  Name = 14132199_RiccardinD.pdbqt.pdb
REMARK  3 active torsions:
REMARK  status: ('A' for Active; 'I' for Inactive)
REMARK    1  A    between atoms: C_11  and  O_30
REMARK    2  A    between atoms: C_16  and  O_32
REMARK    3  A    between atoms: C_28  and  O_34
REMARK                            x       y       z     vdW  Elec       q    Type
REMARK                         _______ _______ _______ _____ _____    ______ ____
ROOT
ATOM      1  O   UNL     1     -18.728  -5.093  30.247  0.00  0.00    +0.000 OA
ATOM      2  C   UNL     1     -12.195  -6.038  28.060  0.00  0.00    +0.000 C 
ATOM      3  C   UNL     1     -11.109  -6.733  27.431  0.00  0.00    +0.000 A 
ATOM      4  C   UNL     1     -11.271  -8.038  26.898  0.00  0.00    +0.000 A 
ATOM      5  C   UNL     1     -13.462  -5.424  28.676  0.00  0.00    +0.000 C 
ATOM      6  C   UNL     1     -16.499  -9.870  27.889  0.00  0.00    +0.000 C 
ATOM      7  C   UNL     1     -12.536  -8.783  27.087  0.00  0.00    +0.000 A 
ATOM      8  C   UNL     1     -15.107  -9.818  27.588  0.00  0.00    +0.000 A 
ATOM      9  C   UNL     1     -17.882  -9.436  28.380  0.00  0.00    +0.000 C 
ATOM     10  C   UNL     1     -14.740  -5.038  29.181  0.00  0.00    +0.000 A 
ATOM     11  C   UNL     1     -13.399  -9.128  26.036  0.00  0.00    +0.000 A 
ATOM     12  C   UNL     1     -18.850  -8.566  28.950  0.00  0.00    +0.000 A 
ATOM     13  C   UNL     1     -12.955  -9.086  28.390  0.00  0.00    +0.000 A 
ATOM     14  C   UNL     1     -14.683  -9.621  26.277  0.00  0.00    +0.000 A 
ATOM     15  C   UNL     1     -14.228  -9.589  28.643  0.00  0.00    +0.000 A 
ATOM     16  C   UNL     1     -10.174  -8.585  26.207  0.00  0.00    +0.000 A 
ATOM     17  C   UNL     1      -9.894  -6.054  27.314  0.00  0.00    +0.000 A 
ATOM     18  C   UNL     1      -8.957  -7.911  26.110  0.00  0.00    +0.000 A 
ATOM     19  C   UNL     1      -8.814  -6.648  26.673  0.00  0.00    +0.000 A 
ATOM     20  C   UNL     1     -18.378  -7.307  29.307  0.00  0.00    +0.000 A 
ATOM     21  C   UNL     1     -15.097  -5.382  30.486  0.00  0.00    +0.000 A 
ATOM     22  C   UNL     1     -15.693  -4.518  28.306  0.00  0.00    +0.000 A 
ATOM     23  C   UNL     1     -19.198  -6.346  29.888  0.00  0.00    +0.000 A 
ATOM     24  C   UNL     1     -20.180  -8.891  29.171  0.00  0.00    +0.000 A 
ATOM     25  C   UNL     1     -17.391  -4.874  29.970  0.00  0.00    +0.000 A 
ATOM     26  C   UNL     1     -16.427  -5.290  30.890  0.00  0.00    +0.000 A 
ATOM     27  C   UNL     1     -17.026  -4.422  28.702  0.00  0.00    +0.000 A 
ATOM     28  C   UNL     1     -20.530  -6.674  30.109  0.00  0.00    +0.000 A 
ATOM     29  C   UNL     1     -21.022  -7.935  29.754  0.00  0.00    +0.000 A 
ENDROOT
BRANCH  11  30
ATOM     30  O   UNL     1     -12.981  -8.962  24.742  0.00  0.00    +0.000 OA
ATOM     31  H   UNL     1     -12.778  -8.016  24.607  0.00  0.00    +0.000 HD
ENDBRANCH  11  30
BRANCH  16  32
ATOM     32  O   UNL     1     -10.239  -9.798  25.573  0.00  0.00    +0.000 OA
ATOM     33  H   UNL     1      -9.421  -9.885  25.048  0.00  0.00    +0.000 HD
ENDBRANCH  16  32
BRANCH  28  34
ATOM     34  O   UNL     1     -21.397  -5.781  30.676  0.00  0.00    +0.000 OA
ATOM     35  H   UNL     1     -21.587  -6.095  31.578  0.00  0.00    +0.000 HD
ENDBRANCH  28  34
TORSDOF 3
ENDMDL
MODEL 5
REMARK VINA RESULT:      -6.4     22.510     25.379
REMARK  Name = 14132199_RiccardinD.pdbqt.pdb
REMARK  3 active torsions:
REMARK  status: ('A' for Active; 'I' for Inactive)
REMARK    1  A    between atoms: C_11  and  O_30
REMARK    2  A    between atoms: C_16  and  O_32
REMARK    3  A    between atoms: C_28  and  O_34
REMARK                            x       y       z     vdW  Elec       q    Type
REMARK                         _______ _______ _______ _____ _____    ______ ____
ROOT
ATOM      1  O   UNL     1     -17.126 -14.740  12.490  0.00  0.00    +0.000 OA
ATOM      2  C   UNL     1     -13.109 -15.463   6.860  0.00  0.00    +0.000 C 
ATOM      3  C   UNL     1     -11.951 -15.870   6.117  0.00  0.00    +0.000 A 
ATOM      4  C   UNL     1     -10.843 -16.493   6.749  0.00  0.00    +0.000 A 
ATOM      5  C   UNL     1     -14.280 -15.114   7.793  0.00  0.00    +0.000 C 
ATOM      6  C   UNL     1     -11.730 -16.788  12.299  0.00  0.00    +0.000 C 
ATOM      7  C   UNL     1     -10.789 -16.630   8.222  0.00  0.00    +0.000 A 
ATOM      8  C   UNL     1     -11.107 -16.768  11.017  0.00  0.00    +0.000 A 
ATOM      9  C   UNL     1     -12.788 -16.595  13.388  0.00  0.00    +0.000 C 
ATOM     10  C   UNL     1     -15.247 -14.886   8.817  0.00  0.00    +0.000 A 
ATOM     11  C   UNL     1     -10.825 -17.863   8.890  0.00  0.00    +0.000 A 
ATOM     12  C   UNL     1     -14.043 -16.211  13.934  0.00  0.00    +0.000 A 
ATOM     13  C   UNL     1     -10.795 -15.470   9.010  0.00  0.00    +0.000 A 
ATOM     14  C   UNL     1     -11.005 -17.939  10.272  0.00  0.00    +0.000 A 
ATOM     15  C   UNL     1     -10.962 -15.533  10.390  0.00  0.00    +0.000 A 
ATOM     16  C   UNL     1      -9.807 -16.949   5.914  0.00  0.00    +0.000 A 
ATOM     17  C   UNL     1     -11.975 -15.677   4.734  0.00  0.00    +0.000 A 
ATOM     18  C   UNL     1      -9.827 -16.737   4.536  0.00  0.00    +0.000 A 
ATOM     19  C   UNL     1     -10.908 -16.092   3.947  0.00  0.00    +0.000 A 
ATOM     20  C   UNL     1     -14.953 -15.693  13.020  0.00  0.00    +0.000 A 
ATOM     21  C   UNL     1     -15.189 -13.714   9.572  0.00  0.00    +0.000 A 
ATOM     22  C   UNL     1     -16.100 -15.924   9.196  0.00  0.00    +0.000 A 
ATOM     23  C   UNL     1     -16.218 -15.260  13.399  0.00  0.00    +0.000 A 
ATOM     24  C   UNL     1     -14.391 -16.309  15.273  0.00  0.00    +0.000 A 
ATOM     25  C   UNL     1     -16.678 -14.700  11.183  0.00  0.00    +0.000 A 
ATOM     26  C   UNL     1     -15.916 -13.612  10.756  0.00  0.00    +0.000 A 
ATOM     27  C   UNL     1     -16.830 -15.830  10.378  0.00  0.00    +0.000 A 
ATOM     28  C   UNL     1     -16.566 -15.358  14.742  0.00  0.00    +0.000 A 
ATOM     29  C   UNL     1     -15.662 -15.879  15.674  0.00  0.00    +0.000 A 
ENDROOT
BRANCH  11  30
ATOM     30  O   UNL     1     -10.699 -19.021   8.169  0.00  0.00    +0.000 OA
ATOM     31  H   UNL     1     -10.384 -19.721   8.772  0.00  0.00    +0.000 HD
ENDBRANCH  11  30
BRANCH  16  32
ATOM     32  O   UNL     1      -8.730 -17.644   6.398  0.00  0.00    +0.000 OA
ATOM     33  H   UNL     1      -8.127 -17.788   5.644  0.00  0.00    +0.000 HD
ENDBRANCH  16  32
BRANCH  28  34
ATOM     34  O   UNL     1     -17.791 -14.953  15.190  0.00  0.00    +0.000 OA
ATOM     35  H   UNL     1     -18.285 -14.616  14.420  0.00  0.00    +0.000 HD
ENDBRANCH  28  34
TORSDOF 3
ENDMDL
MODEL 6
REMARK VINA RESULT:      -6.4      4.915     11.564
REMARK  Name = 14132199_RiccardinD.pdbqt.pdb
REMARK  3 active torsions:
REMARK  status: ('A' for Active; 'I' for Inactive)
REMARK    1  A    between atoms: C_11  and  O_30
REMARK    2  A    between atoms: C_16  and  O_32
REMARK    3  A    between atoms: C_28  and  O_34
REMARK                            x       y       z     vdW  Elec       q    Type
REMARK                         _______ _______ _______ _____ _____    ______ ____
ROOT
ATOM      1  O   UNL     1       6.328 -16.469  13.039  0.00  0.00    +0.000 OA
ATOM      2  C   UNL     1       8.043 -10.033  11.041  0.00  0.00    +0.000 C 
ATOM      3  C   UNL     1       7.887  -8.612  10.916  0.00  0.00    +0.000 A 
ATOM      4  C   UNL     1       6.742  -7.942  11.419  0.00  0.00    +0.000 A 
ATOM      5  C   UNL     1       8.068 -11.551  11.281  0.00  0.00    +0.000 C 
ATOM      6  C   UNL     1       3.142 -11.684  13.588  0.00  0.00    +0.000 C 
ATOM      7  C   UNL     1       5.604  -8.704  11.980  0.00  0.00    +0.000 A 
ATOM      8  C   UNL     1       3.706 -10.499  13.033  0.00  0.00    +0.000 A 
ATOM      9  C   UNL     1       2.988 -13.153  13.992  0.00  0.00    +0.000 C 
ATOM     10  C   UNL     1       7.901 -12.929  11.612  0.00  0.00    +0.000 A 
ATOM     11  C   UNL     1       5.223  -8.652  13.329  0.00  0.00    +0.000 A 
ATOM     12  C   UNL     1       3.356 -14.521  14.102  0.00  0.00    +0.000 A 
ATOM     13  C   UNL     1       4.916  -9.601  11.151  0.00  0.00    +0.000 A 
ATOM     14  C   UNL     1       4.299  -9.553  13.863  0.00  0.00    +0.000 A 
ATOM     15  C   UNL     1       3.985 -10.497  11.668  0.00  0.00    +0.000 A 
ATOM     16  C   UNL     1       6.740  -6.537  11.341  0.00  0.00    +0.000 A 
ATOM     17  C   UNL     1       8.934  -7.901  10.324  0.00  0.00    +0.000 A 
ATOM     18  C   UNL     1       7.778  -5.834  10.731  0.00  0.00    +0.000 A 
ATOM     19  C   UNL     1       8.872  -6.518  10.214  0.00  0.00    +0.000 A 
ATOM     20  C   UNL     1       4.596 -14.845  13.563  0.00  0.00    +0.000 A 
ATOM     21  C   UNL     1       7.196 -13.765  10.746  0.00  0.00    +0.000 A 
ATOM     22  C   UNL     1       8.253 -13.374  12.887  0.00  0.00    +0.000 A 
ATOM     23  C   UNL     1       5.094 -16.143  13.579  0.00  0.00    +0.000 A 
ATOM     24  C   UNL     1       2.577 -15.511  14.682  0.00  0.00    +0.000 A 
ATOM     25  C   UNL     1       7.024 -15.403  12.499  0.00  0.00    +0.000 A 
ATOM     26  C   UNL     1       6.763 -15.015  11.184  0.00  0.00    +0.000 A 
ATOM     27  C   UNL     1       7.824 -14.622  13.333  0.00  0.00    +0.000 A 
ATOM     28  C   UNL     1       4.312 -17.134  14.160  0.00  0.00    +0.000 A 
ATOM     29  C   UNL     1       3.062 -16.824  14.709  0.00  0.00    +0.000 A 
ENDROOT
BRANCH  11  30
ATOM     30  O   UNL     1       5.782  -7.707  14.149  0.00  0.00    +0.000 OA
ATOM     31  H   UNL     1       5.125  -7.471  14.832  0.00  0.00    +0.000 HD
ENDBRANCH  11  30
BRANCH  16  32
ATOM     32  O   UNL     1       5.732  -5.777  11.873  0.00  0.00    +0.000 OA
ATOM     33  H   UNL     1       6.074  -5.399  12.705  0.00  0.00    +0.000 HD
ENDBRANCH  16  32
BRANCH  28  34
ATOM     34  O   UNL     1       4.734 -18.433  14.214  0.00  0.00    +0.000 OA
ATOM     35  H   UNL     1       4.803 -18.676  15.155  0.00  0.00    +0.000 HD
ENDBRANCH  28  34
TORSDOF 3
ENDMDL
MODEL 7
REMARK VINA RESULT:      -6.4      5.170      9.603
REMARK  Name = 14132199_RiccardinD.pdbqt.pdb
REMARK  3 active torsions:
REMARK  status: ('A' for Active; 'I' for Inactive)
REMARK    1  A    between atoms: C_11  and  O_30
REMARK    2  A    between atoms: C_16  and  O_32
REMARK    3  A    between atoms: C_28  and  O_34
REMARK                            x       y       z     vdW  Elec       q    Type
REMARK                         _______ _______ _______ _____ _____    ______ ____
ROOT
ATOM      1  O   UNL     1       6.451  -7.423  11.486  0.00  0.00    +0.000 OA
ATOM      2  C   UNL     1       3.705 -13.451  13.602  0.00  0.00    +0.000 C 
ATOM      3  C   UNL     1       3.695 -14.852  13.912  0.00  0.00    +0.000 A 
ATOM      4  C   UNL     1       4.834 -15.670  13.696  0.00  0.00    +0.000 A 
ATOM      5  C   UNL     1       3.889 -11.968  13.244  0.00  0.00    +0.000 C 
ATOM      6  C   UNL     1       8.950 -12.627  11.356  0.00  0.00    +0.000 C 
ATOM      7  C   UNL     1       6.037 -15.131  13.023  0.00  0.00    +0.000 A 
ATOM      8  C   UNL     1       8.137 -13.714  11.792  0.00  0.00    +0.000 A 
ATOM      9  C   UNL     1       9.376 -11.201  11.001  0.00  0.00    +0.000 C 
ATOM     10  C   UNL     1       4.269 -10.646  12.864  0.00  0.00    +0.000 A 
ATOM     11  C   UNL     1       7.279 -14.974  13.657  0.00  0.00    +0.000 A 
ATOM     12  C   UNL     1       9.228  -9.796  10.843  0.00  0.00    +0.000 A 
ATOM     13  C   UNL     1       5.922 -14.662  11.707  0.00  0.00    +0.000 A 
ATOM     14  C   UNL     1       8.317 -14.254  13.062  0.00  0.00    +0.000 A 
ATOM     15  C   UNL     1       6.954 -13.952  11.098  0.00  0.00    +0.000 A 
ATOM     16  C   UNL     1       4.753 -17.004  14.134  0.00  0.00    +0.000 A 
ATOM     17  C   UNL     1       2.533 -15.375  14.485  0.00  0.00    +0.000 A 
ATOM     18  C   UNL     1       3.585 -17.526  14.689  0.00  0.00    +0.000 A 
ATOM     19  C   UNL     1       2.470 -16.712  14.856  0.00  0.00    +0.000 A 
ATOM     20  C   UNL     1       7.990  -9.285  11.220  0.00  0.00    +0.000 A 
ATOM     21  C   UNL     1       4.138 -10.247  11.533  0.00  0.00    +0.000 A 
ATOM     22  C   UNL     1       4.963  -9.846  13.772  0.00  0.00    +0.000 A 
ATOM     23  C   UNL     1       7.684  -7.933  11.114  0.00  0.00    +0.000 A 
ATOM     24  C   UNL     1      10.202  -8.944  10.345  0.00  0.00    +0.000 A 
ATOM     25  C   UNL     1       5.561  -8.359  11.980  0.00  0.00    +0.000 A 
ATOM     26  C   UNL     1       4.777  -9.092  11.087  0.00  0.00    +0.000 A 
ATOM     27  C   UNL     1       5.605  -8.689  13.334  0.00  0.00    +0.000 A 
ATOM     28  C   UNL     1       8.661  -7.081  10.615  0.00  0.00    +0.000 A 
ATOM     29  C   UNL     1       9.912  -7.578  10.232  0.00  0.00    +0.000 A 
ENDROOT
BRANCH  11  30
ATOM     30  O   UNL     1       7.474 -15.524  14.896  0.00  0.00    +0.000 OA
ATOM     31  H   UNL     1       7.058 -14.938  15.557  0.00  0.00    +0.000 HD
ENDBRANCH  11  30
BRANCH  16  32
ATOM     32  O   UNL     1       5.818 -17.864  14.063  0.00  0.00    +0.000 OA
ATOM     33  H   UNL     1       6.455 -17.580  14.746  0.00  0.00    +0.000 HD
ENDBRANCH  16  32
BRANCH  28  34
ATOM     34  O   UNL     1       8.434  -5.740  10.482  0.00  0.00    +0.000 OA
ATOM     35  H   UNL     1       7.495  -5.583  10.687  0.00  0.00    +0.000 HD
ENDBRANCH  28  34
TORSDOF 3
ENDMDL
MODEL 8
REMARK VINA RESULT:      -6.4     22.940     26.070
REMARK  Name = 14132199_RiccardinD.pdbqt.pdb
REMARK  3 active torsions:
REMARK  status: ('A' for Active; 'I' for Inactive)
REMARK    1  A    between atoms: C_11  and  O_30
REMARK    2  A    between atoms: C_16  and  O_32
REMARK    3  A    between atoms: C_28  and  O_34
REMARK                            x       y       z     vdW  Elec       q    Type
REMARK                         _______ _______ _______ _____ _____    ______ ____
ROOT
ATOM      1  O   UNL     1     -18.186 -14.254  12.201  0.00  0.00    +0.000 OA
ATOM      2  C   UNL     1     -12.725 -16.171   8.345  0.00  0.00    +0.000 C 
ATOM      3  C   UNL     1     -11.481 -16.829   8.067  0.00  0.00    +0.000 A 
ATOM      4  C   UNL     1     -10.782 -17.552   9.069  0.00  0.00    +0.000 A 
ATOM      5  C   UNL     1     -14.055 -15.548   8.800  0.00  0.00    +0.000 C 
ATOM      6  C   UNL     1     -13.507 -17.137  13.975  0.00  0.00    +0.000 C 
ATOM      7  C   UNL     1     -11.248 -17.545  10.473  0.00  0.00    +0.000 A 
ATOM      8  C   UNL     1     -12.500 -17.346  12.988  0.00  0.00    +0.000 A 
ATOM      9  C   UNL     1     -14.814 -16.669  14.621  0.00  0.00    +0.000 C 
ATOM     10  C   UNL     1     -15.249 -15.068   9.415  0.00  0.00    +0.000 A 
ATOM     11  C   UNL     1     -11.730 -18.682  11.138  0.00  0.00    +0.000 A 
ATOM     12  C   UNL     1     -16.086 -16.038  14.683  0.00  0.00    +0.000 A 
ATOM     13  C   UNL     1     -11.304 -16.325  11.162  0.00  0.00    +0.000 A 
ATOM     14  C   UNL     1     -12.372 -18.588  12.375  0.00  0.00    +0.000 A 
ATOM     15  C   UNL     1     -11.930 -16.220  12.400  0.00  0.00    +0.000 A 
ATOM     16  C   UNL     1      -9.629 -18.249   8.664  0.00  0.00    +0.000 A 
ATOM     17  C   UNL     1     -11.007 -16.777   6.754  0.00  0.00    +0.000 A 
ATOM     18  C   UNL     1      -9.149 -18.177   7.356  0.00  0.00    +0.000 A 
ATOM     19  C   UNL     1      -9.834 -17.433   6.403  0.00  0.00    +0.000 A 
ATOM     20  C   UNL     1     -16.528 -15.479  13.489  0.00  0.00    +0.000 A 
ATOM     21  C   UNL     1     -15.233 -13.849  10.094  0.00  0.00    +0.000 A 
ATOM     22  C   UNL     1     -16.354 -15.914   9.518  0.00  0.00    +0.000 A 
ATOM     23  C   UNL     1     -17.745 -14.815  13.389  0.00  0.00    +0.000 A 
ATOM     24  C   UNL     1     -16.872 -15.943  15.821  0.00  0.00    +0.000 A 
ATOM     25  C   UNL     1     -17.328 -14.418  11.129  0.00  0.00    +0.000 A 
ATOM     26  C   UNL     1     -16.281 -13.513  10.948  0.00  0.00    +0.000 A 
ATOM     27  C   UNL     1     -17.407 -15.586  10.369  0.00  0.00    +0.000 A 
ATOM     28  C   UNL     1     -18.532 -14.720  14.530  0.00  0.00    +0.000 A 
ATOM     29  C   UNL     1     -18.103 -15.279  15.739  0.00  0.00    +0.000 A 
ENDROOT
BRANCH  11  30
ATOM     30  O   UNL     1     -11.585 -19.913  10.554  0.00  0.00    +0.000 OA
ATOM     31  H   UNL     1     -11.347 -20.554  11.251  0.00  0.00    +0.000 HD
ENDBRANCH  11  30
BRANCH  16  32
ATOM     32  O   UNL     1      -8.922 -19.052   9.519  0.00  0.00    +0.000 OA
ATOM     33  H   UNL     1      -9.117 -18.741  10.423  0.00  0.00    +0.000 HD
ENDBRANCH  16  32
BRANCH  28  34
ATOM     34  O   UNL     1     -19.741 -14.083  14.509  0.00  0.00    +0.000 OA
ATOM     35  H   UNL     1     -20.395 -14.715  14.159  0.00  0.00    +0.000 HD
ENDBRANCH  28  34
TORSDOF 3
ENDMDL
MODEL 9
REMARK VINA RESULT:      -6.3     24.613     27.888
REMARK  Name = 14132199_RiccardinD.pdbqt.pdb
REMARK  3 active torsions:
REMARK  status: ('A' for Active; 'I' for Inactive)
REMARK    1  A    between atoms: C_11  and  O_30
REMARK    2  A    between atoms: C_16  and  O_32
REMARK    3  A    between atoms: C_28  and  O_34
REMARK                            x       y       z     vdW  Elec       q    Type
REMARK                         _______ _______ _______ _____ _____    ______ ____
ROOT
ATOM      1  O   UNL     1     -11.942 -14.405  29.536  0.00  0.00    +0.000 OA
ATOM      2  C   UNL     1      -8.437  -8.414  29.099  0.00  0.00    +0.000 C 
ATOM      3  C   UNL     1      -8.169  -7.081  28.642  0.00  0.00    +0.000 A 
ATOM      4  C   UNL     1      -8.991  -6.446  27.675  0.00  0.00    +0.000 A 
ATOM      5  C   UNL     1      -8.878  -9.831  29.500  0.00  0.00    +0.000 C 
ATOM      6  C   UNL     1     -13.012  -9.993  25.966  0.00  0.00    +0.000 C 
ATOM      7  C   UNL     1     -10.085  -7.186  27.007  0.00  0.00    +0.000 A 
ATOM      8  C   UNL     1     -12.095  -8.904  26.038  0.00  0.00    +0.000 A 
ATOM      9  C   UNL     1     -13.667 -11.345  26.260  0.00  0.00    +0.000 C 
ATOM     10  C   UNL     1      -9.458 -11.112  29.737  0.00  0.00    +0.000 A 
ATOM     11  C   UNL     1     -11.444  -6.882  27.173  0.00  0.00    +0.000 A 
ATOM     12  C   UNL     1     -13.825 -12.608  26.893  0.00  0.00    +0.000 A 
ATOM     13  C   UNL     1      -9.767  -8.313  26.236  0.00  0.00    +0.000 A 
ATOM     14  C   UNL     1     -12.446  -7.740  26.715  0.00  0.00    +0.000 A 
ATOM     15  C   UNL     1     -10.757  -9.170  25.763  0.00  0.00    +0.000 A 
ATOM     16  C   UNL     1      -8.703  -5.101  27.377  0.00  0.00    +0.000 A 
ATOM     17  C   UNL     1      -7.093  -6.407  29.225  0.00  0.00    +0.000 A 
ATOM     18  C   UNL     1      -7.616  -4.440  27.948  0.00  0.00    +0.000 A 
ATOM     19  C   UNL     1      -6.805  -5.096  28.865  0.00  0.00    +0.000 A 
ATOM     20  C   UNL     1     -12.877 -12.905  27.867  0.00  0.00    +0.000 A 
ATOM     21  C   UNL     1      -9.105 -12.190  28.924  0.00  0.00    +0.000 A 
ATOM     22  C   UNL     1     -10.524 -11.226  30.631  0.00  0.00    +0.000 A 
ATOM     23  C   UNL     1     -12.887 -14.105  28.568  0.00  0.00    +0.000 A 
ATOM     24  C   UNL     1     -14.822 -13.525  26.600  0.00  0.00    +0.000 A 
ATOM     25  C   UNL     1     -11.003 -13.413  29.754  0.00  0.00    +0.000 A 
ATOM     26  C   UNL     1      -9.872 -13.353  28.938  0.00  0.00    +0.000 A 
ATOM     27  C   UNL     1     -11.297 -12.386  30.651  0.00  0.00    +0.000 A 
ATOM     28  C   UNL     1     -13.887 -15.024  28.272  0.00  0.00    +0.000 A 
ATOM     29  C   UNL     1     -14.850 -14.740  27.297  0.00  0.00    +0.000 A 
ENDROOT
BRANCH  11  30
ATOM     30  O   UNL     1     -11.800  -5.725  27.816  0.00  0.00    +0.000 OA
ATOM     31  H   UNL     1     -12.635  -5.888  28.295  0.00  0.00    +0.000 HD
ENDBRANCH  11  30
BRANCH  16  32
ATOM     32  O   UNL     1      -9.480  -4.357  26.529  0.00  0.00    +0.000 OA
ATOM     33  H   UNL     1      -9.986  -3.735  27.085  0.00  0.00    +0.000 HD
ENDBRANCH  16  32
BRANCH  28  34
ATOM     34  O   UNL     1     -13.962 -16.225  28.919  0.00  0.00    +0.000 OA
ATOM     35  H   UNL     1     -14.659 -16.147  29.596  0.00  0.00    +0.000 HD
ENDBRANCH  28  34
TORSDOF 3
ENDMDL
