MODEL 1
REMARK VINA RESULT:      -4.4      0.000      0.000
REMARK  Name = 146026348_FluorouracilMononitrate.pdbqt.pdb
REMARK  2 active torsions:
REMARK  status: ('A' for Active; 'I' for Inactive)
REMARK    1  A    between atoms: N_4  and  O_10
REMARK    2  A    between atoms: O_10  and  N_13
REMARK                            x       y       z     vdW  Elec       q    Type
REMARK                         _______ _______ _______ _____ _____    ______ ____
ROOT
ATOM      1  F   UNL     1       6.720  -3.154  10.660  0.00  0.00    +0.000 F 
ATOM      2  O   UNL     1       8.166  -5.476  11.234  0.00  0.00    +0.000 OA
ATOM      3  O   UNL     1       5.620  -7.621   7.948  0.00  0.00    +0.000 OA
ATOM      4  N   UNL     1       6.810  -6.629   9.715  0.00  0.00    +0.000 N 
ATOM      5  N   UNL     1       6.416  -4.350  10.131  0.00  0.00    +0.000 N 
ATOM      6  C   UNL     1       7.221  -5.483  10.450  0.00  0.00    +0.000 A 
ATOM      7  C   UNL     1       5.866  -6.682   8.687  0.00  0.00    +0.000 A 
ATOM      8  C   UNL     1       5.200  -5.407   8.548  0.00  0.00    +0.000 A 
ATOM      9  C   UNL     1       5.463  -4.431   9.183  0.00  0.00    +0.000 A 
ENDROOT
BRANCH   4  10
ATOM     10  O   UNL     1       7.601  -7.779   9.890  0.00  0.00    +0.000 OA
BRANCH  10  13
ATOM     11  O   UNL     1       6.666  -8.420  11.832  0.00  0.00    +0.000 OA
ATOM     12  O   UNL     1       6.911  -9.869  10.147  0.00  0.00    +0.000 OA
ATOM     13  N   UNL     1       7.007  -8.777  10.702  0.00  0.00    +0.000 N 
ENDBRANCH  10  13
ENDBRANCH   4  10
TORSDOF 2
ENDMDL
MODEL 2
REMARK VINA RESULT:      -4.0     15.546     16.481
REMARK  Name = 146026348_FluorouracilMononitrate.pdbqt.pdb
REMARK  2 active torsions:
REMARK  status: ('A' for Active; 'I' for Inactive)
REMARK    1  A    between atoms: N_4  and  O_10
REMARK    2  A    between atoms: O_10  and  N_13
REMARK                            x       y       z     vdW  Elec       q    Type
REMARK                         _______ _______ _______ _____ _____    ______ ____
ROOT
ATOM      1  F   UNL     1      -2.619  -3.535  -3.507  0.00  0.00    +0.000 F 
ATOM      2  O   UNL     1      -3.812  -1.495  -2.017  0.00  0.00    +0.000 OA
ATOM      3  O   UNL     1      -5.265  -4.802   0.954  0.00  0.00    +0.000 OA
ATOM      4  N   UNL     1      -4.695  -3.128  -0.592  0.00  0.00    +0.000 N 
ATOM      5  N   UNL     1      -3.418  -3.775  -2.457  0.00  0.00    +0.000 N 
ATOM      6  C   UNL     1      -3.966  -2.678  -1.728  0.00  0.00    +0.000 A 
ATOM      7  C   UNL     1      -4.775  -4.432  -0.100  0.00  0.00    +0.000 A 
ATOM      8  C   UNL     1      -4.131  -5.353  -1.007  0.00  0.00    +0.000 A 
ATOM      9  C   UNL     1      -3.560  -5.036  -2.006  0.00  0.00    +0.000 A 
ENDROOT
BRANCH   4  10
ATOM     10  O   UNL     1      -5.199  -2.117   0.246  0.00  0.00    +0.000 OA
BRANCH  10  13
ATOM     11  O   UNL     1      -7.133  -1.327   1.078  0.00  0.00    +0.000 OA
ATOM     12  O   UNL     1      -7.070  -2.326  -0.921  0.00  0.00    +0.000 OA
ATOM     13  N   UNL     1      -6.595  -1.904   0.130  0.00  0.00    +0.000 N 
ENDBRANCH  10  13
ENDBRANCH   4  10
TORSDOF 2
ENDMDL
MODEL 3
REMARK VINA RESULT:      -3.6      1.658      1.776
REMARK  Name = 146026348_FluorouracilMononitrate.pdbqt.pdb
REMARK  2 active torsions:
REMARK  status: ('A' for Active; 'I' for Inactive)
REMARK    1  A    between atoms: N_4  and  O_10
REMARK    2  A    between atoms: O_10  and  N_13
REMARK                            x       y       z     vdW  Elec       q    Type
REMARK                         _______ _______ _______ _____ _____    ______ ____
ROOT
ATOM      1  F   UNL     1       6.527  -1.942  10.191  0.00  0.00    +0.000 F 
ATOM      2  O   UNL     1       8.817  -3.537  10.352  0.00  0.00    +0.000 OA
ATOM      3  O   UNL     1       6.375  -6.894   8.197  0.00  0.00    +0.000 OA
ATOM      4  N   UNL     1       7.588  -5.298   9.423  0.00  0.00    +0.000 N 
ATOM      5  N   UNL     1       6.536  -3.239   9.846  0.00  0.00    +0.000 N 
ATOM      6  C   UNL     1       7.752  -3.978   9.929  0.00  0.00    +0.000 A 
ATOM      7  C   UNL     1       6.469  -5.821   8.771  0.00  0.00    +0.000 A 
ATOM      8  C   UNL     1       5.378  -4.876   8.806  0.00  0.00    +0.000 A 
ATOM      9  C   UNL     1       5.443  -3.780   9.274  0.00  0.00    +0.000 A 
ENDROOT
BRANCH   4  10
ATOM     10  O   UNL     1       8.756  -6.080   9.375  0.00  0.00    +0.000 OA
BRANCH  10  13
ATOM     11  O   UNL     1       8.573  -6.766  11.509  0.00  0.00    +0.000 OA
ATOM     12  O   UNL     1       9.079  -8.214   9.881  0.00  0.00    +0.000 OA
ATOM     13  N   UNL     1       8.809  -7.109  10.347  0.00  0.00    +0.000 N 
ENDBRANCH  10  13
ENDBRANCH   4  10
TORSDOF 2
ENDMDL
MODEL 4
REMARK VINA RESULT:      -3.5     15.826     16.692
REMARK  Name = 146026348_FluorouracilMononitrate.pdbqt.pdb
REMARK  2 active torsions:
REMARK  status: ('A' for Active; 'I' for Inactive)
REMARK    1  A    between atoms: N_4  and  O_10
REMARK    2  A    between atoms: O_10  and  N_13
REMARK                            x       y       z     vdW  Elec       q    Type
REMARK                         _______ _______ _______ _____ _____    ______ ____
ROOT
ATOM      1  F   UNL     1      -4.099  -4.746  -5.250  0.00  0.00    +0.000 F 
ATOM      2  O   UNL     1      -3.287  -2.972  -3.249  0.00  0.00    +0.000 OA
ATOM      3  O   UNL     1      -4.636  -6.194  -0.139  0.00  0.00    +0.000 OA
ATOM      4  N   UNL     1      -4.096  -4.486  -1.657  0.00  0.00    +0.000 N 
ATOM      5  N   UNL     1      -4.326  -4.967  -3.946  0.00  0.00    +0.000 N 
ATOM      6  C   UNL     1      -3.855  -4.028  -2.983  0.00  0.00    +0.000 A 
ATOM      7  C   UNL     1      -4.575  -5.738  -1.269  0.00  0.00    +0.000 A 
ATOM      8  C   UNL     1      -4.970  -6.508  -2.425  0.00  0.00    +0.000 A 
ATOM      9  C   UNL     1      -4.848  -6.145  -3.556  0.00  0.00    +0.000 A 
ENDROOT
BRANCH   4  10
ATOM     10  O   UNL     1      -3.583  -3.671  -0.631  0.00  0.00    +0.000 OA
BRANCH  10  13
ATOM     11  O   UNL     1      -4.145  -1.496  -0.537  0.00  0.00    +0.000 OA
ATOM     12  O   UNL     1      -5.432  -3.052   0.424  0.00  0.00    +0.000 OA
ATOM     13  N   UNL     1      -4.462  -2.642  -0.210  0.00  0.00    +0.000 N 
ENDBRANCH  10  13
ENDBRANCH   4  10
TORSDOF 2
ENDMDL
MODEL 5
REMARK VINA RESULT:      -3.5     21.253     22.213
REMARK  Name = 146026348_FluorouracilMononitrate.pdbqt.pdb
REMARK  2 active torsions:
REMARK  status: ('A' for Active; 'I' for Inactive)
REMARK    1  A    between atoms: N_4  and  O_10
REMARK    2  A    between atoms: O_10  and  N_13
REMARK                            x       y       z     vdW  Elec       q    Type
REMARK                         _______ _______ _______ _____ _____    ______ ____
ROOT
ATOM      1  F   UNL     1     -15.169 -10.890   5.618  0.00  0.00    +0.000 F 
ATOM      2  O   UNL     1     -13.454  -8.811   6.356  0.00  0.00    +0.000 OA
ATOM      3  O   UNL     1     -15.200  -6.378   2.763  0.00  0.00    +0.000 OA
ATOM      4  N   UNL     1     -14.181  -7.620   4.477  0.00  0.00    +0.000 N 
ATOM      5  N   UNL     1     -15.009  -9.782   4.878  0.00  0.00    +0.000 N 
ATOM      6  C   UNL     1     -14.137  -8.753   5.337  0.00  0.00    +0.000 A 
ATOM      7  C   UNL     1     -15.048  -7.405   3.405  0.00  0.00    +0.000 A 
ATOM      8  C   UNL     1     -15.837  -8.587   3.150  0.00  0.00    +0.000 A 
ATOM      9  C   UNL     1     -15.794  -9.586   3.801  0.00  0.00    +0.000 A 
ENDROOT
BRANCH   4  10
ATOM     10  O   UNL     1     -13.423  -6.510   4.895  0.00  0.00    +0.000 OA
BRANCH  10  13
ATOM     11  O   UNL     1     -14.091  -4.365   4.982  0.00  0.00    +0.000 OA
ATOM     12  O   UNL     1     -14.842  -5.859   6.468  0.00  0.00    +0.000 OA
ATOM     13  N   UNL     1     -14.184  -5.480   5.502  0.00  0.00    +0.000 N 
ENDBRANCH  10  13
ENDBRANCH   4  10
TORSDOF 2
ENDMDL
MODEL 6
REMARK VINA RESULT:      -3.3     10.692     11.813
REMARK  Name = 146026348_FluorouracilMononitrate.pdbqt.pdb
REMARK  2 active torsions:
REMARK  status: ('A' for Active; 'I' for Inactive)
REMARK    1  A    between atoms: N_4  and  O_10
REMARK    2  A    between atoms: O_10  and  N_13
REMARK                            x       y       z     vdW  Elec       q    Type
REMARK                         _______ _______ _______ _____ _____    ______ ____
ROOT
ATOM      1  F   UNL     1       7.293  -2.238  21.581  0.00  0.00    +0.000 F 
ATOM      2  O   UNL     1       5.524  -1.024  19.790  0.00  0.00    +0.000 OA
ATOM      3  O   UNL     1       2.263  -4.010  21.315  0.00  0.00    +0.000 OA
ATOM      4  N   UNL     1       3.907  -2.601  20.405  0.00  0.00    +0.000 N 
ATOM      5  N   UNL     1       6.058  -2.708  21.347  0.00  0.00    +0.000 N 
ATOM      6  C   UNL     1       5.204  -2.015  20.440  0.00  0.00    +0.000 A 
ATOM      7  C   UNL     1       3.413  -3.612  21.231  0.00  0.00    +0.000 A 
ATOM      8  C   UNL     1       4.466  -4.139  22.068  0.00  0.00    +0.000 A 
ATOM      9  C   UNL     1       5.585  -3.727  22.091  0.00  0.00    +0.000 A 
ENDROOT
BRANCH   4  10
ATOM     10  O   UNL     1       2.960  -1.933  19.608  0.00  0.00    +0.000 OA
BRANCH  10  13
ATOM     11  O   UNL     1       2.988  -3.537  18.032  0.00  0.00    +0.000 OA
ATOM     12  O   UNL     1       2.941  -1.375  17.463  0.00  0.00    +0.000 OA
ATOM     13  N   UNL     1       2.967  -2.322  18.245  0.00  0.00    +0.000 N 
ENDBRANCH  10  13
ENDBRANCH   4  10
TORSDOF 2
ENDMDL
MODEL 7
REMARK VINA RESULT:      -3.2      6.133      7.374
REMARK  Name = 146026348_FluorouracilMononitrate.pdbqt.pdb
REMARK  2 active torsions:
REMARK  status: ('A' for Active; 'I' for Inactive)
REMARK    1  A    between atoms: N_4  and  O_10
REMARK    2  A    between atoms: O_10  and  N_13
REMARK                            x       y       z     vdW  Elec       q    Type
REMARK                         _______ _______ _______ _____ _____    ______ ____
ROOT
ATOM      1  F   UNL     1      10.716 -14.092  12.181  0.00  0.00    +0.000 F 
ATOM      2  O   UNL     1       8.095 -14.850  11.579  0.00  0.00    +0.000 OA
ATOM      3  O   UNL     1       7.370 -10.450  10.167  0.00  0.00    +0.000 OA
ATOM      4  N   UNL     1       7.641 -12.625  11.014  0.00  0.00    +0.000 N 
ATOM      5  N   UNL     1       9.773 -13.214  11.807  0.00  0.00    +0.000 N 
ATOM      6  C   UNL     1       8.465 -13.683  11.488  0.00  0.00    +0.000 A 
ATOM      7  C   UNL     1       8.029 -11.317  10.720  0.00  0.00    +0.000 A 
ATOM      8  C   UNL     1       9.399 -11.095  11.119  0.00  0.00    +0.000 A 
ATOM      9  C   UNL     1      10.115 -11.931  11.580  0.00  0.00    +0.000 A 
ENDROOT
BRANCH   4  10
ATOM     10  O   UNL     1       6.356 -13.002  10.583  0.00  0.00    +0.000 OA
BRANCH  10  13
ATOM     11  O   UNL     1       5.413 -12.255  12.484  0.00  0.00    +0.000 OA
ATOM     12  O   UNL     1       4.705 -14.146  11.521  0.00  0.00    +0.000 OA
ATOM     13  N   UNL     1       5.409 -13.144  11.628  0.00  0.00    +0.000 N 
ENDBRANCH  10  13
ENDBRANCH   4  10
TORSDOF 2
ENDMDL
MODEL 8
REMARK VINA RESULT:      -3.2     10.334     11.253
REMARK  Name = 146026348_FluorouracilMononitrate.pdbqt.pdb
REMARK  2 active torsions:
REMARK  status: ('A' for Active; 'I' for Inactive)
REMARK    1  A    between atoms: N_4  and  O_10
REMARK    2  A    between atoms: O_10  and  N_13
REMARK                            x       y       z     vdW  Elec       q    Type
REMARK                         _______ _______ _______ _____ _____    ______ ____
ROOT
ATOM      1  F   UNL     1       5.891   0.387  20.635  0.00  0.00    +0.000 F 
ATOM      2  O   UNL     1       3.616  -0.992  21.489  0.00  0.00    +0.000 OA
ATOM      3  O   UNL     1       4.056  -3.658  17.672  0.00  0.00    +0.000 OA
ATOM      4  N   UNL     1       3.702  -2.245  19.514  0.00  0.00    +0.000 N 
ATOM      5  N   UNL     1       5.282  -0.544  19.886  0.00  0.00    +0.000 N 
ATOM      6  C   UNL     1       4.142  -1.226  20.404  0.00  0.00    +0.000 A 
ATOM      7  C   UNL     1       4.339  -2.686  18.353  0.00  0.00    +0.000 A 
ATOM      8  C   UNL     1       5.474  -1.846  18.050  0.00  0.00    +0.000 A 
ATOM      9  C   UNL     1       5.847  -0.939  18.729  0.00  0.00    +0.000 A 
ENDROOT
BRANCH   4  10
ATOM     10  O   UNL     1       2.637  -3.038  19.978  0.00  0.00    +0.000 OA
BRANCH  10  13
ATOM     11  O   UNL     1       3.993  -4.630  20.805  0.00  0.00    +0.000 OA
ATOM     12  O   UNL     1       2.235  -3.901  21.979  0.00  0.00    +0.000 OA
ATOM     13  N   UNL     1       2.990  -3.942  21.010  0.00  0.00    +0.000 N 
ENDBRANCH  10  13
ENDBRANCH   4  10
TORSDOF 2
ENDMDL
MODEL 9
REMARK VINA RESULT:      -3.0     12.854     14.499
REMARK  Name = 146026348_FluorouracilMononitrate.pdbqt.pdb
REMARK  2 active torsions:
REMARK  status: ('A' for Active; 'I' for Inactive)
REMARK    1  A    between atoms: N_4  and  O_10
REMARK    2  A    between atoms: O_10  and  N_13
REMARK                            x       y       z     vdW  Elec       q    Type
REMARK                         _______ _______ _______ _____ _____    ______ ____
ROOT
ATOM      1  F   UNL     1       4.729   2.752   4.087  0.00  0.00    +0.000 F 
ATOM      2  O   UNL     1       4.235   5.074   2.613  0.00  0.00    +0.000 OA
ATOM      3  O   UNL     1       3.877   7.333   6.693  0.00  0.00    +0.000 OA
ATOM      4  N   UNL     1       3.888   6.212   4.629  0.00  0.00    +0.000 N 
ATOM      5  N   UNL     1       4.366   3.911   4.657  0.00  0.00    +0.000 N 
ATOM      6  C   UNL     1       4.161   5.061   3.839  0.00  0.00    +0.000 A 
ATOM      7  C   UNL     1       3.954   6.319   6.019  0.00  0.00    +0.000 A 
ATOM      8  C   UNL     1       4.189   5.024   6.614  0.00  0.00    +0.000 A 
ATOM      9  C   UNL     1       4.362   4.016   5.999  0.00  0.00    +0.000 A 
ENDROOT
BRANCH   4  10
ATOM     10  O   UNL     1       3.762   7.420   3.919  0.00  0.00    +0.000 OA
BRANCH  10  13
ATOM     11  O   UNL     1       1.746   7.161   2.956  0.00  0.00    +0.000 OA
ATOM     12  O   UNL     1       2.129   8.848   4.373  0.00  0.00    +0.000 OA
ATOM     13  N   UNL     1       2.424   7.846   3.726  0.00  0.00    +0.000 N 
ENDBRANCH  10  13
ENDBRANCH   4  10
TORSDOF 2
ENDMDL
