MODEL 1
REMARK VINA RESULT:      -6.5      0.000      0.000
REMARK  Name = 179268_Nortopsentin.pdbqt.pdb
REMARK  2 active torsions:
REMARK  status: ('A' for Active; 'I' for Inactive)
REMARK    1  A    between atoms: C_3  and  C_9
REMARK    2  A    between atoms: C_4  and  C_20
REMARK                            x       y       z     vdW  Elec       q    Type
REMARK                         _______ _______ _______ _____ _____    ______ ____
ROOT
ATOM      1  N   UNL     1      -1.220  -6.359  -2.328  0.00  0.00    +0.000 N 
ATOM      2  N   UNL     1      -2.508  -8.135  -2.047  0.00  0.00    +0.000 NA
ATOM      3  C   UNL     1      -2.471  -5.873  -2.066  0.00  0.00    +0.000 A 
ATOM      4  C   UNL     1      -1.283  -7.729  -2.309  0.00  0.00    +0.000 A 
ATOM      5  C   UNL     1      -3.255  -6.992  -1.895  0.00  0.00    +0.000 A 
ATOM      6  H   UNL     1      -0.388  -5.818  -2.507  0.00  0.00    +0.000 HD
ENDROOT
BRANCH   3   9
ATOM      7 BR   UNL     1      -6.645  -0.891   1.159  0.00  0.00    +0.000 Br
ATOM      8  N   UNL     1      -2.958  -2.288  -2.453  0.00  0.00    +0.000 N 
ATOM      9  C   UNL     1      -2.879  -4.456  -1.987  0.00  0.00    +0.000 A 
ATOM     10  C   UNL     1      -3.831  -3.852  -1.117  0.00  0.00    +0.000 A 
ATOM     11  C   UNL     1      -3.859  -2.489  -1.433  0.00  0.00    +0.000 A 
ATOM     12  C   UNL     1      -2.362  -3.470  -2.793  0.00  0.00    +0.000 A 
ATOM     13  C   UNL     1      -4.675  -4.319  -0.091  0.00  0.00    +0.000 A 
ATOM     14  C   UNL     1      -4.686  -1.571  -0.776  0.00  0.00    +0.000 A 
ATOM     15  C   UNL     1      -5.508  -3.421   0.578  0.00  0.00    +0.000 A 
ATOM     16  C   UNL     1      -5.506  -2.075   0.234  0.00  0.00    +0.000 A 
ATOM     17  H   UNL     1      -2.763  -1.396  -2.889  0.00  0.00    +0.000 HD
ENDBRANCH   3   9
BRANCH   4  20
ATOM     18 BR   UNL     1       1.638 -12.836  -6.540  0.00  0.00    +0.000 Br
ATOM     19  N   UNL     1       1.842  -9.617  -2.275  0.00  0.00    +0.000 N 
ATOM     20  C   UNL     1      -0.125  -8.627  -2.548  0.00  0.00    +0.000 A 
ATOM     21  C   UNL     1       0.049  -9.563  -3.605  0.00  0.00    +0.000 A 
ATOM     22  C   UNL     1       1.291 -10.170  -3.409  0.00  0.00    +0.000 A 
ATOM     23  C   UNL     1       0.992  -8.683  -1.746  0.00  0.00    +0.000 A 
ATOM     24  C   UNL     1      -0.727  -9.957  -4.714  0.00  0.00    +0.000 A 
ATOM     25  C   UNL     1       1.803 -11.151  -4.262  0.00  0.00    +0.000 A 
ATOM     26  C   UNL     1      -0.236 -10.937  -5.579  0.00  0.00    +0.000 A 
ATOM     27  C   UNL     1       1.005 -11.515  -5.349  0.00  0.00    +0.000 A 
ATOM     28  H   UNL     1       2.743  -9.867  -1.890  0.00  0.00    +0.000 HD
ENDBRANCH   4  20
TORSDOF 2
ENDMDL
MODEL 2
REMARK VINA RESULT:      -6.4     19.430     20.897
REMARK  Name = 179268_Nortopsentin.pdbqt.pdb
REMARK  2 active torsions:
REMARK  status: ('A' for Active; 'I' for Inactive)
REMARK    1  A    between atoms: C_3  and  C_9
REMARK    2  A    between atoms: C_4  and  C_20
REMARK                            x       y       z     vdW  Elec       q    Type
REMARK                         _______ _______ _______ _____ _____    ______ ____
ROOT
ATOM      1  N   UNL     1     -12.291 -16.200  11.717  0.00  0.00    +0.000 N 
ATOM      2  N   UNL     1     -13.412 -15.469   9.955  0.00  0.00    +0.000 NA
ATOM      3  C   UNL     1     -13.525 -15.840  12.184  0.00  0.00    +0.000 A 
ATOM      4  C   UNL     1     -12.261 -15.961  10.366  0.00  0.00    +0.000 A 
ATOM      5  C   UNL     1     -14.204 -15.389  11.075  0.00  0.00    +0.000 A 
ATOM      6  H   UNL     1     -11.527 -16.576  12.258  0.00  0.00    +0.000 HD
ENDROOT
BRANCH   3   9
ATOM      7 BR   UNL     1     -13.028 -19.107  18.644  0.00  0.00    +0.000 Br
ATOM      8  N   UNL     1     -15.191 -15.452  15.396  0.00  0.00    +0.000 N 
ATOM      9  C   UNL     1     -14.010 -15.922  13.577  0.00  0.00    +0.000 A 
ATOM     10  C   UNL     1     -13.591 -16.802  14.615  0.00  0.00    +0.000 A 
ATOM     11  C   UNL     1     -14.351 -16.484  15.745  0.00  0.00    +0.000 A 
ATOM     12  C   UNL     1     -14.991 -15.106  14.089  0.00  0.00    +0.000 A 
ATOM     13  C   UNL     1     -12.645 -17.841  14.714  0.00  0.00    +0.000 A 
ATOM     14  C   UNL     1     -14.213 -17.150  16.969  0.00  0.00    +0.000 A 
ATOM     15  C   UNL     1     -12.490 -18.517  15.924  0.00  0.00    +0.000 A 
ATOM     16  C   UNL     1     -13.264 -18.171  17.025  0.00  0.00    +0.000 A 
ATOM     17  H   UNL     1     -15.859 -15.012  16.014  0.00  0.00    +0.000 HD
ENDBRANCH   3   9
BRANCH   4  20
ATOM     18 BR   UNL     1      -7.288 -20.765   8.201  0.00  0.00    +0.000 Br
ATOM     19  N   UNL     1      -9.483 -15.893   7.999  0.00  0.00    +0.000 N 
ATOM     20  C   UNL     1     -11.091 -16.224   9.492  0.00  0.00    +0.000 A 
ATOM     21  C   UNL     1     -10.345 -17.430   9.372  0.00  0.00    +0.000 A 
ATOM     22  C   UNL     1      -9.342 -17.193   8.429  0.00  0.00    +0.000 A 
ATOM     23  C   UNL     1     -10.537 -15.298   8.637  0.00  0.00    +0.000 A 
ATOM     24  C   UNL     1     -10.422 -18.702   9.971  0.00  0.00    +0.000 A 
ATOM     25  C   UNL     1      -8.410 -18.163   8.051  0.00  0.00    +0.000 A 
ATOM     26  C   UNL     1      -9.499 -19.686   9.609  0.00  0.00    +0.000 A 
ATOM     27  C   UNL     1      -8.517 -19.412   8.667  0.00  0.00    +0.000 A 
ATOM     28  H   UNL     1      -8.891 -15.446   7.313  0.00  0.00    +0.000 HD
ENDBRANCH   4  20
TORSDOF 2
ENDMDL
MODEL 3
REMARK VINA RESULT:      -6.3     29.123     30.475
REMARK  Name = 179268_Nortopsentin.pdbqt.pdb
REMARK  2 active torsions:
REMARK  status: ('A' for Active; 'I' for Inactive)
REMARK    1  A    between atoms: C_3  and  C_9
REMARK    2  A    between atoms: C_4  and  C_20
REMARK                            x       y       z     vdW  Elec       q    Type
REMARK                         _______ _______ _______ _____ _____    ______ ____
ROOT
ATOM      1  N   UNL     1      -9.709  -1.937  26.249  0.00  0.00    +0.000 N 
ATOM      2  N   UNL     1      -9.066  -2.511  28.286  0.00  0.00    +0.000 NA
ATOM      3  C   UNL     1     -10.019  -0.873  27.050  0.00  0.00    +0.000 A 
ATOM      4  C   UNL     1      -9.135  -2.906  27.032  0.00  0.00    +0.000 A 
ATOM      5  C   UNL     1      -9.612  -1.251  28.310  0.00  0.00    +0.000 A 
ATOM      6  H   UNL     1      -9.868  -2.010  25.255  0.00  0.00    +0.000 HD
ENDROOT
BRANCH   3   9
ATOM      7 BR   UNL     1     -15.769   2.405  24.077  0.00  0.00    +0.000 Br
ATOM      8  N   UNL     1     -10.919   2.577  26.322  0.00  0.00    +0.000 N 
ATOM      9  C   UNL     1     -10.652   0.397  26.641  0.00  0.00    +0.000 A 
ATOM     10  C   UNL     1     -11.923   0.602  26.031  0.00  0.00    +0.000 A 
ATOM     11  C   UNL     1     -12.062   1.980  25.843  0.00  0.00    +0.000 A 
ATOM     12  C   UNL     1     -10.063   1.628  26.807  0.00  0.00    +0.000 A 
ATOM     13  C   UNL     1     -12.972  -0.241  25.617  0.00  0.00    +0.000 A 
ATOM     14  C   UNL     1     -13.197   2.560  25.262  0.00  0.00    +0.000 A 
ATOM     15  C   UNL     1     -14.113   0.315  25.036  0.00  0.00    +0.000 A 
ATOM     16  C   UNL     1     -14.213   1.690  24.866  0.00  0.00    +0.000 A 
ATOM     17  H   UNL     1     -10.737   3.571  26.319  0.00  0.00    +0.000 HD
ENDBRANCH   3   9
BRANCH   4  20
ATOM     18 BR   UNL     1     -10.130 -10.084  26.966  0.00  0.00    +0.000 Br
ATOM     19  N   UNL     1      -7.435  -5.722  25.447  0.00  0.00    +0.000 N 
ATOM     20  C   UNL     1      -8.658  -4.219  26.529  0.00  0.00    +0.000 A 
ATOM     21  C   UNL     1      -9.205  -5.506  26.792  0.00  0.00    +0.000 A 
ATOM     22  C   UNL     1      -8.418  -6.430  26.101  0.00  0.00    +0.000 A 
ATOM     23  C   UNL     1      -7.571  -4.384  25.700  0.00  0.00    +0.000 A 
ATOM     24  C   UNL     1     -10.294  -5.980  27.550  0.00  0.00    +0.000 A 
ATOM     25  C   UNL     1      -8.661  -7.806  26.127  0.00  0.00    +0.000 A 
ATOM     26  C   UNL     1     -10.554  -7.351  27.591  0.00  0.00    +0.000 A 
ATOM     27  C   UNL     1      -9.748  -8.238  26.889  0.00  0.00    +0.000 A 
ATOM     28  H   UNL     1      -6.718  -6.134  24.865  0.00  0.00    +0.000 HD
ENDBRANCH   4  20
TORSDOF 2
ENDMDL
MODEL 4
REMARK VINA RESULT:      -6.3     29.874     31.622
REMARK  Name = 179268_Nortopsentin.pdbqt.pdb
REMARK  2 active torsions:
REMARK  status: ('A' for Active; 'I' for Inactive)
REMARK    1  A    between atoms: C_3  and  C_9
REMARK    2  A    between atoms: C_4  and  C_20
REMARK                            x       y       z     vdW  Elec       q    Type
REMARK                         _______ _______ _______ _____ _____    ______ ____
ROOT
ATOM      1  N   UNL     1      -9.479  -3.691  26.729  0.00  0.00    +0.000 N 
ATOM      2  N   UNL     1      -9.740  -3.055  28.832  0.00  0.00    +0.000 NA
ATOM      3  C   UNL     1      -9.609  -4.844  27.453  0.00  0.00    +0.000 A 
ATOM      4  C   UNL     1      -9.563  -2.632  27.598  0.00  0.00    +0.000 A 
ATOM      5  C   UNL     1      -9.769  -4.426  28.755  0.00  0.00    +0.000 A 
ATOM      6  H   UNL     1      -9.345  -3.616  25.732  0.00  0.00    +0.000 HD
ENDROOT
BRANCH   3   9
ATOM      7 BR   UNL     1     -13.290 -10.967  26.192  0.00  0.00    +0.000 Br
ATOM      8  N   UNL     1      -8.783  -8.095  26.042  0.00  0.00    +0.000 N 
ATOM      9  C   UNL     1      -9.580  -6.227  26.939  0.00  0.00    +0.000 A 
ATOM     10  C   UNL     1     -10.641  -7.175  26.874  0.00  0.00    +0.000 A 
ATOM     11  C   UNL     1     -10.110  -8.338  26.307  0.00  0.00    +0.000 A 
ATOM     12  C   UNL     1      -8.454  -6.823  26.420  0.00  0.00    +0.000 A 
ATOM     13  C   UNL     1     -12.002  -7.168  27.240  0.00  0.00    +0.000 A 
ATOM     14  C   UNL     1     -10.869  -9.493  26.086  0.00  0.00    +0.000 A 
ATOM     15  C   UNL     1     -12.777  -8.309  27.028  0.00  0.00    +0.000 A 
ATOM     16  C   UNL     1     -12.212  -9.445  26.462  0.00  0.00    +0.000 A 
ATOM     17  H   UNL     1      -8.141  -8.758  25.628  0.00  0.00    +0.000 HD
ENDBRANCH   3   9
BRANCH   4  20
ATOM     18 BR   UNL     1     -13.072   3.182  25.067  0.00  0.00    +0.000 Br
ATOM     19  N   UNL     1      -8.608   0.800  26.797  0.00  0.00    +0.000 N 
ATOM     20  C   UNL     1      -9.470  -1.206  27.195  0.00  0.00    +0.000 A 
ATOM     21  C   UNL     1     -10.510  -0.367  26.707  0.00  0.00    +0.000 A 
ATOM     22  C   UNL     1      -9.941   0.885  26.466  0.00  0.00    +0.000 A 
ATOM     23  C   UNL     1      -8.313  -0.462  27.239  0.00  0.00    +0.000 A 
ATOM     24  C   UNL     1     -11.883  -0.546  26.447  0.00  0.00    +0.000 A 
ATOM     25  C   UNL     1     -10.672   1.972  25.976  0.00  0.00    +0.000 A 
ATOM     26  C   UNL     1     -12.632   0.526  25.956  0.00  0.00    +0.000 A 
ATOM     27  C   UNL     1     -12.028   1.756  25.729  0.00  0.00    +0.000 A 
ATOM     28  H   UNL     1      -7.945   1.560  26.724  0.00  0.00    +0.000 HD
ENDBRANCH   4  20
TORSDOF 2
ENDMDL
MODEL 5
REMARK VINA RESULT:      -6.3     19.356     21.076
REMARK  Name = 179268_Nortopsentin.pdbqt.pdb
REMARK  2 active torsions:
REMARK  status: ('A' for Active; 'I' for Inactive)
REMARK    1  A    between atoms: C_3  and  C_9
REMARK    2  A    between atoms: C_4  and  C_20
REMARK                            x       y       z     vdW  Elec       q    Type
REMARK                         _______ _______ _______ _____ _____    ______ ____
ROOT
ATOM      1  N   UNL     1     -12.625 -15.999  12.244  0.00  0.00    +0.000 N 
ATOM      2  N   UNL     1     -14.083 -15.831  10.589  0.00  0.00    +0.000 NA
ATOM      3  C   UNL     1     -13.860 -16.092  12.826  0.00  0.00    +0.000 A 
ATOM      4  C   UNL     1     -12.802 -15.842  10.893  0.00  0.00    +0.000 A 
ATOM      5  C   UNL     1     -14.750 -15.985  11.781  0.00  0.00    +0.000 A 
ATOM      6  H   UNL     1     -11.734 -16.038  12.714  0.00  0.00    +0.000 HD
ENDROOT
BRANCH   3   9
ATOM      7 BR   UNL     1     -12.311 -19.562  19.007  0.00  0.00    +0.000 Br
ATOM      8  N   UNL     1     -15.136 -15.969  16.231  0.00  0.00    +0.000 N 
ATOM      9  C   UNL     1     -14.159 -16.268  14.261  0.00  0.00    +0.000 A 
ATOM     10  C   UNL     1     -13.549 -17.152  15.195  0.00  0.00    +0.000 A 
ATOM     11  C   UNL     1     -14.183 -16.942  16.424  0.00  0.00    +0.000 A 
ATOM     12  C   UNL     1     -15.128 -15.556  14.929  0.00  0.00    +0.000 A 
ATOM     13  C   UNL     1     -12.521 -18.113  15.127  0.00  0.00    +0.000 A 
ATOM     14  C   UNL     1     -13.842 -17.642  17.587  0.00  0.00    +0.000 A 
ATOM     15  C   UNL     1     -12.165 -18.823  16.275  0.00  0.00    +0.000 A 
ATOM     16  C   UNL     1     -12.819 -18.584  17.477  0.00  0.00    +0.000 A 
ATOM     17  H   UNL     1     -15.752 -15.609  16.947  0.00  0.00    +0.000 HD
ENDBRANCH   3   9
BRANCH   4  20
ATOM     18 BR   UNL     1     -10.947 -15.300   3.909  0.00  0.00    +0.000 Br
ATOM     19  N   UNL     1      -9.645 -15.508   9.091  0.00  0.00    +0.000 N 
ATOM     20  C   UNL     1     -11.697 -15.705   9.912  0.00  0.00    +0.000 A 
ATOM     21  C   UNL     1     -11.793 -15.630   8.494  0.00  0.00    +0.000 A 
ATOM     22  C   UNL     1     -10.490 -15.507   8.006  0.00  0.00    +0.000 A 
ATOM     23  C   UNL     1     -10.365 -15.628  10.249  0.00  0.00    +0.000 A 
ATOM     24  C   UNL     1     -12.860 -15.653   7.574  0.00  0.00    +0.000 A 
ATOM     25  C   UNL     1     -10.195 -15.405   6.643  0.00  0.00    +0.000 A 
ATOM     26  C   UNL     1     -12.587 -15.554   6.208  0.00  0.00    +0.000 A 
ATOM     27  C   UNL     1     -11.278 -15.433   5.762  0.00  0.00    +0.000 A 
ATOM     28  H   UNL     1      -8.638 -15.432   9.038  0.00  0.00    +0.000 HD
ENDBRANCH   4  20
TORSDOF 2
ENDMDL
MODEL 6
REMARK VINA RESULT:      -6.2     29.170     31.720
REMARK  Name = 179268_Nortopsentin.pdbqt.pdb
REMARK  2 active torsions:
REMARK  status: ('A' for Active; 'I' for Inactive)
REMARK    1  A    between atoms: C_3  and  C_9
REMARK    2  A    between atoms: C_4  and  C_20
REMARK                            x       y       z     vdW  Elec       q    Type
REMARK                         _______ _______ _______ _____ _____    ______ ____
ROOT
ATOM      1  N   UNL     1     -11.303  -8.177  26.372  0.00  0.00    +0.000 N 
ATOM      2  N   UNL     1     -10.799 -10.217  27.063  0.00  0.00    +0.000 NA
ATOM      3  C   UNL     1      -9.947  -8.185  26.549  0.00  0.00    +0.000 A 
ATOM      4  C   UNL     1     -11.781  -9.423  26.693  0.00  0.00    +0.000 A 
ATOM      5  C   UNL     1      -9.655  -9.460  26.979  0.00  0.00    +0.000 A 
ATOM      6  H   UNL     1     -11.865  -7.401  26.060  0.00  0.00    +0.000 HD
ENDROOT
BRANCH   3   9
ATOM      7 BR   UNL     1      -8.268  -1.263  27.931  0.00  0.00    +0.000 Br
ATOM      8  N   UNL     1      -7.258  -5.944  25.553  0.00  0.00    +0.000 N 
ATOM      9  C   UNL     1      -9.011  -7.065  26.326  0.00  0.00    +0.000 A 
ATOM     10  C   UNL     1      -9.069  -5.740  26.846  0.00  0.00    +0.000 A 
ATOM     11  C   UNL     1      -7.955  -5.060  26.343  0.00  0.00    +0.000 A 
ATOM     12  C   UNL     1      -7.888  -7.157  25.538  0.00  0.00    +0.000 A 
ATOM     13  C   UNL     1      -9.953  -5.044  27.693  0.00  0.00    +0.000 A 
ATOM     14  C   UNL     1      -7.681  -3.721  26.644  0.00  0.00    +0.000 A 
ATOM     15  C   UNL     1      -9.698  -3.708  28.006  0.00  0.00    +0.000 A 
ATOM     16  C   UNL     1      -8.580  -3.068  27.486  0.00  0.00    +0.000 A 
ATOM     17  H   UNL     1      -6.404  -5.731  25.056  0.00  0.00    +0.000 HD
ENDBRANCH   3   9
BRANCH   4  20
ATOM     18 BR   UNL     1     -18.521  -8.128  29.018  0.00  0.00    +0.000 Br
ATOM     19  N   UNL     1     -15.052 -10.910  26.048  0.00  0.00    +0.000 N 
ATOM     20  C   UNL     1     -13.211  -9.815  26.627  0.00  0.00    +0.000 A 
ATOM     21  C   UNL     1     -14.308  -9.231  27.319  0.00  0.00    +0.000 A 
ATOM     22  C   UNL     1     -15.451  -9.938  26.937  0.00  0.00    +0.000 A 
ATOM     23  C   UNL     1     -13.698 -10.845  25.854  0.00  0.00    +0.000 A 
ATOM     24  C   UNL     1     -14.447  -8.169  28.234  0.00  0.00    +0.000 A 
ATOM     25  C   UNL     1     -16.728  -9.640  27.421  0.00  0.00    +0.000 A 
ATOM     26  C   UNL     1     -15.713  -7.855  28.731  0.00  0.00    +0.000 A 
ATOM     27  C   UNL     1     -16.825  -8.582  28.326  0.00  0.00    +0.000 A 
ATOM     28  H   UNL     1     -15.671 -11.575  25.604  0.00  0.00    +0.000 HD
ENDBRANCH   4  20
TORSDOF 2
ENDMDL
MODEL 7
REMARK VINA RESULT:      -6.1     15.570     18.932
REMARK  Name = 179268_Nortopsentin.pdbqt.pdb
REMARK  2 active torsions:
REMARK  status: ('A' for Active; 'I' for Inactive)
REMARK    1  A    between atoms: C_3  and  C_9
REMARK    2  A    between atoms: C_4  and  C_20
REMARK                            x       y       z     vdW  Elec       q    Type
REMARK                         _______ _______ _______ _____ _____    ______ ____
ROOT
ATOM      1  N   UNL     1       6.590 -10.754  11.939  0.00  0.00    +0.000 N 
ATOM      2  N   UNL     1       4.386 -10.588  12.034  0.00  0.00    +0.000 NA
ATOM      3  C   UNL     1       6.115 -12.028  11.799  0.00  0.00    +0.000 A 
ATOM      4  C   UNL     1       5.515  -9.912  12.080  0.00  0.00    +0.000 A 
ATOM      5  C   UNL     1       4.745 -11.902  11.861  0.00  0.00    +0.000 A 
ATOM      6  H   UNL     1       7.557 -10.468  11.942  0.00  0.00    +0.000 HD
ENDROOT
BRANCH   3   9
ATOM      7 BR   UNL     1      12.641 -15.188  12.080  0.00  0.00    +0.000 Br
ATOM      8  N   UNL     1       7.376 -15.383  11.166  0.00  0.00    +0.000 N 
ATOM      9  C   UNL     1       6.908 -13.261  11.620  0.00  0.00    +0.000 A 
ATOM     10  C   UNL     1       8.307 -13.454  11.802  0.00  0.00    +0.000 A 
ATOM     11  C   UNL     1       8.571 -14.796  11.509  0.00  0.00    +0.000 A 
ATOM     12  C   UNL     1       6.366 -14.464  11.230  0.00  0.00    +0.000 A 
ATOM     13  C   UNL     1       9.381 -12.627  12.185  0.00  0.00    +0.000 A 
ATOM     14  C   UNL     1       9.853 -15.353  11.580  0.00  0.00    +0.000 A 
ATOM     15  C   UNL     1      10.667 -13.162  12.263  0.00  0.00    +0.000 A 
ATOM     16  C   UNL     1      10.889 -14.501  11.964  0.00  0.00    +0.000 A 
ATOM     17  H   UNL     1       7.258 -16.352  10.904  0.00  0.00    +0.000 HD
ENDBRANCH   3   9
BRANCH   4  20
ATOM     18 BR   UNL     1       6.059  -3.454   8.838  0.00  0.00    +0.000 Br
ATOM     19  N   UNL     1       5.736  -6.461  13.249  0.00  0.00    +0.000 N 
ATOM     20  C   UNL     1       5.618  -8.442  12.256  0.00  0.00    +0.000 A 
ATOM     21  C   UNL     1       5.714  -7.447  11.244  0.00  0.00    +0.000 A 
ATOM     22  C   UNL     1       5.787  -6.213  11.896  0.00  0.00    +0.000 A 
ATOM     23  C   UNL     1       5.634  -7.806  13.477  0.00  0.00    +0.000 A 
ATOM     24  C   UNL     1       5.746  -7.469   9.836  0.00  0.00    +0.000 A 
ATOM     25  C   UNL     1       5.891  -4.997  11.213  0.00  0.00    +0.000 A 
ATOM     26  C   UNL     1       5.850  -6.266   9.135  0.00  0.00    +0.000 A 
ATOM     27  C   UNL     1       5.920  -5.060   9.819  0.00  0.00    +0.000 A 
ATOM     28  H   UNL     1       5.770  -5.750  13.967  0.00  0.00    +0.000 HD
ENDBRANCH   4  20
TORSDOF 2
ENDMDL
MODEL 8
REMARK VINA RESULT:      -6.0      2.002      9.294
REMARK  Name = 179268_Nortopsentin.pdbqt.pdb
REMARK  2 active torsions:
REMARK  status: ('A' for Active; 'I' for Inactive)
REMARK    1  A    between atoms: C_3  and  C_9
REMARK    2  A    between atoms: C_4  and  C_20
REMARK                            x       y       z     vdW  Elec       q    Type
REMARK                         _______ _______ _______ _____ _____    ______ ____
ROOT
ATOM      1  N   UNL     1      -3.628  -7.014  -3.174  0.00  0.00    +0.000 N 
ATOM      2  N   UNL     1      -3.974  -7.084  -0.990  0.00  0.00    +0.000 NA
ATOM      3  C   UNL     1      -2.976  -8.131  -2.730  0.00  0.00    +0.000 A 
ATOM      4  C   UNL     1      -4.219  -6.409  -2.093  0.00  0.00    +0.000 A 
ATOM      5  C   UNL     1      -3.203  -8.155  -1.372  0.00  0.00    +0.000 A 
ATOM      6  H   UNL     1      -3.676  -6.682  -4.125  0.00  0.00    +0.000 HD
ENDROOT
BRANCH   3   9
ATOM      7 BR   UNL     1       3.473 -11.166  -4.090  0.00  0.00    +0.000 Br
ATOM      8  N   UNL     1      -1.756 -10.632  -5.074  0.00  0.00    +0.000 N 
ATOM      9  C   UNL     1      -2.200  -9.092  -3.539  0.00  0.00    +0.000 A 
ATOM     10  C   UNL     1      -0.813  -9.404  -3.463  0.00  0.00    +0.000 A 
ATOM     11  C   UNL     1      -0.563 -10.374  -4.439  0.00  0.00    +0.000 A 
ATOM     12  C   UNL     1      -2.749  -9.862  -4.537  0.00  0.00    +0.000 A 
ATOM     13  C   UNL     1       0.261  -8.964  -2.665  0.00  0.00    +0.000 A 
ATOM     14  C   UNL     1       0.704 -10.926  -4.658  0.00  0.00    +0.000 A 
ATOM     15  C   UNL     1       1.533  -9.501  -2.866  0.00  0.00    +0.000 A 
ATOM     16  C   UNL     1       1.740 -10.463  -3.847  0.00  0.00    +0.000 A 
ATOM     17  H   UNL     1      -1.881 -11.294  -5.829  0.00  0.00    +0.000 HD
ENDBRANCH   3   9
BRANCH   4  20
ATOM     18 BR   UNL     1      -6.801  -0.663   1.488  0.00  0.00    +0.000 Br
ATOM     19  N   UNL     1      -6.285  -3.536  -2.992  0.00  0.00    +0.000 N 
ATOM     20  C   UNL     1      -5.023  -5.163  -2.164  0.00  0.00    +0.000 A 
ATOM     21  C   UNL     1      -5.300  -4.243  -1.116  0.00  0.00    +0.000 A 
ATOM     22  C   UNL     1      -6.094  -3.232  -1.663  0.00  0.00    +0.000 A 
ATOM     23  C   UNL     1      -5.642  -4.703  -3.305  0.00  0.00    +0.000 A 
ATOM     24  C   UNL     1      -4.955  -4.165   0.248  0.00  0.00    +0.000 A 
ATOM     25  C   UNL     1      -6.563  -2.145  -0.919  0.00  0.00    +0.000 A 
ATOM     26  C   UNL     1      -5.413  -3.089   1.010  0.00  0.00    +0.000 A 
ATOM     27  C   UNL     1      -6.200  -2.104   0.428  0.00  0.00    +0.000 A 
ATOM     28  H   UNL     1      -6.823  -2.977  -3.640  0.00  0.00    +0.000 HD
ENDBRANCH   4  20
TORSDOF 2
ENDMDL
MODEL 9
REMARK VINA RESULT:      -6.0     29.389     32.036
REMARK  Name = 179268_Nortopsentin.pdbqt.pdb
REMARK  2 active torsions:
REMARK  status: ('A' for Active; 'I' for Inactive)
REMARK    1  A    between atoms: C_3  and  C_9
REMARK    2  A    between atoms: C_4  and  C_20
REMARK                            x       y       z     vdW  Elec       q    Type
REMARK                         _______ _______ _______ _____ _____    ______ ____
ROOT
ATOM      1  N   UNL     1     -12.767  -8.499  27.134  0.00  0.00    +0.000 N 
ATOM      2  N   UNL     1     -11.687  -8.433  29.063  0.00  0.00    +0.000 NA
ATOM      3  C   UNL     1     -13.680  -8.865  28.083  0.00  0.00    +0.000 A 
ATOM      4  C   UNL     1     -11.575  -8.247  27.765  0.00  0.00    +0.000 A 
ATOM      5  C   UNL     1     -12.990  -8.818  29.273  0.00  0.00    +0.000 A 
ATOM      6  H   UNL     1     -12.927  -8.424  26.141  0.00  0.00    +0.000 HD
ENDROOT
BRANCH   3   9
ATOM      7 BR   UNL     1     -18.421 -13.273  24.806  0.00  0.00    +0.000 Br
ATOM      8  N   UNL     1     -17.307  -9.162  28.038  0.00  0.00    +0.000 N 
ATOM      9  C   UNL     1     -15.095  -9.229  27.867  0.00  0.00    +0.000 A 
ATOM     10  C   UNL     1     -15.633 -10.272  27.060  0.00  0.00    +0.000 A 
ATOM     11  C   UNL     1     -17.024 -10.205  27.188  0.00  0.00    +0.000 A 
ATOM     12  C   UNL     1     -16.149  -8.567  28.453  0.00  0.00    +0.000 A 
ATOM     13  C   UNL     1     -15.083 -11.270  26.232  0.00  0.00    +0.000 A 
ATOM     14  C   UNL     1     -17.893 -11.084  26.530  0.00  0.00    +0.000 A 
ATOM     15  C   UNL     1     -15.930 -12.157  25.567  0.00  0.00    +0.000 A 
ATOM     16  C   UNL     1     -17.307 -12.057  25.720  0.00  0.00    +0.000 A 
ATOM     17  H   UNL     1     -18.236  -8.875  28.318  0.00  0.00    +0.000 HD
ENDBRANCH   3   9
BRANCH   4  20
ATOM     18 BR   UNL     1      -7.157  -2.747  26.109  0.00  0.00    +0.000 Br
ATOM     19  N   UNL     1      -8.463  -7.928  25.883  0.00  0.00    +0.000 N 
ATOM     20  C   UNL     1     -10.333  -7.821  27.073  0.00  0.00    +0.000 A 
ATOM     21  C   UNL     1      -9.784  -6.510  26.994  0.00  0.00    +0.000 A 
ATOM     22  C   UNL     1      -8.611  -6.607  26.241  0.00  0.00    +0.000 A 
ATOM     23  C   UNL     1      -9.499  -8.670  26.381  0.00  0.00    +0.000 A 
ATOM     24  C   UNL     1     -10.167  -5.248  27.487  0.00  0.00    +0.000 A 
ATOM     25  C   UNL     1      -7.798  -5.507  25.955  0.00  0.00    +0.000 A 
ATOM     26  C   UNL     1      -9.370  -4.135  27.212  0.00  0.00    +0.000 A 
ATOM     27  C   UNL     1      -8.210  -4.273  26.460  0.00  0.00    +0.000 A 
ATOM     28  H   UNL     1      -7.698  -8.294  25.332  0.00  0.00    +0.000 HD
ENDBRANCH   4  20
TORSDOF 2
ENDMDL
