MODEL 1
REMARK VINA RESULT:      -4.0      0.000      0.000
REMARK  Name = 21574552_Mertensene.pdbqt.pdb
REMARK  1 active torsions:
REMARK  status: ('A' for Active; 'I' for Inactive)
REMARK    1  A    between atoms: C_4  and  C_13
REMARK                            x       y       z     vdW  Elec       q    Type
REMARK                         _______ _______ _______ _____ _____    ______ ____
ROOT
ATOM      1 BR   UNL     1     -10.224   9.275   4.925  0.00  0.00    +0.000 Br
ATOM      2 CL   UNL     1      -8.461   5.205   8.886  0.00  0.00    +0.000 Cl
ATOM      3 CL   UNL     1      -6.380   7.878   8.530  0.00  0.00    +0.000 Cl
ATOM      4  C   UNL     1      -9.763   6.370   5.457  0.00  0.00    +0.000 C 
ATOM      5  C   UNL     1      -8.879   5.614   6.350  0.00  0.00    +0.000 C 
ATOM      6  C   UNL     1      -7.790   5.718   7.318  0.00  0.00    +0.000 C 
ATOM      7  C   UNL     1      -9.290   7.838   5.611  0.00  0.00    +0.000 C 
ATOM      8  C   UNL     1      -7.410   7.205   7.342  0.00  0.00    +0.000 C 
ATOM      9  C   UNL     1      -8.205   8.049   6.512  0.00  0.00    +0.000 C 
ATOM     10  C   UNL     1      -9.554   5.917   3.995  0.00  0.00    +0.000 C 
ATOM     11  C   UNL     1      -6.596   4.822   6.974  0.00  0.00    +0.000 C 
ENDROOT
BRANCH   4  13
ATOM     12 CL   UNL     1     -13.968   5.976   6.768  0.00  0.00    +0.000 Cl
ATOM     13  C   UNL     1     -11.164   6.240   5.886  0.00  0.00    +0.000 C 
ATOM     14  C   UNL     1     -12.306   6.134   6.240  0.00  0.00    +0.000 C 
ENDBRANCH   4  13
TORSDOF 1
ENDMDL
MODEL 2
REMARK VINA RESULT:      -3.9     22.091     23.410
REMARK  Name = 21574552_Mertensene.pdbqt.pdb
REMARK  1 active torsions:
REMARK  status: ('A' for Active; 'I' for Inactive)
REMARK    1  A    between atoms: C_4  and  C_13
REMARK                            x       y       z     vdW  Elec       q    Type
REMARK                         _______ _______ _______ _____ _____    ______ ____
ROOT
ATOM      1 BR   UNL     1       8.586 -10.258  10.797  0.00  0.00    +0.000 Br
ATOM      2 CL   UNL     1       3.604 -10.790  14.000  0.00  0.00    +0.000 Cl
ATOM      3 CL   UNL     1       4.589 -13.615  12.372  0.00  0.00    +0.000 Cl
ATOM      4  C   UNL     1       5.913  -9.083  11.437  0.00  0.00    +0.000 C 
ATOM      5  C   UNL     1       4.636  -9.626  11.914  0.00  0.00    +0.000 C 
ATOM      6  C   UNL     1       3.912 -10.849  12.247  0.00  0.00    +0.000 C 
ATOM      7  C   UNL     1       6.777 -10.339  11.159  0.00  0.00    +0.000 C 
ATOM      8  C   UNL     1       4.869 -11.996  11.895  0.00  0.00    +0.000 C 
ATOM      9  C   UNL     1       6.151 -11.593  11.420  0.00  0.00    +0.000 C 
ATOM     10  C   UNL     1       5.701  -8.306  10.118  0.00  0.00    +0.000 C 
ATOM     11  C   UNL     1       2.572 -10.969  11.513  0.00  0.00    +0.000 C 
ENDROOT
BRANCH   4  13
ATOM     12 CL   UNL     1       7.820  -6.605  14.565  0.00  0.00    +0.000 Cl
ATOM     13  C   UNL     1       6.542  -8.254  12.477  0.00  0.00    +0.000 C 
ATOM     14  C   UNL     1       7.058  -7.580  13.326  0.00  0.00    +0.000 C 
ENDBRANCH   4  13
TORSDOF 1
ENDMDL
MODEL 3
REMARK VINA RESULT:      -3.7      2.331      2.559
REMARK  Name = 21574552_Mertensene.pdbqt.pdb
REMARK  1 active torsions:
REMARK  status: ('A' for Active; 'I' for Inactive)
REMARK    1  A    between atoms: C_4  and  C_13
REMARK                            x       y       z     vdW  Elec       q    Type
REMARK                         _______ _______ _______ _____ _____    ______ ____
ROOT
ATOM      1 BR   UNL     1      -7.563  10.021   3.963  0.00  0.00    +0.000 Br
ATOM      2 CL   UNL     1      -9.234   5.374   7.275  0.00  0.00    +0.000 Cl
ATOM      3 CL   UNL     1      -7.298   7.674   8.877  0.00  0.00    +0.000 Cl
ATOM      4  C   UNL     1      -7.777   7.044   4.129  0.00  0.00    +0.000 C 
ATOM      5  C   UNL     1      -7.788   6.072   5.227  0.00  0.00    +0.000 C 
ATOM      6  C   UNL     1      -7.645   5.903   6.671  0.00  0.00    +0.000 C 
ATOM      7  C   UNL     1      -7.440   8.390   4.820  0.00  0.00    +0.000 C 
ATOM      8  C   UNL     1      -7.287   7.295   7.209  0.00  0.00    +0.000 C 
ATOM      9  C   UNL     1      -7.247   8.332   6.231  0.00  0.00    +0.000 C 
ATOM     10  C   UNL     1      -6.660   6.694   3.121  0.00  0.00    +0.000 C 
ATOM     11  C   UNL     1      -6.597   4.851   7.049  0.00  0.00    +0.000 C 
ENDROOT
BRANCH   4  13
ATOM     12 CL   UNL     1     -11.753   7.244   2.203  0.00  0.00    +0.000 Cl
ATOM     13  C   UNL     1      -9.100   7.118   3.491  0.00  0.00    +0.000 C 
ATOM     14  C   UNL     1     -10.180   7.174   2.969  0.00  0.00    +0.000 C 
ENDBRANCH   4  13
TORSDOF 1
ENDMDL
MODEL 4
REMARK VINA RESULT:      -3.7     20.791     22.529
REMARK  Name = 21574552_Mertensene.pdbqt.pdb
REMARK  1 active torsions:
REMARK  status: ('A' for Active; 'I' for Inactive)
REMARK    1  A    between atoms: C_4  and  C_13
REMARK                            x       y       z     vdW  Elec       q    Type
REMARK                         _______ _______ _______ _____ _____    ______ ____
ROOT
ATOM      1 BR   UNL     1       4.887  -7.223   8.424  0.00  0.00    +0.000 Br
ATOM      2 CL   UNL     1       9.199  -9.286  11.961  0.00  0.00    +0.000 Cl
ATOM      3 CL   UNL     1       6.435 -11.263  11.742  0.00  0.00    +0.000 Cl
ATOM      4  C   UNL     1       6.789  -6.591  10.641  0.00  0.00    +0.000 C 
ATOM      5  C   UNL     1       7.450  -7.379  11.688  0.00  0.00    +0.000 C 
ATOM      6  C   UNL     1       7.552  -8.701  12.299  0.00  0.00    +0.000 C 
ATOM      7  C   UNL     1       5.798  -7.588   9.987  0.00  0.00    +0.000 C 
ATOM      8  C   UNL     1       6.504  -9.562  11.580  0.00  0.00    +0.000 C 
ATOM      9  C   UNL     1       5.793  -8.905  10.533  0.00  0.00    +0.000 C 
ATOM     10  C   UNL     1       5.997  -5.425  11.274  0.00  0.00    +0.000 C 
ATOM     11  C   UNL     1       7.337  -8.677  13.816  0.00  0.00    +0.000 C 
ENDROOT
BRANCH   4  13
ATOM     12 CL   UNL     1       9.741  -5.171   7.669  0.00  0.00    +0.000 Cl
ATOM     13  C   UNL     1       7.770  -6.125   9.649  0.00  0.00    +0.000 C 
ATOM     14  C   UNL     1       8.571  -5.742   8.841  0.00  0.00    +0.000 C 
ENDBRANCH   4  13
TORSDOF 1
ENDMDL
MODEL 5
REMARK VINA RESULT:      -3.6     19.794     21.415
REMARK  Name = 21574552_Mertensene.pdbqt.pdb
REMARK  1 active torsions:
REMARK  status: ('A' for Active; 'I' for Inactive)
REMARK    1  A    between atoms: C_4  and  C_13
REMARK                            x       y       z     vdW  Elec       q    Type
REMARK                         _______ _______ _______ _____ _____    ______ ____
ROOT
ATOM      1 BR   UNL     1       5.198  -7.206   8.569  0.00  0.00    +0.000 Br
ATOM      2 CL   UNL     1       8.839  -6.291  13.180  0.00  0.00    +0.000 Cl
ATOM      3 CL   UNL     1       6.355  -8.557  13.722  0.00  0.00    +0.000 Cl
ATOM      4  C   UNL     1       6.538  -5.175  10.304  0.00  0.00    +0.000 C 
ATOM      5  C   UNL     1       7.031  -5.164  11.686  0.00  0.00    +0.000 C 
ATOM      6  C   UNL     1       7.114  -5.928  12.927  0.00  0.00    +0.000 C 
ATOM      7  C   UNL     1       5.791  -6.527  10.180  0.00  0.00    +0.000 C 
ATOM      8  C   UNL     1       6.314  -7.212  12.668  0.00  0.00    +0.000 C 
ATOM      9  C   UNL     1       5.783  -7.341  11.351  0.00  0.00    +0.000 C 
ATOM     10  C   UNL     1       5.538  -4.017  10.088  0.00  0.00    +0.000 C 
ATOM     11  C   UNL     1       6.588  -5.155  14.141  0.00  0.00    +0.000 C 
ENDROOT
BRANCH   4  13
ATOM     12 CL   UNL     1       9.919  -5.048   7.456  0.00  0.00    +0.000 Cl
ATOM     13  C   UNL     1       7.661  -5.126   9.355  0.00  0.00    +0.000 C 
ATOM     14  C   UNL     1       8.578  -5.089   8.581  0.00  0.00    +0.000 C 
ENDBRANCH   4  13
TORSDOF 1
ENDMDL
MODEL 6
REMARK VINA RESULT:      -3.6     22.647     23.816
REMARK  Name = 21574552_Mertensene.pdbqt.pdb
REMARK  1 active torsions:
REMARK  status: ('A' for Active; 'I' for Inactive)
REMARK    1  A    between atoms: C_4  and  C_13
REMARK                            x       y       z     vdW  Elec       q    Type
REMARK                         _______ _______ _______ _____ _____    ______ ____
ROOT
ATOM      1 BR   UNL     1     -11.849 -19.012  11.100  0.00  0.00    +0.000 Br
ATOM      2 CL   UNL     1     -13.419 -15.258   6.764  0.00  0.00    +0.000 Cl
ATOM      3 CL   UNL     1     -12.293 -18.296   5.714  0.00  0.00    +0.000 Cl
ATOM      4  C   UNL     1     -11.599 -16.240  10.010  0.00  0.00    +0.000 C 
ATOM      5  C   UNL     1     -11.692 -15.647   8.671  0.00  0.00    +0.000 C 
ATOM      6  C   UNL     1     -11.846 -15.936   7.248  0.00  0.00    +0.000 C 
ATOM      7  C   UNL     1     -11.651 -17.767   9.751  0.00  0.00    +0.000 C 
ATOM      8  C   UNL     1     -11.851 -17.467   7.143  0.00  0.00    +0.000 C 
ATOM      9  C   UNL     1     -11.768 -18.161   8.386  0.00  0.00    +0.000 C 
ATOM     10  C   UNL     1     -10.244 -15.878  10.658  0.00  0.00    +0.000 C 
ATOM     11  C   UNL     1     -10.748 -15.302   6.387  0.00  0.00    +0.000 C 
ENDROOT
BRANCH   4  13
ATOM     12 CL   UNL     1     -15.029 -15.010  12.516  0.00  0.00    +0.000 Cl
ATOM     13  C   UNL     1     -12.742 -15.826  10.838  0.00  0.00    +0.000 C 
ATOM     14  C   UNL     1     -13.673 -15.490  11.517  0.00  0.00    +0.000 C 
ENDBRANCH   4  13
TORSDOF 1
ENDMDL
MODEL 7
REMARK VINA RESULT:      -3.5     22.811     23.979
REMARK  Name = 21574552_Mertensene.pdbqt.pdb
REMARK  1 active torsions:
REMARK  status: ('A' for Active; 'I' for Inactive)
REMARK    1  A    between atoms: C_4  and  C_13
REMARK                            x       y       z     vdW  Elec       q    Type
REMARK                         _______ _______ _______ _____ _____    ______ ____
ROOT
ATOM      1 BR   UNL     1     -14.161 -18.476   8.973  0.00  0.00    +0.000 Br
ATOM      2 CL   UNL     1     -14.391 -14.823  13.659  0.00  0.00    +0.000 Cl
ATOM      3 CL   UNL     1     -16.841 -17.186  13.542  0.00  0.00    +0.000 Cl
ATOM      4  C   UNL     1     -14.088 -15.639   9.910  0.00  0.00    +0.000 C 
ATOM      5  C   UNL     1     -14.630 -14.922  11.069  0.00  0.00    +0.000 C 
ATOM      6  C   UNL     1     -15.469 -15.043  12.259  0.00  0.00    +0.000 C 
ATOM      7  C   UNL     1     -14.707 -17.056  10.017  0.00  0.00    +0.000 C 
ATOM      8  C   UNL     1     -16.031 -16.470  12.216  0.00  0.00    +0.000 C 
ATOM      9  C   UNL     1     -15.573 -17.271  11.130  0.00  0.00    +0.000 C 
ATOM     10  C   UNL     1     -14.565 -14.971   8.601  0.00  0.00    +0.000 C 
ATOM     11  C   UNL     1     -16.577 -13.986  12.317  0.00  0.00    +0.000 C 
ENDROOT
BRANCH   4  13
ATOM     12 CL   UNL     1      -9.677 -15.857  10.151  0.00  0.00    +0.000 Cl
ATOM     13  C   UNL     1     -12.621 -15.719   9.992  0.00  0.00    +0.000 C 
ATOM     14  C   UNL     1     -11.424 -15.780  10.058  0.00  0.00    +0.000 C 
ENDBRANCH   4  13
TORSDOF 1
ENDMDL
MODEL 8
REMARK VINA RESULT:      -3.4     19.109     20.396
REMARK  Name = 21574552_Mertensene.pdbqt.pdb
REMARK  1 active torsions:
REMARK  status: ('A' for Active; 'I' for Inactive)
REMARK    1  A    between atoms: C_4  and  C_13
REMARK                            x       y       z     vdW  Elec       q    Type
REMARK                         _______ _______ _______ _____ _____    ______ ____
ROOT
ATOM      1 BR   UNL     1     -20.101   0.536  19.204  0.00  0.00    +0.000 Br
ATOM      2 CL   UNL     1     -18.476  -4.511  21.895  0.00  0.00    +0.000 Cl
ATOM      3 CL   UNL     1     -19.353  -4.832  18.620  0.00  0.00    +0.000 Cl
ATOM      4  C   UNL     1     -20.441  -1.215  21.602  0.00  0.00    +0.000 C 
ATOM      5  C   UNL     1     -20.297  -2.652  21.857  0.00  0.00    +0.000 C 
ATOM      6  C   UNL     1     -20.035  -3.951  21.243  0.00  0.00    +0.000 C 
ATOM      7  C   UNL     1     -20.284  -1.086  20.065  0.00  0.00    +0.000 C 
ATOM      8  C   UNL     1     -19.934  -3.674  19.737  0.00  0.00    +0.000 C 
ATOM      9  C   UNL     1     -20.056  -2.305  19.361  0.00  0.00    +0.000 C 
ATOM     10  C   UNL     1     -21.853  -0.741  22.012  0.00  0.00    +0.000 C 
ATOM     11  C   UNL     1     -21.110  -4.993  21.568  0.00  0.00    +0.000 C 
ENDROOT
BRANCH   4  13
ATOM     12 CL   UNL     1     -17.241   1.058  23.640  0.00  0.00    +0.000 Cl
ATOM     13  C   UNL     1     -19.380  -0.460  22.286  0.00  0.00    +0.000 C 
ATOM     14  C   UNL     1     -18.512   0.157  22.841  0.00  0.00    +0.000 C 
ENDBRANCH   4  13
TORSDOF 1
ENDMDL
MODEL 9
REMARK VINA RESULT:      -3.2     20.516     22.083
REMARK  Name = 21574552_Mertensene.pdbqt.pdb
REMARK  1 active torsions:
REMARK  status: ('A' for Active; 'I' for Inactive)
REMARK    1  A    between atoms: C_4  and  C_13
REMARK                            x       y       z     vdW  Elec       q    Type
REMARK                         _______ _______ _______ _____ _____    ______ ____
ROOT
ATOM      1 BR   UNL     1     -21.410   0.509  23.280  0.00  0.00    +0.000 Br
ATOM      2 CL   UNL     1     -18.558  -4.421  21.573  0.00  0.00    +0.000 Cl
ATOM      3 CL   UNL     1     -19.733  -2.475  19.037  0.00  0.00    +0.000 Cl
ATOM      4  C   UNL     1     -21.131  -2.445  23.641  0.00  0.00    +0.000 C 
ATOM      5  C   UNL     1     -20.689  -3.551  22.785  0.00  0.00    +0.000 C 
ATOM      6  C   UNL     1     -20.260  -3.916  21.438  0.00  0.00    +0.000 C 
ATOM      7  C   UNL     1     -21.181  -1.224  22.688  0.00  0.00    +0.000 C 
ATOM      8  C   UNL     1     -20.389  -2.631  20.608  0.00  0.00    +0.000 C 
ATOM      9  C   UNL     1     -20.811  -1.479  21.334  0.00  0.00    +0.000 C 
ATOM     10  C   UNL     1     -22.550  -2.727  24.184  0.00  0.00    +0.000 C 
ATOM     11  C   UNL     1     -21.073  -5.071  20.844  0.00  0.00    +0.000 C 
ENDROOT
BRANCH   4  13
ATOM     12 CL   UNL     1     -18.215  -1.751  26.894  0.00  0.00    +0.000 Cl
ATOM     13  C   UNL     1     -20.160  -2.207  24.720  0.00  0.00    +0.000 C 
ATOM     14  C   UNL     1     -19.368  -2.017  25.602  0.00  0.00    +0.000 C 
ENDBRANCH   4  13
TORSDOF 1
ENDMDL
