MODEL 1
REMARK VINA RESULT:      -7.0      0.000      0.000
REMARK  Name = 222284_BetaSitosterol.pdbqt.pdb
REMARK  5 active torsions:
REMARK  status: ('A' for Active; 'I' for Inactive)
REMARK    1  A    between atoms: C_5  and  C_22
REMARK    2  A    between atoms: C_19  and  O_20
REMARK    3  A    between atoms: C_22  and  C_24
REMARK    4  A    between atoms: C_25  and  C_26
REMARK    5  A    between atoms: C_26  and  C_30
REMARK                            x       y       z     vdW  Elec       q    Type
REMARK                         _______ _______ _______ _____ _____    ______ ____
ROOT
ATOM      1  C   UNL     1      -8.092  -4.625  27.527  0.00  0.00    +0.000 C 
ATOM      2  C   UNL     1      -8.076  -6.034  26.742  0.00  0.00    +0.000 C 
ATOM      3  C   UNL     1      -9.104  -7.069  26.969  0.00  0.00    +0.000 C 
ATOM      4  C   UNL     1     -10.413  -6.872  27.693  0.00  0.00    +0.000 C 
ATOM      5  C   UNL     1      -7.758  -3.608  26.446  0.00  0.00    +0.000 C 
ATOM      6  C   UNL     1      -9.451  -4.499  28.055  0.00  0.00    +0.000 C 
ATOM      7  C   UNL     1     -11.424  -8.017  27.971  0.00  0.00    +0.000 C 
ATOM      8  C   UNL     1      -7.611  -5.770  25.415  0.00  0.00    +0.000 C 
ATOM      9  C   UNL     1     -10.541  -5.537  28.165  0.00  0.00    +0.000 C 
ATOM     10  C   UNL     1      -7.459  -4.285  25.229  0.00  0.00    +0.000 C 
ATOM     11  C   UNL     1      -8.992  -8.353  26.383  0.00  0.00    +0.000 C 
ATOM     12  C   UNL     1      -6.996  -4.669  28.622  0.00  0.00    +0.000 C 
ATOM     13  C   UNL     1     -11.187  -9.364  27.044  0.00  0.00    +0.000 C 
ATOM     14  C   UNL     1     -12.808  -7.581  27.621  0.00  0.00    +0.000 C 
ATOM     15  C   UNL     1     -10.034  -9.429  26.449  0.00  0.00    +0.000 C 
ATOM     16  C   UNL     1     -11.298  -8.457  29.459  0.00  0.00    +0.000 C 
ATOM     17  C   UNL     1     -12.345  -9.825  26.313  0.00  0.00    +0.000 C 
ATOM     18  C   UNL     1     -13.930  -8.166  26.747  0.00  0.00    +0.000 C 
ATOM     19  C   UNL     1     -13.686  -9.393  26.062  0.00  0.00    +0.000 C 
ENDROOT
BRANCH  19  20
ATOM     20  O   UNL     1     -14.694 -10.274  25.802  0.00  0.00    +0.000 OA
ATOM     21  H   UNL     1     -15.514  -9.815  25.554  0.00  0.00    +0.000 HD
ENDBRANCH  19  20
BRANCH   5  22
ATOM     22  C   UNL     1      -7.799  -2.189  26.619  0.00  0.00    +0.000 C 
ATOM     23  C   UNL     1      -6.565  -1.374  26.913  0.00  0.00    +0.000 C 
BRANCH  22  24
ATOM     24  C   UNL     1      -9.006  -1.447  26.505  0.00  0.00    +0.000 C 
ATOM     25  C   UNL     1     -10.296  -0.622  26.390  0.00  0.00    +0.000 C 
BRANCH  25  26
ATOM     26  C   UNL     1     -11.491   0.154  26.300  0.00  0.00    +0.000 C 
ATOM     27  C   UNL     1     -11.440   1.538  25.882  0.00  0.00    +0.000 C 
ATOM     28  C   UNL     1     -10.142   2.226  25.505  0.00  0.00    +0.000 C 
ATOM     29  C   UNL     1     -12.657   2.435  25.807  0.00  0.00    +0.000 C 
BRANCH  26  30
ATOM     30  C   UNL     1     -12.745  -0.435  26.614  0.00  0.00    +0.000 C 
ATOM     31  C   UNL     1     -14.076  -1.090  26.999  0.00  0.00    +0.000 C 
ENDBRANCH  26  30
ENDBRANCH  25  26
ENDBRANCH  22  24
ENDBRANCH   5  22
TORSDOF 5
ENDMDL
MODEL 2
REMARK VINA RESULT:      -6.9      1.875      3.959
REMARK  Name = 222284_BetaSitosterol.pdbqt.pdb
REMARK  5 active torsions:
REMARK  status: ('A' for Active; 'I' for Inactive)
REMARK    1  A    between atoms: C_5  and  C_22
REMARK    2  A    between atoms: C_19  and  O_20
REMARK    3  A    between atoms: C_22  and  C_24
REMARK    4  A    between atoms: C_25  and  C_26
REMARK    5  A    between atoms: C_26  and  C_30
REMARK                            x       y       z     vdW  Elec       q    Type
REMARK                         _______ _______ _______ _____ _____    ______ ____
ROOT
ATOM      1  C   UNL     1      -8.236  -4.520  27.543  0.00  0.00    +0.000 C 
ATOM      2  C   UNL     1      -8.114  -5.949  26.805  0.00  0.00    +0.000 C 
ATOM      3  C   UNL     1      -9.108  -7.023  27.005  0.00  0.00    +0.000 C 
ATOM      4  C   UNL     1     -10.464  -6.865  27.647  0.00  0.00    +0.000 C 
ATOM      5  C   UNL     1      -7.884  -3.520  26.452  0.00  0.00    +0.000 C 
ATOM      6  C   UNL     1      -9.629  -4.441  27.989  0.00  0.00    +0.000 C 
ATOM      7  C   UNL     1     -11.439  -8.046  27.902  0.00  0.00    +0.000 C 
ATOM      8  C   UNL     1      -7.584  -5.702  25.499  0.00  0.00    +0.000 C 
ATOM      9  C   UNL     1     -10.677  -5.524  28.068  0.00  0.00    +0.000 C 
ATOM     10  C   UNL     1      -7.486  -4.217  25.276  0.00  0.00    +0.000 C 
ATOM     11  C   UNL     1      -8.905  -8.317  26.466  0.00  0.00    +0.000 C 
ATOM     12  C   UNL     1      -7.206  -4.484  28.700  0.00  0.00    +0.000 C 
ATOM     13  C   UNL     1     -11.089  -9.406  27.031  0.00  0.00    +0.000 C 
ATOM     14  C   UNL     1     -12.817  -7.683  27.460  0.00  0.00    +0.000 C 
ATOM     15  C   UNL     1      -9.902  -9.436  26.506  0.00  0.00    +0.000 C 
ATOM     16  C   UNL     1     -11.380  -8.437  29.407  0.00  0.00    +0.000 C 
ATOM     17  C   UNL     1     -12.181  -9.940  26.250  0.00  0.00    +0.000 C 
ATOM     18  C   UNL     1     -13.860  -8.343  26.542  0.00  0.00    +0.000 C 
ATOM     19  C   UNL     1     -13.523  -9.576  25.911  0.00  0.00    +0.000 C 
ENDROOT
BRANCH  19  20
ATOM     20  O   UNL     1     -14.475 -10.509  25.620  0.00  0.00    +0.000 OA
ATOM     21  H   UNL     1     -14.344 -11.324  26.134  0.00  0.00    +0.000 HD
ENDBRANCH  19  20
BRANCH   5  22
ATOM     22  C   UNL     1      -7.998  -2.101  26.579  0.00  0.00    +0.000 C 
ATOM     23  C   UNL     1      -9.295  -1.369  26.343  0.00  0.00    +0.000 C 
BRANCH  22  24
ATOM     24  C   UNL     1      -6.897  -1.284  26.954  0.00  0.00    +0.000 C 
ATOM     25  C   UNL     1      -5.726  -0.381  27.369  0.00  0.00    +0.000 C 
BRANCH  25  26
ATOM     26  C   UNL     1      -4.646   0.474  27.747  0.00  0.00    +0.000 C 
ATOM     27  C   UNL     1      -4.600   1.846  27.291  0.00  0.00    +0.000 C 
ATOM     28  C   UNL     1      -5.684   2.451  26.419  0.00  0.00    +0.000 C 
ATOM     29  C   UNL     1      -3.466   2.796  27.611  0.00  0.00    +0.000 C 
BRANCH  26  30
ATOM     30  C   UNL     1      -3.610  -0.020  28.583  0.00  0.00    +0.000 C 
ATOM     31  C   UNL     1      -2.460  -0.557  29.442  0.00  0.00    +0.000 C 
ENDBRANCH  26  30
ENDBRANCH  25  26
ENDBRANCH  22  24
ENDBRANCH   5  22
TORSDOF 5
ENDMDL
MODEL 3
REMARK VINA RESULT:      -6.3     17.191     21.535
REMARK  Name = 222284_BetaSitosterol.pdbqt.pdb
REMARK  5 active torsions:
REMARK  status: ('A' for Active; 'I' for Inactive)
REMARK    1  A    between atoms: C_5  and  C_22
REMARK    2  A    between atoms: C_19  and  O_20
REMARK    3  A    between atoms: C_22  and  C_24
REMARK    4  A    between atoms: C_25  and  C_26
REMARK    5  A    between atoms: C_26  and  C_30
REMARK                            x       y       z     vdW  Elec       q    Type
REMARK                         _______ _______ _______ _____ _____    ______ ____
ROOT
ATOM      1  C   UNL     1     -11.438 -18.062   9.889  0.00  0.00    +0.000 C 
ATOM      2  C   UNL     1     -12.012 -16.680  10.491  0.00  0.00    +0.000 C 
ATOM      3  C   UNL     1     -12.968 -16.652  11.617  0.00  0.00    +0.000 C 
ATOM      4  C   UNL     1     -13.305 -17.812  12.520  0.00  0.00    +0.000 C 
ATOM      5  C   UNL     1      -9.959 -17.776   9.679  0.00  0.00    +0.000 C 
ATOM      6  C   UNL     1     -11.704 -19.065  10.921  0.00  0.00    +0.000 C 
ATOM      7  C   UNL     1     -14.377 -17.747  13.642  0.00  0.00    +0.000 C 
ATOM      8  C   UNL     1     -10.949 -15.724  10.435  0.00  0.00    +0.000 C 
ATOM      9  C   UNL     1     -12.588 -18.980  12.142  0.00  0.00    +0.000 C 
ATOM     10  C   UNL     1      -9.690 -16.409   9.978  0.00  0.00    +0.000 C 
ATOM     11  C   UNL     1     -13.572 -15.441  12.034  0.00  0.00    +0.000 C 
ATOM     12  C   UNL     1     -12.159 -18.340   8.545  0.00  0.00    +0.000 C 
ATOM     13  C   UNL     1     -14.807 -16.212  14.072  0.00  0.00    +0.000 C 
ATOM     14  C   UNL     1     -13.841 -18.337  14.903  0.00  0.00    +0.000 C 
ATOM     15  C   UNL     1     -14.456 -15.284  13.234  0.00  0.00    +0.000 C 
ATOM     16  C   UNL     1     -15.668 -18.465  13.152  0.00  0.00    +0.000 C 
ATOM     17  C   UNL     1     -14.709 -15.914  15.483  0.00  0.00    +0.000 C 
ATOM     18  C   UNL     1     -13.746 -17.851  16.360  0.00  0.00    +0.000 C 
ATOM     19  C   UNL     1     -14.240 -16.551  16.674  0.00  0.00    +0.000 C 
ENDROOT
BRANCH  19  20
ATOM     20  O   UNL     1     -14.764 -16.268  17.902  0.00  0.00    +0.000 OA
ATOM     21  H   UNL     1     -14.576 -15.352  18.167  0.00  0.00    +0.000 HD
ENDBRANCH  19  20
BRANCH   5  22
ATOM     22  C   UNL     1      -8.985 -18.750   9.298  0.00  0.00    +0.000 C 
ATOM     23  C   UNL     1      -8.129 -18.599   8.066  0.00  0.00    +0.000 C 
BRANCH  22  24
ATOM     24  C   UNL     1      -8.744 -19.920  10.068  0.00  0.00    +0.000 C 
ATOM     25  C   UNL     1      -8.509 -21.183  10.910  0.00  0.00    +0.000 C 
BRANCH  25  26
ATOM     26  C   UNL     1      -8.300 -22.348  11.709  0.00  0.00    +0.000 C 
ATOM     27  C   UNL     1      -9.374 -22.896  12.507  0.00  0.00    +0.000 C 
ATOM     28  C   UNL     1     -10.764 -22.288  12.528  0.00  0.00    +0.000 C 
ATOM     29  C   UNL     1      -9.215 -24.098  13.412  0.00  0.00    +0.000 C 
BRANCH  26  30
ATOM     30  C   UNL     1      -7.030 -22.983  11.716  0.00  0.00    +0.000 C 
ATOM     31  C   UNL     1      -5.679 -23.708  11.693  0.00  0.00    +0.000 C 
ENDBRANCH  26  30
ENDBRANCH  25  26
ENDBRANCH  22  24
ENDBRANCH   5  22
TORSDOF 5
ENDMDL
MODEL 4
REMARK VINA RESULT:      -6.2     21.125     23.442
REMARK  Name = 222284_BetaSitosterol.pdbqt.pdb
REMARK  5 active torsions:
REMARK  status: ('A' for Active; 'I' for Inactive)
REMARK    1  A    between atoms: C_5  and  C_22
REMARK    2  A    between atoms: C_19  and  O_20
REMARK    3  A    between atoms: C_22  and  C_24
REMARK    4  A    between atoms: C_25  and  C_26
REMARK    5  A    between atoms: C_26  and  C_30
REMARK                            x       y       z     vdW  Elec       q    Type
REMARK                         _______ _______ _______ _____ _____    ______ ____
ROOT
ATOM      1  C   UNL     1       7.676  -3.938   9.653  0.00  0.00    +0.000 C 
ATOM      2  C   UNL     1       6.493  -4.935   9.199  0.00  0.00    +0.000 C 
ATOM      3  C   UNL     1       6.352  -6.293   9.763  0.00  0.00    +0.000 C 
ATOM      4  C   UNL     1       7.060  -6.820  10.986  0.00  0.00    +0.000 C 
ATOM      5  C   UNL     1       6.978  -2.595   9.802  0.00  0.00    +0.000 C 
ATOM      6  C   UNL     1       8.174  -4.487  10.915  0.00  0.00    +0.000 C 
ATOM      7  C   UNL     1       6.934  -8.284  11.490  0.00  0.00    +0.000 C 
ATOM      8  C   UNL     1       5.329  -4.132   8.977  0.00  0.00    +0.000 C 
ATOM      9  C   UNL     1       7.920  -5.835  11.544  0.00  0.00    +0.000 C 
ATOM     10  C   UNL     1       5.621  -2.713   9.387  0.00  0.00    +0.000 C 
ATOM     11  C   UNL     1       5.399  -7.204   9.247  0.00  0.00    +0.000 C 
ATOM     12  C   UNL     1       8.738  -3.903   8.523  0.00  0.00    +0.000 C 
ATOM     13  C   UNL     1       5.641  -9.101  10.866  0.00  0.00    +0.000 C 
ATOM     14  C   UNL     1       6.694  -8.304  12.963  0.00  0.00    +0.000 C 
ATOM     15  C   UNL     1       5.093  -8.554   9.823  0.00  0.00    +0.000 C 
ATOM     16  C   UNL     1       8.214  -9.072  11.085  0.00  0.00    +0.000 C 
ATOM     17  C   UNL     1       4.767  -9.713  11.839  0.00  0.00    +0.000 C 
ATOM     18  C   UNL     1       5.646  -8.970  13.871  0.00  0.00    +0.000 C 
ATOM     19  C   UNL     1       4.621  -9.752  13.262  0.00  0.00    +0.000 C 
ENDROOT
BRANCH  19  20
ATOM     20  O   UNL     1       4.066 -10.820  13.905  0.00  0.00    +0.000 OA
ATOM     21  H   UNL     1       4.184 -10.757  14.867  0.00  0.00    +0.000 HD
ENDBRANCH  19  20
BRANCH   5  22
ATOM     22  C   UNL     1       7.583  -1.415  10.335  0.00  0.00    +0.000 C 
ATOM     23  C   UNL     1       8.913  -1.439  11.047  0.00  0.00    +0.000 C 
BRANCH  22  24
ATOM     24  C   UNL     1       6.981  -0.133  10.214  0.00  0.00    +0.000 C 
ATOM     25  C   UNL     1       6.348   1.261  10.102  0.00  0.00    +0.000 C 
BRANCH  25  26
ATOM     26  C   UNL     1       5.759   2.560  10.017  0.00  0.00    +0.000 C 
ATOM     27  C   UNL     1       5.693   3.415  11.182  0.00  0.00    +0.000 C 
ATOM     28  C   UNL     1       6.251   2.999  12.530  0.00  0.00    +0.000 C 
ATOM     29  C   UNL     1       5.043   4.782  11.180  0.00  0.00    +0.000 C 
BRANCH  26  30
ATOM     30  C   UNL     1       5.240   3.023   8.779  0.00  0.00    +0.000 C 
ATOM     31  C   UNL     1       4.645   3.555   7.470  0.00  0.00    +0.000 C 
ENDBRANCH  26  30
ENDBRANCH  25  26
ENDBRANCH  22  24
ENDBRANCH   5  22
TORSDOF 5
ENDMDL
MODEL 5
REMARK VINA RESULT:      -6.2      2.993      6.800
REMARK  Name = 222284_BetaSitosterol.pdbqt.pdb
REMARK  5 active torsions:
REMARK  status: ('A' for Active; 'I' for Inactive)
REMARK    1  A    between atoms: C_5  and  C_22
REMARK    2  A    between atoms: C_19  and  O_20
REMARK    3  A    between atoms: C_22  and  C_24
REMARK    4  A    between atoms: C_25  and  C_26
REMARK    5  A    between atoms: C_26  and  C_30
REMARK                            x       y       z     vdW  Elec       q    Type
REMARK                         _______ _______ _______ _____ _____    ______ ____
ROOT
ATOM      1  C   UNL     1     -12.129  -0.977  28.262  0.00  0.00    +0.000 C 
ATOM      2  C   UNL     1     -10.976  -0.910  27.137  0.00  0.00    +0.000 C 
ATOM      3  C   UNL     1      -9.883  -1.902  27.074  0.00  0.00    +0.000 C 
ATOM      4  C   UNL     1      -9.839  -3.218  27.811  0.00  0.00    +0.000 C 
ATOM      5  C   UNL     1     -13.404  -0.677  27.489  0.00  0.00    +0.000 C 
ATOM      6  C   UNL     1     -12.066  -2.341  28.791  0.00  0.00    +0.000 C 
ATOM      7  C   UNL     1      -8.628  -4.189  27.769  0.00  0.00    +0.000 C 
ATOM      8  C   UNL     1     -11.593  -0.453  25.930  0.00  0.00    +0.000 C 
ATOM      9  C   UNL     1     -10.999  -3.393  28.614  0.00  0.00    +0.000 C 
ATOM     10  C   UNL     1     -13.080  -0.353  26.140  0.00  0.00    +0.000 C 
ATOM     11  C   UNL     1      -8.802  -1.744  26.174  0.00  0.00    +0.000 C 
ATOM     12  C   UNL     1     -11.836   0.118  29.320  0.00  0.00    +0.000 C 
ATOM     13  C   UNL     1      -7.581  -3.903  26.524  0.00  0.00    +0.000 C 
ATOM     14  C   UNL     1      -9.095  -5.586  27.531  0.00  0.00    +0.000 C 
ATOM     15  C   UNL     1      -7.712  -2.747  25.946  0.00  0.00    +0.000 C 
ATOM     16  C   UNL     1      -7.819  -4.049  29.091  0.00  0.00    +0.000 C 
ATOM     17  C   UNL     1      -7.288  -5.043  25.686  0.00  0.00    +0.000 C 
ATOM     18  C   UNL     1      -8.721  -6.686  26.523  0.00  0.00    +0.000 C 
ATOM     19  C   UNL     1      -7.725  -6.398  25.543  0.00  0.00    +0.000 C 
ENDROOT
BRANCH  19  20
ATOM     20  O   UNL     1      -6.910  -7.374  25.051  0.00  0.00    +0.000 OA
ATOM     21  H   UNL     1      -7.154  -8.249  25.395  0.00  0.00    +0.000 HD
ENDBRANCH  19  20
BRANCH   5  22
ATOM     22  C   UNL     1     -14.726  -0.769  28.027  0.00  0.00    +0.000 C 
ATOM     23  C   UNL     1     -15.561   0.449  28.329  0.00  0.00    +0.000 C 
BRANCH  22  24
ATOM     24  C   UNL     1     -15.350  -2.018  28.294  0.00  0.00    +0.000 C 
ATOM     25  C   UNL     1     -16.049  -3.355  28.577  0.00  0.00    +0.000 C 
BRANCH  25  26
ATOM     26  C   UNL     1     -16.714  -4.589  28.851  0.00  0.00    +0.000 C 
ATOM     27  C   UNL     1     -16.024  -5.850  28.683  0.00  0.00    +0.000 C 
ATOM     28  C   UNL     1     -14.577  -5.931  28.232  0.00  0.00    +0.000 C 
ATOM     29  C   UNL     1     -16.675  -7.196  28.908  0.00  0.00    +0.000 C 
BRANCH  26  30
ATOM     30  C   UNL     1     -18.061  -4.585  29.300  0.00  0.00    +0.000 C 
ATOM     31  C   UNL     1     -19.508  -4.631  29.804  0.00  0.00    +0.000 C 
ENDBRANCH  26  30
ENDBRANCH  25  26
ENDBRANCH  22  24
ENDBRANCH   5  22
TORSDOF 5
ENDMDL
MODEL 6
REMARK VINA RESULT:      -5.7     18.604     22.051
REMARK  Name = 222284_BetaSitosterol.pdbqt.pdb
REMARK  5 active torsions:
REMARK  status: ('A' for Active; 'I' for Inactive)
REMARK    1  A    between atoms: C_5  and  C_22
REMARK    2  A    between atoms: C_19  and  O_20
REMARK    3  A    between atoms: C_22  and  C_24
REMARK    4  A    between atoms: C_25  and  C_26
REMARK    5  A    between atoms: C_26  and  C_30
REMARK                            x       y       z     vdW  Elec       q    Type
REMARK                         _______ _______ _______ _____ _____    ______ ____
ROOT
ATOM      1  C   UNL     1     -11.323 -17.950   9.701  0.00  0.00    +0.000 C 
ATOM      2  C   UNL     1     -11.853 -16.724  10.605  0.00  0.00    +0.000 C 
ATOM      3  C   UNL     1     -12.649 -16.940  11.830  0.00  0.00    +0.000 C 
ATOM      4  C   UNL     1     -12.826 -18.253  12.550  0.00  0.00    +0.000 C 
ATOM      5  C   UNL     1      -9.895 -17.554   9.359  0.00  0.00    +0.000 C 
ATOM      6  C   UNL     1     -11.417 -19.128  10.565  0.00  0.00    +0.000 C 
ATOM      7  C   UNL     1     -13.740 -18.439  13.792  0.00  0.00    +0.000 C 
ATOM      8  C   UNL     1     -10.837 -15.717  10.584  0.00  0.00    +0.000 C 
ATOM      9  C   UNL     1     -12.131 -19.299  11.884  0.00  0.00    +0.000 C 
ATOM     10  C   UNL     1      -9.629 -16.246   9.858  0.00  0.00    +0.000 C 
ATOM     11  C   UNL     1     -13.229 -15.852  12.527  0.00  0.00    +0.000 C 
ATOM     12  C   UNL     1     -12.209 -18.033   8.431  0.00  0.00    +0.000 C 
ATOM     13  C   UNL     1     -14.155 -17.024  14.538  0.00  0.00    +0.000 C 
ATOM     14  C   UNL     1     -13.021 -19.205  14.852  0.00  0.00    +0.000 C 
ATOM     15  C   UNL     1     -13.947 -15.949  13.839  0.00  0.00    +0.000 C 
ATOM     16  C   UNL     1     -15.062 -19.131  13.351  0.00  0.00    +0.000 C 
ATOM     17  C   UNL     1     -13.878 -16.966  15.955  0.00  0.00    +0.000 C 
ATOM     18  C   UNL     1     -12.746 -18.971  16.347  0.00  0.00    +0.000 C 
ATOM     19  C   UNL     1     -13.233 -17.772  16.946  0.00  0.00    +0.000 C 
ENDROOT
BRANCH  19  20
ATOM     20  O   UNL     1     -13.596 -17.731  18.260  0.00  0.00    +0.000 OA
ATOM     21  H   UNL     1     -14.518 -18.012  18.385  0.00  0.00    +0.000 HD
ENDBRANCH  19  20
BRANCH   5  22
ATOM     22  C   UNL     1      -8.951 -18.396   8.692  0.00  0.00    +0.000 C 
ATOM     23  C   UNL     1      -8.208 -19.498   9.403  0.00  0.00    +0.000 C 
BRANCH  22  24
ATOM     24  C   UNL     1      -8.665 -18.262   7.306  0.00  0.00    +0.000 C 
ATOM     25  C   UNL     1      -8.339 -18.095   5.815  0.00  0.00    +0.000 C 
BRANCH  25  26
ATOM     26  C   UNL     1      -8.040 -17.921   4.429  0.00  0.00    +0.000 C 
ATOM     27  C   UNL     1      -8.237 -16.638   3.789  0.00  0.00    +0.000 C 
ATOM     28  C   UNL     1      -8.745 -15.423   4.543  0.00  0.00    +0.000 C 
ATOM     29  C   UNL     1      -7.987 -16.390   2.318  0.00  0.00    +0.000 C 
BRANCH  26  30
ATOM     30  C   UNL     1      -7.537 -19.010   3.670  0.00  0.00    +0.000 C 
ATOM     31  C   UNL     1      -6.972 -20.207   2.896  0.00  0.00    +0.000 C 
ENDBRANCH  26  30
ENDBRANCH  25  26
ENDBRANCH  22  24
ENDBRANCH   5  22
TORSDOF 5
ENDMDL
MODEL 7
REMARK VINA RESULT:      -5.7     22.762     26.663
REMARK  Name = 222284_BetaSitosterol.pdbqt.pdb
REMARK  5 active torsions:
REMARK  status: ('A' for Active; 'I' for Inactive)
REMARK    1  A    between atoms: C_5  and  C_22
REMARK    2  A    between atoms: C_19  and  O_20
REMARK    3  A    between atoms: C_22  and  C_24
REMARK    4  A    between atoms: C_25  and  C_26
REMARK    5  A    between atoms: C_26  and  C_30
REMARK                            x       y       z     vdW  Elec       q    Type
REMARK                         _______ _______ _______ _____ _____    ______ ____
ROOT
ATOM      1  C   UNL     1       6.439  -4.907  11.044  0.00  0.00    +0.000 C 
ATOM      2  C   UNL     1       6.022  -3.536  10.303  0.00  0.00    +0.000 C 
ATOM      3  C   UNL     1       6.903  -2.350  10.296  0.00  0.00    +0.000 C 
ATOM      4  C   UNL     1       8.358  -2.326  10.691  0.00  0.00    +0.000 C 
ATOM      5  C   UNL     1       6.024  -5.989  10.059  0.00  0.00    +0.000 C 
ATOM      6  C   UNL     1       7.887  -4.810  11.237  0.00  0.00    +0.000 C 
ATOM      7  C   UNL     1       9.217  -1.033  10.739  0.00  0.00    +0.000 C 
ATOM      8  C   UNL     1       5.307  -3.900   9.119  0.00  0.00    +0.000 C 
ATOM      9  C   UNL     1       8.798  -3.614  11.102  0.00  0.00    +0.000 C 
ATOM     10  C   UNL     1       5.348  -5.395   8.954  0.00  0.00    +0.000 C 
ATOM     11  C   UNL     1       6.458  -1.112   9.770  0.00  0.00    +0.000 C 
ATOM     12  C   UNL     1       5.637  -5.005  12.367  0.00  0.00    +0.000 C 
ATOM     13  C   UNL     1       8.563   0.238   9.910  0.00  0.00    +0.000 C 
ATOM     14  C   UNL     1      10.531  -1.260  10.068  0.00  0.00    +0.000 C 
ATOM     15  C   UNL     1       7.307   0.112   9.604  0.00  0.00    +0.000 C 
ATOM     16  C   UNL     1       9.375  -0.583  12.220  0.00  0.00    +0.000 C 
ATOM     17  C   UNL     1       9.432   0.854   8.934  0.00  0.00    +0.000 C 
ATOM     18  C   UNL     1      11.313  -0.530   8.963  0.00  0.00    +0.000 C 
ATOM     19  C   UNL     1      10.728   0.628   8.371  0.00  0.00    +0.000 C 
ENDROOT
BRANCH  19  20
ATOM     20  O   UNL     1      11.498   1.647   7.892  0.00  0.00    +0.000 OA
ATOM     21  H   UNL     1      12.295   1.313   7.446  0.00  0.00    +0.000 HD
ENDBRANCH  19  20
BRANCH   5  22
ATOM     22  C   UNL     1       6.324  -7.379  10.199  0.00  0.00    +0.000 C 
ATOM     23  C   UNL     1       5.250  -8.438  10.240  0.00  0.00    +0.000 C 
BRANCH  22  24
ATOM     24  C   UNL     1       7.658  -7.861  10.289  0.00  0.00    +0.000 C 
ATOM     25  C   UNL     1       9.108  -8.361  10.368  0.00  0.00    +0.000 C 
BRANCH  25  26
ATOM     26  C   UNL     1      10.458  -8.825  10.422  0.00  0.00    +0.000 C 
ATOM     27  C   UNL     1      11.548  -7.962  10.025  0.00  0.00    +0.000 C 
ATOM     28  C   UNL     1      11.328  -6.536   9.555  0.00  0.00    +0.000 C 
ATOM     29  C   UNL     1      12.997  -8.397  10.010  0.00  0.00    +0.000 C 
BRANCH  26  30
ATOM     30  C   UNL     1      10.737 -10.141  10.876  0.00  0.00    +0.000 C 
ATOM     31  C   UNL     1      10.999 -11.556  11.403  0.00  0.00    +0.000 C 
ENDBRANCH  26  30
ENDBRANCH  25  26
ENDBRANCH  22  24
ENDBRANCH   5  22
TORSDOF 5
ENDMDL
MODEL 8
REMARK VINA RESULT:      -5.7     17.163     20.255
REMARK  Name = 222284_BetaSitosterol.pdbqt.pdb
REMARK  5 active torsions:
REMARK  status: ('A' for Active; 'I' for Inactive)
REMARK    1  A    between atoms: C_5  and  C_22
REMARK    2  A    between atoms: C_19  and  O_20
REMARK    3  A    between atoms: C_22  and  C_24
REMARK    4  A    between atoms: C_25  and  C_26
REMARK    5  A    between atoms: C_26  and  C_30
REMARK                            x       y       z     vdW  Elec       q    Type
REMARK                         _______ _______ _______ _____ _____    ______ ____
ROOT
ATOM      1  C   UNL     1       3.853 -12.205  15.117  0.00  0.00    +0.000 C 
ATOM      2  C   UNL     1       3.644 -13.621  15.859  0.00  0.00    +0.000 C 
ATOM      3  C   UNL     1       2.678 -13.792  16.964  0.00  0.00    +0.000 C 
ATOM      4  C   UNL     1       1.592 -12.819  17.348  0.00  0.00    +0.000 C 
ATOM      5  C   UNL     1       3.936 -12.579  13.645  0.00  0.00    +0.000 C 
ATOM      6  C   UNL     1       2.667 -11.417  15.460  0.00  0.00    +0.000 C 
ATOM      7  C   UNL     1       0.653 -13.014  18.570  0.00  0.00    +0.000 C 
ATOM      8  C   UNL     1       3.776 -14.640  14.864  0.00  0.00    +0.000 C 
ATOM      9  C   UNL     1       1.614 -11.671  16.510  0.00  0.00    +0.000 C 
ATOM     10  C   UNL     1       3.912 -13.996  13.510  0.00  0.00    +0.000 C 
ATOM     11  C   UNL     1       2.614 -15.001  17.699  0.00  0.00    +0.000 C 
ATOM     12  C   UNL     1       5.182 -11.586  15.622  0.00  0.00    +0.000 C 
ATOM     13  C   UNL     1       0.625 -14.558  19.156  0.00  0.00    +0.000 C 
ATOM     14  C   UNL     1      -0.764 -12.753  18.179  0.00  0.00    +0.000 C 
ATOM     15  C   UNL     1       1.596 -15.320  18.751  0.00  0.00    +0.000 C 
ATOM     16  C   UNL     1       1.129 -12.091  19.729  0.00  0.00    +0.000 C 
ATOM     17  C   UNL     1      -0.687 -15.151  19.278  0.00  0.00    +0.000 C 
ATOM     18  C   UNL     1      -2.079 -13.538  18.322  0.00  0.00    +0.000 C 
ATOM     19  C   UNL     1      -2.038 -14.823  18.940  0.00  0.00    +0.000 C 
ENDROOT
BRANCH  19  20
ATOM     20  O   UNL     1      -3.100 -15.304  19.649  0.00  0.00    +0.000 OA
ATOM     21  H   UNL     1      -3.478 -16.096  19.231  0.00  0.00    +0.000 HD
ENDBRANCH  19  20
BRANCH   5  22
ATOM     22  C   UNL     1       3.971 -11.642  12.565  0.00  0.00    +0.000 C 
ATOM     23  C   UNL     1       2.728 -11.212  11.828  0.00  0.00    +0.000 C 
BRANCH  22  24
ATOM     24  C   UNL     1       5.180 -11.038  12.126  0.00  0.00    +0.000 C 
ATOM     25  C   UNL     1       6.499 -10.410  11.654  0.00  0.00    +0.000 C 
BRANCH  25  26
ATOM     26  C   UNL     1       7.736  -9.835  11.229  0.00  0.00    +0.000 C 
ATOM     27  C   UNL     1       8.925 -10.651  11.114  0.00  0.00    +0.000 C 
ATOM     28  C   UNL     1       8.924 -12.138  11.414  0.00  0.00    +0.000 C 
ATOM     29  C   UNL     1      10.278 -10.104  10.716  0.00  0.00    +0.000 C 
BRANCH  26  30
ATOM     30  C   UNL     1       7.802  -8.454  10.907  0.00  0.00    +0.000 C 
ATOM     31  C   UNL     1       7.825  -6.967  10.533  0.00  0.00    +0.000 C 
ENDBRANCH  26  30
ENDBRANCH  25  26
ENDBRANCH  22  24
ENDBRANCH   5  22
TORSDOF 5
ENDMDL
MODEL 9
REMARK VINA RESULT:      -5.7     20.680     23.418
REMARK  Name = 222284_BetaSitosterol.pdbqt.pdb
REMARK  5 active torsions:
REMARK  status: ('A' for Active; 'I' for Inactive)
REMARK    1  A    between atoms: C_5  and  C_22
REMARK    2  A    between atoms: C_19  and  O_20
REMARK    3  A    between atoms: C_22  and  C_24
REMARK    4  A    between atoms: C_25  and  C_26
REMARK    5  A    between atoms: C_26  and  C_30
REMARK                            x       y       z     vdW  Elec       q    Type
REMARK                         _______ _______ _______ _____ _____    ______ ____
ROOT
ATOM      1  C   UNL     1       7.854  -2.503   9.619  0.00  0.00    +0.000 C 
ATOM      2  C   UNL     1       6.641  -3.513   9.292  0.00  0.00    +0.000 C 
ATOM      3  C   UNL     1       6.661  -4.927   9.720  0.00  0.00    +0.000 C 
ATOM      4  C   UNL     1       7.610  -5.535  10.722  0.00  0.00    +0.000 C 
ATOM      5  C   UNL     1       7.151  -1.223  10.043  0.00  0.00    +0.000 C 
ATOM      6  C   UNL     1       8.606  -3.148  10.697  0.00  0.00    +0.000 C 
ATOM      7  C   UNL     1       7.637  -7.046  11.078  0.00  0.00    +0.000 C 
ATOM      8  C   UNL     1       5.429  -2.758   9.382  0.00  0.00    +0.000 C 
ATOM      9  C   UNL     1       8.527  -4.564  11.212  0.00  0.00    +0.000 C 
ATOM     10  C   UNL     1       5.744  -1.374   9.882  0.00  0.00    +0.000 C 
ATOM     11  C   UNL     1       5.659  -5.834   9.297  0.00  0.00    +0.000 C 
ATOM     12  C   UNL     1       8.675  -2.296   8.320  0.00  0.00    +0.000 C 
ATOM     13  C   UNL     1       6.277  -7.867  10.623  0.00  0.00    +0.000 C 
ATOM     14  C   UNL     1       7.687  -7.228  12.558  0.00  0.00    +0.000 C 
ATOM     15  C   UNL     1       5.518  -7.250   9.769  0.00  0.00    +0.000 C 
ATOM     16  C   UNL     1       8.841  -7.716  10.355  0.00  0.00    +0.000 C 
ATOM     17  C   UNL     1       5.630  -8.621  11.672  0.00  0.00    +0.000 C 
ATOM     18  C   UNL     1       6.859  -8.039  13.569  0.00  0.00    +0.000 C 
ATOM     19  C   UNL     1       5.764  -8.811  13.084  0.00  0.00    +0.000 C 
ENDROOT
BRANCH  19  20
ATOM     20  O   UNL     1       5.382  -9.968  13.698  0.00  0.00    +0.000 OA
ATOM     21  H   UNL     1       5.562  -9.940  14.653  0.00  0.00    +0.000 HD
ENDBRANCH  19  20
BRANCH   5  22
ATOM     22  C   UNL     1       7.806  -0.070  10.579  0.00  0.00    +0.000 C 
ATOM     23  C   UNL     1       9.300   0.119  10.504  0.00  0.00    +0.000 C 
BRANCH  22  24
ATOM     24  C   UNL     1       7.089   0.987  11.202  0.00  0.00    +0.000 C 
ATOM     25  C   UNL     1       6.291   2.113  11.876  0.00  0.00    +0.000 C 
BRANCH  25  26
ATOM     26  C   UNL     1       5.534   3.157  12.490  0.00  0.00    +0.000 C 
ATOM     27  C   UNL     1       5.127   4.317  11.728  0.00  0.00    +0.000 C 
ATOM     28  C   UNL     1       5.457   4.480  10.256  0.00  0.00    +0.000 C 
ATOM     29  C   UNL     1       4.365   5.482  12.320  0.00  0.00    +0.000 C 
BRANCH  26  30
ATOM     30  C   UNL     1       5.169   3.056  13.858  0.00  0.00    +0.000 C 
ATOM     31  C   UNL     1       4.810   2.987  15.347  0.00  0.00    +0.000 C 
ENDBRANCH  26  30
ENDBRANCH  25  26
ENDBRANCH  22  24
ENDBRANCH   5  22
TORSDOF 5
ENDMDL
