MODEL 1
REMARK VINA RESULT:      -5.5      0.000      0.000
REMARK  Name = 25023738_BI-D-1870.pdbqt.pdb
REMARK  4 active torsions:
REMARK  status: ('A' for Active; 'I' for Inactive)
REMARK    1  A    between atoms: N_2  and  C_26
REMARK    2  A    between atoms: N_14  and  C_16
REMARK    3  A    between atoms: C_20  and  O_24
REMARK    4  A    between atoms: C_27  and  C_28
REMARK                            x       y       z     vdW  Elec       q    Type
REMARK                         _______ _______ _______ _____ _____    ______ ____
ROOT
ATOM      1  O   UNL     1     -16.891  -5.276  30.755  0.00  0.00    +0.000 OA
ATOM      2  N   UNL     1     -13.922  -6.176  28.894  0.00  0.00    +0.000 N 
ATOM      3  N   UNL     1     -14.870  -4.130  30.585  0.00  0.00    +0.000 N 
ATOM      4  N   UNL     1     -11.834  -5.039  28.688  0.00  0.00    +0.000 NA
ATOM      5  N   UNL     1     -11.419  -3.004  29.774  0.00  0.00    +0.000 NA
ATOM      6  C   UNL     1     -15.203  -6.276  29.393  0.00  0.00    +0.000 C 
ATOM      7  C   UNL     1     -13.084  -5.085  29.206  0.00  0.00    +0.000 A 
ATOM      8  C   UNL     1     -15.746  -5.200  30.301  0.00  0.00    +0.000 C 
ATOM      9  C   UNL     1     -13.560  -4.093  30.033  0.00  0.00    +0.000 A 
ATOM     10  C   UNL     1     -16.072  -7.473  29.026  0.00  0.00    +0.000 C 
ATOM     11  C   UNL     1     -15.217  -3.000  31.441  0.00  0.00    +0.000 C 
ATOM     12  C   UNL     1     -12.666  -3.073  30.277  0.00  0.00    +0.000 A 
ATOM     13  C   UNL     1     -11.035  -4.003  28.983  0.00  0.00    +0.000 A 
ATOM     14  N   UNL     1      -9.747  -3.920  28.472  0.00  0.00    +0.000 N 
ATOM     15  H   UNL     1      -9.283  -3.079  28.793  0.00  0.00    +0.000 HD
ENDROOT
BRANCH  14  16
ATOM     16  C   UNL     1      -9.027  -4.773  27.628  0.00  0.00    +0.000 A 
ATOM     17  C   UNL     1      -8.470  -4.258  26.449  0.00  0.00    +0.000 A 
ATOM     18  C   UNL     1      -7.746  -5.077  25.585  0.00  0.00    +0.000 A 
ATOM     19  F   UNL     1      -7.230  -4.547  24.467  0.00  0.00    +0.000 F 
ATOM     20  C   UNL     1      -7.564  -6.422  25.877  0.00  0.00    +0.000 A 
ATOM     21  C   UNL     1      -8.113  -6.940  27.041  0.00  0.00    +0.000 A 
ATOM     22  F   UNL     1      -7.943  -8.237  27.335  0.00  0.00    +0.000 F 
ATOM     23  C   UNL     1      -8.836  -6.128  27.910  0.00  0.00    +0.000 A 
BRANCH  20  24
ATOM     24  O   UNL     1      -6.854  -7.220  25.024  0.00  0.00    +0.000 OA
ATOM     25  H   UNL     1      -6.943  -8.143  25.330  0.00  0.00    +0.000 HD
ENDBRANCH  20  24
ENDBRANCH  14  16
BRANCH   2  26
ATOM     26  C   UNL     1     -13.393  -7.214  28.013  0.00  0.00    +0.000 C 
ATOM     27  C   UNL     1     -12.833  -8.301  27.087  0.00  0.00    +0.000 C 
BRANCH  27  28
ATOM     28  C   UNL     1     -12.322  -9.305  26.236  0.00  0.00    +0.000 C 
ATOM     29  C   UNL     1     -10.841  -9.480  26.094  0.00  0.00    +0.000 C 
ATOM     30  C   UNL     1     -13.261 -10.156  25.438  0.00  0.00    +0.000 C 
ENDBRANCH  27  28
ENDBRANCH   2  26
TORSDOF 4
ENDMDL
MODEL 2
REMARK VINA RESULT:      -5.4     13.475     15.043
REMARK  Name = 25023738_BI-D-1870.pdbqt.pdb
REMARK  4 active torsions:
REMARK  status: ('A' for Active; 'I' for Inactive)
REMARK    1  A    between atoms: N_2  and  C_26
REMARK    2  A    between atoms: N_14  and  C_16
REMARK    3  A    between atoms: C_20  and  O_24
REMARK    4  A    between atoms: C_27  and  C_28
REMARK                            x       y       z     vdW  Elec       q    Type
REMARK                         _______ _______ _______ _____ _____    ______ ____
ROOT
ATOM      1  O   UNL     1      -4.752 -17.476  27.720  0.00  0.00    +0.000 OA
ATOM      2  N   UNL     1      -4.946 -16.897  24.154  0.00  0.00    +0.000 N 
ATOM      3  N   UNL     1      -3.020 -17.184  26.191  0.00  0.00    +0.000 N 
ATOM      4  N   UNL     1      -3.206 -16.592  22.550  0.00  0.00    +0.000 NA
ATOM      5  N   UNL     1      -0.942 -16.635  23.155  0.00  0.00    +0.000 NA
ATOM      6  C   UNL     1      -5.380 -17.118  25.443  0.00  0.00    +0.000 C 
ATOM      7  C   UNL     1      -3.576 -16.810  23.833  0.00  0.00    +0.000 A 
ATOM      8  C   UNL     1      -4.378 -17.277  26.560  0.00  0.00    +0.000 C 
ATOM      9  C   UNL     1      -2.645 -16.952  24.839  0.00  0.00    +0.000 A 
ATOM     10  C   UNL     1      -6.873 -17.203  25.741  0.00  0.00    +0.000 C 
ATOM     11  C   UNL     1      -1.910 -17.311  27.130  0.00  0.00    +0.000 C 
ATOM     12  C   UNL     1      -1.335 -16.852  24.423  0.00  0.00    +0.000 A 
ATOM     13  C   UNL     1      -1.904 -16.509  22.242  0.00  0.00    +0.000 A 
ATOM     14  N   UNL     1      -1.485 -16.285  20.938  0.00  0.00    +0.000 N 
ATOM     15  H   UNL     1      -0.475 -16.251  20.882  0.00  0.00    +0.000 HD
ENDROOT
BRANCH  14  16
ATOM     16  C   UNL     1      -2.204 -16.111  19.750  0.00  0.00    +0.000 A 
ATOM     17  C   UNL     1      -2.236 -14.845  19.150  0.00  0.00    +0.000 A 
ATOM     18  C   UNL     1      -2.941 -14.633  17.966  0.00  0.00    +0.000 A 
ATOM     19  F   UNL     1      -2.947 -13.407  17.424  0.00  0.00    +0.000 F 
ATOM     20  C   UNL     1      -3.628 -15.676  17.360  0.00  0.00    +0.000 A 
ATOM     21  C   UNL     1      -3.602 -16.933  17.948  0.00  0.00    +0.000 A 
ATOM     22  F   UNL     1      -4.261 -17.949  17.371  0.00  0.00    +0.000 F 
ATOM     23  C   UNL     1      -2.899 -17.152  19.129  0.00  0.00    +0.000 A 
BRANCH  20  24
ATOM     24  O   UNL     1      -4.318 -15.461  16.200  0.00  0.00    +0.000 OA
ATOM     25  H   UNL     1      -3.893 -15.987  15.495  0.00  0.00    +0.000 HD
ENDBRANCH  20  24
ENDBRANCH  14  16
BRANCH   2  26
ATOM     26  C   UNL     1      -5.912 -16.741  23.070  0.00  0.00    +0.000 C 
ATOM     27  C   UNL     1      -6.929 -16.581  21.932  0.00  0.00    +0.000 C 
BRANCH  27  28
ATOM     28  C   UNL     1      -7.863 -16.430  20.884  0.00  0.00    +0.000 C 
ATOM     29  C   UNL     1      -7.384 -16.153  19.492  0.00  0.00    +0.000 C 
ATOM     30  C   UNL     1      -9.330 -16.494  21.177  0.00  0.00    +0.000 C 
ENDBRANCH  27  28
ENDBRANCH   2  26
TORSDOF 4
ENDMDL
MODEL 3
REMARK VINA RESULT:      -5.3     25.699     28.925
REMARK  Name = 25023738_BI-D-1870.pdbqt.pdb
REMARK  4 active torsions:
REMARK  status: ('A' for Active; 'I' for Inactive)
REMARK    1  A    between atoms: N_2  and  C_26
REMARK    2  A    between atoms: N_14  and  C_16
REMARK    3  A    between atoms: C_20  and  O_24
REMARK    4  A    between atoms: C_27  and  C_28
REMARK                            x       y       z     vdW  Elec       q    Type
REMARK                         _______ _______ _______ _____ _____    ______ ____
ROOT
ATOM      1  O   UNL     1      -2.937  12.275   1.552  0.00  0.00    +0.000 OA
ATOM      2  N   UNL     1      -4.727  10.207   3.920  0.00  0.00    +0.000 N 
ATOM      3  N   UNL     1      -4.259  10.400   1.148  0.00  0.00    +0.000 N 
ATOM      4  N   UNL     1      -6.090   8.283   3.557  0.00  0.00    +0.000 NA
ATOM      5  N   UNL     1      -6.469   7.420   1.411  0.00  0.00    +0.000 NA
ATOM      6  C   UNL     1      -3.926  11.229   3.458  0.00  0.00    +0.000 C 
ATOM      7  C   UNL     1      -5.312   9.266   3.048  0.00  0.00    +0.000 A 
ATOM      8  C   UNL     1      -3.653  11.365   1.980  0.00  0.00    +0.000 C 
ATOM      9  C   UNL     1      -5.075   9.373   1.696  0.00  0.00    +0.000 A 
ATOM     10  C   UNL     1      -3.317  12.223   4.440  0.00  0.00    +0.000 C 
ATOM     11  C   UNL     1      -4.111  10.369  -0.303  0.00  0.00    +0.000 C 
ATOM     12  C   UNL     1      -5.691   8.406   0.930  0.00  0.00    +0.000 A 
ATOM     13  C   UNL     1      -6.648   7.386   2.730  0.00  0.00    +0.000 A 
ATOM     14  N   UNL     1      -7.452   6.363   3.214  0.00  0.00    +0.000 N 
ATOM     15  H   UNL     1      -7.790   5.779   2.459  0.00  0.00    +0.000 HD
ENDROOT
BRANCH  14  16
ATOM     16  C   UNL     1      -7.846   6.029   4.514  0.00  0.00    +0.000 A 
ATOM     17  C   UNL     1      -6.869   5.890   5.510  0.00  0.00    +0.000 A 
ATOM     18  C   UNL     1      -7.223   5.559   6.816  0.00  0.00    +0.000 A 
ATOM     19  F   UNL     1      -6.259   5.435   7.740  0.00  0.00    +0.000 F 
ATOM     20  C   UNL     1      -8.555   5.359   7.156  0.00  0.00    +0.000 A 
ATOM     21  C   UNL     1      -9.528   5.494   6.176  0.00  0.00    +0.000 A 
ATOM     22  F   UNL     1     -10.817   5.304   6.492  0.00  0.00    +0.000 F 
ATOM     23  C   UNL     1      -9.182   5.826   4.869  0.00  0.00    +0.000 A 
BRANCH  20  24
ATOM     24  O   UNL     1      -8.895   5.034   8.439  0.00  0.00    +0.000 OA
ATOM     25  H   UNL     1      -8.455   4.191   8.663  0.00  0.00    +0.000 HD
ENDBRANCH  20  24
ENDBRANCH  14  16
BRANCH   2  26
ATOM     26  C   UNL     1      -4.996  10.073   5.350  0.00  0.00    +0.000 C 
ATOM     27  C   UNL     1      -5.283   9.934   6.850  0.00  0.00    +0.000 C 
BRANCH  27  28
ATOM     28  C   UNL     1      -5.543   9.803   8.232  0.00  0.00    +0.000 C 
ATOM     29  C   UNL     1      -6.385   8.668   8.729  0.00  0.00    +0.000 C 
ATOM     30  C   UNL     1      -5.020  10.829   9.189  0.00  0.00    +0.000 C 
ENDBRANCH  27  28
ENDBRANCH   2  26
TORSDOF 4
ENDMDL
MODEL 4
REMARK VINA RESULT:      -4.7      3.053      4.666
REMARK  Name = 25023738_BI-D-1870.pdbqt.pdb
REMARK  4 active torsions:
REMARK  status: ('A' for Active; 'I' for Inactive)
REMARK    1  A    between atoms: N_2  and  C_26
REMARK    2  A    between atoms: N_14  and  C_16
REMARK    3  A    between atoms: C_20  and  O_24
REMARK    4  A    between atoms: C_27  and  C_28
REMARK                            x       y       z     vdW  Elec       q    Type
REMARK                         _______ _______ _______ _____ _____    ______ ____
ROOT
ATOM      1  O   UNL     1     -14.425  -9.369  28.614  0.00  0.00    +0.000 OA
ATOM      2  N   UNL     1     -12.146  -6.622  28.025  0.00  0.00    +0.000 N 
ATOM      3  N   UNL     1     -14.680  -7.117  29.153  0.00  0.00    +0.000 N 
ATOM      4  N   UNL     1     -12.361  -4.306  28.557  0.00  0.00    +0.000 NA
ATOM      5  N   UNL     1     -14.262  -3.452  29.629  0.00  0.00    +0.000 NA
ATOM      6  C   UNL     1     -12.628  -7.913  28.018  0.00  0.00    +0.000 C 
ATOM      7  C   UNL     1     -12.883  -5.554  28.577  0.00  0.00    +0.000 A 
ATOM      8  C   UNL     1     -13.981  -8.217  28.613  0.00  0.00    +0.000 C 
ATOM      9  C   UNL     1     -14.120  -5.811  29.125  0.00  0.00    +0.000 A 
ATOM     10  C   UNL     1     -11.794  -9.034  27.408  0.00  0.00    +0.000 C 
ATOM     11  C   UNL     1     -15.999  -7.215  29.770  0.00  0.00    +0.000 C 
ATOM     12  C   UNL     1     -14.759  -4.702  29.638  0.00  0.00    +0.000 A 
ATOM     13  C   UNL     1     -13.060  -3.288  29.081  0.00  0.00    +0.000 A 
ATOM     14  N   UNL     1     -12.558  -1.994  29.080  0.00  0.00    +0.000 N 
ATOM     15  H   UNL     1     -13.210  -1.352  29.513  0.00  0.00    +0.000 HD
ENDROOT
BRANCH  14  16
ATOM     16  C   UNL     1     -11.353  -1.467  28.601  0.00  0.00    +0.000 A 
ATOM     17  C   UNL     1     -11.323  -0.876  27.331  0.00  0.00    +0.000 A 
ATOM     18  C   UNL     1     -10.142  -0.340  26.820  0.00  0.00    +0.000 A 
ATOM     19  F   UNL     1     -10.155   0.217  25.600  0.00  0.00    +0.000 F 
ATOM     20  C   UNL     1      -8.970  -0.383  27.564  0.00  0.00    +0.000 A 
ATOM     21  C   UNL     1      -8.992  -0.967  28.822  0.00  0.00    +0.000 A 
ATOM     22  F   UNL     1      -7.866  -1.014  29.550  0.00  0.00    +0.000 F 
ATOM     23  C   UNL     1     -10.167  -1.504  29.339  0.00  0.00    +0.000 A 
BRANCH  20  24
ATOM     24  O   UNL     1      -7.816   0.144  27.057  0.00  0.00    +0.000 OA
ATOM     25  H   UNL     1      -7.970   0.359  26.117  0.00  0.00    +0.000 HD
ENDBRANCH  20  24
ENDBRANCH  14  16
BRANCH   2  26
ATOM     26  C   UNL     1     -10.837  -6.322  27.449  0.00  0.00    +0.000 C 
ATOM     27  C   UNL     1      -9.462  -6.007  26.848  0.00  0.00    +0.000 C 
BRANCH  27  28
ATOM     28  C   UNL     1      -8.197  -5.718  26.290  0.00  0.00    +0.000 C 
ATOM     29  C   UNL     1      -7.582  -4.367  26.495  0.00  0.00    +0.000 C 
ATOM     30  C   UNL     1      -7.499  -6.745  25.453  0.00  0.00    +0.000 C 
ENDBRANCH  27  28
ENDBRANCH   2  26
TORSDOF 4
ENDMDL
MODEL 5
REMARK VINA RESULT:      -4.6     28.652     31.342
REMARK  Name = 25023738_BI-D-1870.pdbqt.pdb
REMARK  4 active torsions:
REMARK  status: ('A' for Active; 'I' for Inactive)
REMARK    1  A    between atoms: N_2  and  C_26
REMARK    2  A    between atoms: N_14  and  C_16
REMARK    3  A    between atoms: C_20  and  O_24
REMARK    4  A    between atoms: C_27  and  C_28
REMARK                            x       y       z     vdW  Elec       q    Type
REMARK                         _______ _______ _______ _____ _____    ______ ____
ROOT
ATOM      1  O   UNL     1      -0.914 -21.559   8.340  0.00  0.00    +0.000 OA
ATOM      2  N   UNL     1       2.098 -20.571   6.598  0.00  0.00    +0.000 N 
ATOM      3  N   UNL     1      -0.668 -20.850   6.135  0.00  0.00    +0.000 N 
ATOM      4  N   UNL     1       2.402 -19.839   4.347  0.00  0.00    +0.000 NA
ATOM      5  N   UNL     1       0.607 -19.657   2.851  0.00  0.00    +0.000 NA
ATOM      6  C   UNL     1       1.299 -21.007   7.632  0.00  0.00    +0.000 C 
ATOM      7  C   UNL     1       1.570 -20.264   5.326  0.00  0.00    +0.000 A 
ATOM      8  C   UNL     1      -0.186 -21.169   7.422  0.00  0.00    +0.000 C 
ATOM      9  C   UNL     1       0.217 -20.406   5.114  0.00  0.00    +0.000 A 
ATOM     10  C   UNL     1       1.916 -21.328   8.989  0.00  0.00    +0.000 C 
ATOM     11  C   UNL     1      -2.070 -20.944   5.744  0.00  0.00    +0.000 C 
ATOM     12  C   UNL     1      -0.199 -20.081   3.841  0.00  0.00    +0.000 A 
ATOM     13  C   UNL     1       1.903 -19.547   3.137  0.00  0.00    +0.000 A 
ATOM     14  N   UNL     1       2.723 -19.108   2.107  0.00  0.00    +0.000 N 
ATOM     15  H   UNL     1       2.187 -18.934   1.266  0.00  0.00    +0.000 HD
ENDROOT
BRANCH  14  16
ATOM     16  C   UNL     1       4.103 -18.880   2.053  0.00  0.00    +0.000 A 
ATOM     17  C   UNL     1       4.694 -18.042   3.008  0.00  0.00    +0.000 A 
ATOM     18  C   UNL     1       6.065 -17.791   2.987  0.00  0.00    +0.000 A 
ATOM     19  F   UNL     1       6.593 -16.983   3.918  0.00  0.00    +0.000 F 
ATOM     20  C   UNL     1       6.871 -18.367   2.014  0.00  0.00    +0.000 A 
ATOM     21  C   UNL     1       6.293 -19.197   1.064  0.00  0.00    +0.000 A 
ATOM     22  F   UNL     1       7.062 -19.761   0.121  0.00  0.00    +0.000 F 
ATOM     23  C   UNL     1       4.925 -19.454   1.080  0.00  0.00    +0.000 A 
BRANCH  20  24
ATOM     24  O   UNL     1       8.214 -18.116   1.999  0.00  0.00    +0.000 OA
ATOM     25  H   UNL     1       8.682 -18.973   2.042  0.00  0.00    +0.000 HD
ENDBRANCH  20  24
ENDBRANCH  14  16
BRANCH   2  26
ATOM     26  C   UNL     1       3.537 -20.415   6.796  0.00  0.00    +0.000 C 
ATOM     27  C   UNL     1       5.048 -20.249   6.999  0.00  0.00    +0.000 C 
BRANCH  27  28
ATOM     28  C   UNL     1       6.439 -20.097   7.191  0.00  0.00    +0.000 C 
ATOM     29  C   UNL     1       7.254 -19.344   6.184  0.00  0.00    +0.000 C 
ATOM     30  C   UNL     1       7.103 -20.734   8.373  0.00  0.00    +0.000 C 
ENDBRANCH  27  28
ENDBRANCH   2  26
TORSDOF 4
ENDMDL
MODEL 6
REMARK VINA RESULT:      -4.5      4.497      6.468
REMARK  Name = 25023738_BI-D-1870.pdbqt.pdb
REMARK  4 active torsions:
REMARK  status: ('A' for Active; 'I' for Inactive)
REMARK    1  A    between atoms: N_2  and  C_26
REMARK    2  A    between atoms: N_14  and  C_16
REMARK    3  A    between atoms: C_20  and  O_24
REMARK    4  A    between atoms: C_27  and  C_28
REMARK                            x       y       z     vdW  Elec       q    Type
REMARK                         _______ _______ _______ _____ _____    ______ ____
ROOT
ATOM      1  O   UNL     1      -8.736 -13.315  31.552  0.00  0.00    +0.000 OA
ATOM      2  N   UNL     1      -9.119 -10.261  29.652  0.00  0.00    +0.000 N 
ATOM      3  N   UNL     1      -7.244 -11.541  31.322  0.00  0.00    +0.000 N 
ATOM      4  N   UNL     1      -7.625  -8.419  29.385  0.00  0.00    +0.000 NA
ATOM      5  N   UNL     1      -5.526  -8.366  30.426  0.00  0.00    +0.000 NA
ATOM      6  C   UNL     1      -9.440 -11.494  30.176  0.00  0.00    +0.000 C 
ATOM      7  C   UNL     1      -7.888  -9.630  29.928  0.00  0.00    +0.000 A 
ATOM      8  C   UNL     1      -8.462 -12.210  31.075  0.00  0.00    +0.000 C 
ATOM      9  C   UNL     1      -6.981 -10.268  30.746  0.00  0.00    +0.000 A 
ATOM     10  C   UNL     1     -10.784 -12.135  29.850  0.00  0.00    +0.000 C 
ATOM     11  C   UNL     1      -6.178 -12.075  32.163  0.00  0.00    +0.000 C 
ATOM     12  C   UNL     1      -5.811  -9.571  30.954  0.00  0.00    +0.000 A 
ATOM     13  C   UNL     1      -6.456  -7.817  29.646  0.00  0.00    +0.000 A 
ATOM     14  N   UNL     1      -6.149  -6.575  29.108  0.00  0.00    +0.000 N 
ATOM     15  H   UNL     1      -5.231  -6.268  29.405  0.00  0.00    +0.000 HD
ENDROOT
BRANCH  14  16
ATOM     16  C   UNL     1      -6.872  -5.726  28.263  0.00  0.00    +0.000 A 
ATOM     17  C   UNL     1      -7.695  -4.741  28.825  0.00  0.00    +0.000 A 
ATOM     18  C   UNL     1      -8.430  -3.877  28.014  0.00  0.00    +0.000 A 
ATOM     19  F   UNL     1      -9.205  -2.947  28.591  0.00  0.00    +0.000 F 
ATOM     20  C   UNL     1      -8.361  -3.980  26.631  0.00  0.00    +0.000 A 
ATOM     21  C   UNL     1      -7.550  -4.954  26.067  0.00  0.00    +0.000 A 
ATOM     22  F   UNL     1      -7.474  -5.062  24.733  0.00  0.00    +0.000 F 
ATOM     23  C   UNL     1      -6.812  -5.819  26.870  0.00  0.00    +0.000 A 
BRANCH  20  24
ATOM     24  O   UNL     1      -9.085  -3.130  25.843  0.00  0.00    +0.000 OA
ATOM     25  H   UNL     1      -9.937  -3.561  25.639  0.00  0.00    +0.000 HD
ENDBRANCH  20  24
ENDBRANCH  14  16
BRANCH   2  26
ATOM     26  C   UNL     1     -10.063  -9.563  28.783  0.00  0.00    +0.000 C 
ATOM     27  C   UNL     1     -11.051  -8.828  27.869  0.00  0.00    +0.000 C 
BRANCH  27  28
ATOM     28  C   UNL     1     -11.965  -8.153  27.029  0.00  0.00    +0.000 C 
ATOM     29  C   UNL     1     -12.245  -6.698  27.247  0.00  0.00    +0.000 C 
ATOM     30  C   UNL     1     -12.690  -8.908  25.957  0.00  0.00    +0.000 C 
ENDBRANCH  27  28
ENDBRANCH   2  26
TORSDOF 4
ENDMDL
MODEL 7
REMARK VINA RESULT:      -4.4     12.992     15.865
REMARK  Name = 25023738_BI-D-1870.pdbqt.pdb
REMARK  4 active torsions:
REMARK  status: ('A' for Active; 'I' for Inactive)
REMARK    1  A    between atoms: N_2  and  C_26
REMARK    2  A    between atoms: N_14  and  C_16
REMARK    3  A    between atoms: C_20  and  O_24
REMARK    4  A    between atoms: C_27  and  C_28
REMARK                            x       y       z     vdW  Elec       q    Type
REMARK                         _______ _______ _______ _____ _____    ______ ____
ROOT
ATOM      1  O   UNL     1       0.719 -16.900  23.084  0.00  0.00    +0.000 OA
ATOM      2  N   UNL     1      -2.717 -16.954  21.951  0.00  0.00    +0.000 N 
ATOM      3  N   UNL     1      -1.222 -17.273  24.318  0.00  0.00    +0.000 N 
ATOM      4  N   UNL     1      -4.732 -17.331  23.172  0.00  0.00    +0.000 NA
ATOM      5  N   UNL     1      -4.723 -17.753  25.477  0.00  0.00    +0.000 NA
ATOM      6  C   UNL     1      -1.345 -16.837  21.883  0.00  0.00    +0.000 C 
ATOM      7  C   UNL     1      -3.383 -17.227  23.163  0.00  0.00    +0.000 A 
ATOM      8  C   UNL     1      -0.511 -17.002  23.129  0.00  0.00    +0.000 C 
ATOM      9  C   UNL     1      -2.639 -17.381  24.312  0.00  0.00    +0.000 A 
ATOM     10  C   UNL     1      -0.671 -16.543  20.548  0.00  0.00    +0.000 C 
ATOM     11  C   UNL     1      -0.589 -17.463  25.619  0.00  0.00    +0.000 C 
ATOM     12  C   UNL     1      -3.382 -17.644  25.443  0.00  0.00    +0.000 A 
ATOM     13  C   UNL     1      -5.368 -17.591  24.324  0.00  0.00    +0.000 A 
ATOM     14  N   UNL     1      -6.751 -17.704  24.373  0.00  0.00    +0.000 N 
ATOM     15  H   UNL     1      -7.065 -17.901  25.315  0.00  0.00    +0.000 HD
ENDROOT
BRANCH  14  16
ATOM     16  C   UNL     1      -7.726 -17.593  23.376  0.00  0.00    +0.000 A 
ATOM     17  C   UNL     1      -8.561 -16.468  23.359  0.00  0.00    +0.000 A 
ATOM     18  C   UNL     1      -9.544 -16.322  22.381  0.00  0.00    +0.000 A 
ATOM     19  F   UNL     1     -10.322 -15.230  22.399  0.00  0.00    +0.000 F 
ATOM     20  C   UNL     1      -9.715 -17.294  21.405  0.00  0.00    +0.000 A 
ATOM     21  C   UNL     1      -8.893 -18.413  21.416  0.00  0.00    +0.000 A 
ATOM     22  F   UNL     1      -9.048 -19.358  20.477  0.00  0.00    +0.000 F 
ATOM     23  C   UNL     1      -7.908 -18.564  22.388  0.00  0.00    +0.000 A 
BRANCH  20  24
ATOM     24  O   UNL     1     -10.681 -17.146  20.450  0.00  0.00    +0.000 OA
ATOM     25  H   UNL     1     -10.315 -16.590  19.735  0.00  0.00    +0.000 HD
ENDBRANCH  20  24
ENDBRANCH  14  16
BRANCH   2  26
ATOM     26  C   UNL     1      -3.529 -16.798  20.746  0.00  0.00    +0.000 C 
ATOM     27  C   UNL     1      -4.382 -16.638  19.482  0.00  0.00    +0.000 C 
BRANCH  27  28
ATOM     28  C   UNL     1      -5.167 -16.486  18.318  0.00  0.00    +0.000 C 
ATOM     29  C   UNL     1      -6.655 -16.641  18.396  0.00  0.00    +0.000 C 
ATOM     30  C   UNL     1      -4.505 -16.223  17.001  0.00  0.00    +0.000 C 
ENDBRANCH  27  28
ENDBRANCH   2  26
TORSDOF 4
ENDMDL
MODEL 8
REMARK VINA RESULT:      -4.4      2.781      4.317
REMARK  Name = 25023738_BI-D-1870.pdbqt.pdb
REMARK  4 active torsions:
REMARK  status: ('A' for Active; 'I' for Inactive)
REMARK    1  A    between atoms: N_2  and  C_26
REMARK    2  A    between atoms: N_14  and  C_16
REMARK    3  A    between atoms: C_20  and  O_24
REMARK    4  A    between atoms: C_27  and  C_28
REMARK                            x       y       z     vdW  Elec       q    Type
REMARK                         _______ _______ _______ _____ _____    ______ ____
ROOT
ATOM      1  O   UNL     1     -15.611  -8.600  27.513  0.00  0.00    +0.000 OA
ATOM      2  N   UNL     1     -12.536  -6.716  27.808  0.00  0.00    +0.000 N 
ATOM      3  N   UNL     1     -15.278  -6.477  28.413  0.00  0.00    +0.000 N 
ATOM      4  N   UNL     1     -12.145  -4.546  28.718  0.00  0.00    +0.000 NA
ATOM      5  N   UNL     1     -13.878  -3.249  29.618  0.00  0.00    +0.000 NA
ATOM      6  C   UNL     1     -13.374  -7.762  27.486  0.00  0.00    +0.000 C 
ATOM      7  C   UNL     1     -13.013  -5.541  28.425  0.00  0.00    +0.000 A 
ATOM      8  C   UNL     1     -14.849  -7.670  27.795  0.00  0.00    +0.000 C 
ATOM      9  C   UNL     1     -14.356  -5.438  28.715  0.00  0.00    +0.000 A 
ATOM     10  C   UNL     1     -12.812  -9.012  26.818  0.00  0.00    +0.000 C 
ATOM     11  C   UNL     1     -16.663  -6.206  28.786  0.00  0.00    +0.000 C 
ATOM     12  C   UNL     1     -14.721  -4.253  29.317  0.00  0.00    +0.000 A 
ATOM     13  C   UNL     1     -12.596  -3.427  29.305  0.00  0.00    +0.000 A 
ATOM     14  N   UNL     1     -11.737  -2.384  29.622  0.00  0.00    +0.000 N 
ATOM     15  H   UNL     1     -12.239  -1.620  30.058  0.00  0.00    +0.000 HD
ENDROOT
BRANCH  14  16
ATOM     16  C   UNL     1     -10.357  -2.232  29.444  0.00  0.00    +0.000 A 
ATOM     17  C   UNL     1      -9.495  -2.511  30.513  0.00  0.00    +0.000 A 
ATOM     18  C   UNL     1      -8.116  -2.372  30.373  0.00  0.00    +0.000 A 
ATOM     19  F   UNL     1      -7.325  -2.649  31.420  0.00  0.00    +0.000 F 
ATOM     20  C   UNL     1      -7.569  -1.951  29.168  0.00  0.00    +0.000 A 
ATOM     21  C   UNL     1      -8.416  -1.671  28.105  0.00  0.00    +0.000 A 
ATOM     22  F   UNL     1      -7.900  -1.265  26.936  0.00  0.00    +0.000 F 
ATOM     23  C   UNL     1      -9.795  -1.809  28.237  0.00  0.00    +0.000 A 
BRANCH  20  24
ATOM     24  O   UNL     1      -6.216  -1.815  29.038  0.00  0.00    +0.000 OA
ATOM     25  H   UNL     1      -5.970  -2.094  28.135  0.00  0.00    +0.000 HD
ENDBRANCH  20  24
ENDBRANCH  14  16
BRANCH   2  26
ATOM     26  C   UNL     1     -11.109  -6.799  27.509  0.00  0.00    +0.000 C 
ATOM     27  C   UNL     1      -9.609  -6.885  27.201  0.00  0.00    +0.000 C 
BRANCH  27  28
ATOM     28  C   UNL     1      -8.229  -6.966  26.911  0.00  0.00    +0.000 C 
ATOM     29  C   UNL     1      -7.721  -6.534  25.570  0.00  0.00    +0.000 C 
ATOM     30  C   UNL     1      -7.286  -7.532  27.928  0.00  0.00    +0.000 C 
ENDBRANCH  27  28
ENDBRANCH   2  26
TORSDOF 4
ENDMDL
MODEL 9
REMARK VINA RESULT:      -4.3     14.562     16.898
REMARK  Name = 25023738_BI-D-1870.pdbqt.pdb
REMARK  4 active torsions:
REMARK  status: ('A' for Active; 'I' for Inactive)
REMARK    1  A    between atoms: N_2  and  C_26
REMARK    2  A    between atoms: N_14  and  C_16
REMARK    3  A    between atoms: C_20  and  O_24
REMARK    4  A    between atoms: C_27  and  C_28
REMARK                            x       y       z     vdW  Elec       q    Type
REMARK                         _______ _______ _______ _____ _____    ______ ____
ROOT
ATOM      1  O   UNL     1       1.007  -0.652  28.404  0.00  0.00    +0.000 OA
ATOM      2  N   UNL     1       2.039  -0.272  24.957  0.00  0.00    +0.000 N 
ATOM      3  N   UNL     1       1.869  -2.256  26.951  0.00  0.00    +0.000 N 
ATOM      4  N   UNL     1       2.926  -1.879  23.432  0.00  0.00    +0.000 NA
ATOM      5  N   UNL     1       3.267  -4.114  24.048  0.00  0.00    +0.000 NA
ATOM      6  C   UNL     1       1.550   0.081  26.196  0.00  0.00    +0.000 C 
ATOM      7  C   UNL     1       2.454  -1.588  24.667  0.00  0.00    +0.000 A 
ATOM      8  C   UNL     1       1.444  -0.954  27.289  0.00  0.00    +0.000 C 
ATOM      9  C   UNL     1       2.365  -2.548  25.650  0.00  0.00    +0.000 A 
ATOM     10  C   UNL     1       1.116   1.518  26.463  0.00  0.00    +0.000 C 
ATOM     11  C   UNL     1       1.842  -3.387  27.873  0.00  0.00    +0.000 C 
ATOM     12  C   UNL     1       2.793  -3.800  25.267  0.00  0.00    +0.000 A 
ATOM     13  C   UNL     1       3.320  -3.130  23.153  0.00  0.00    +0.000 A 
ATOM     14  N   UNL     1       3.811  -3.467  21.899  0.00  0.00    +0.000 N 
ATOM     15  H   UNL     1       4.061  -4.447  21.859  0.00  0.00    +0.000 HD
ENDROOT
BRANCH  14  16
ATOM     16  C   UNL     1       4.001  -2.704  20.741  0.00  0.00    +0.000 A 
ATOM     17  C   UNL     1       3.360  -3.090  19.556  0.00  0.00    +0.000 A 
ATOM     18  C   UNL     1       3.525  -2.354  18.383  0.00  0.00    +0.000 A 
ATOM     19  F   UNL     1       2.895  -2.756  17.270  0.00  0.00    +0.000 F 
ATOM     20  C   UNL     1       4.331  -1.223  18.369  0.00  0.00    +0.000 A 
ATOM     21  C   UNL     1       4.969  -0.836  19.538  0.00  0.00    +0.000 A 
ATOM     22  F   UNL     1       5.749   0.255  19.537  0.00  0.00    +0.000 F 
ATOM     23  C   UNL     1       4.808  -1.564  20.713  0.00  0.00    +0.000 A 
BRANCH  20  24
ATOM     24  O   UNL     1       4.489  -0.508  17.216  0.00  0.00    +0.000 OA
ATOM     25  H   UNL     1       5.332  -0.019  17.277  0.00  0.00    +0.000 HD
ENDBRANCH  20  24
ENDBRANCH  14  16
BRANCH   2  26
ATOM     26  C   UNL     1       2.146   0.727  23.897  0.00  0.00    +0.000 C 
ATOM     27  C   UNL     1       2.259   1.780  22.787  0.00  0.00    +0.000 C 
BRANCH  27  28
ATOM     28  C   UNL     1       2.362   2.745  21.761  0.00  0.00    +0.000 C 
ATOM     29  C   UNL     1       2.967   2.371  20.443  0.00  0.00    +0.000 C 
ATOM     30  C   UNL     1       1.914   4.152  22.013  0.00  0.00    +0.000 C 
ENDBRANCH  27  28
ENDBRANCH   2  26
TORSDOF 4
ENDMDL
