MODEL 1
REMARK VINA RESULT:      -4.2      0.000      0.000
REMARK  Name = 26879_Levamisole.pdbqt.pdb
REMARK  1 active torsions:
REMARK  status: ('A' for Active; 'I' for Inactive)
REMARK    1  A    between atoms: C_5  and  C_9
REMARK                            x       y       z     vdW  Elec       q    Type
REMARK                         _______ _______ _______ _____ _____    ______ ____
ROOT
ATOM      1  S   UNL     1      -9.080  -9.385  29.773  0.00  0.00    +0.000 S 
ATOM      2  N   UNL     1     -10.415  -8.803  27.364  0.00  0.00    +0.000 NA
ATOM      3  N   UNL     1      -9.234  -7.008  28.515  0.00  0.00    +0.000 NA
ATOM      4  C   UNL     1      -9.900  -7.768  26.522  0.00  0.00    +0.000 C 
ATOM      5  C   UNL     1      -9.324  -6.682  27.201  0.00  0.00    +0.000 C 
ATOM      6  C   UNL     1      -9.730 -10.069  27.317  0.00  0.00    +0.000 C 
ATOM      7  C   UNL     1      -9.810  -8.243  28.620  0.00  0.00    +0.000 C 
ATOM      8  C   UNL     1      -9.032 -10.547  28.553  0.00  0.00    +0.000 C 
ENDROOT
BRANCH   5   9
ATOM      9  C   UNL     1      -8.831  -5.433  26.641  0.00  0.00    +0.000 A 
ATOM     10  C   UNL     1      -7.776  -5.410  25.723  0.00  0.00    +0.000 A 
ATOM     11  C   UNL     1      -9.408  -4.218  27.021  0.00  0.00    +0.000 A 
ATOM     12  C   UNL     1      -7.311  -4.206  25.196  0.00  0.00    +0.000 A 
ATOM     13  C   UNL     1      -8.948  -3.012  26.498  0.00  0.00    +0.000 A 
ATOM     14  C   UNL     1      -7.899  -3.006  25.585  0.00  0.00    +0.000 A 
ENDBRANCH   5   9
TORSDOF 1
ENDMDL
MODEL 2
REMARK VINA RESULT:      -4.0     22.334     24.034
REMARK  Name = 26879_Levamisole.pdbqt.pdb
REMARK  1 active torsions:
REMARK  status: ('A' for Active; 'I' for Inactive)
REMARK    1  A    between atoms: C_5  and  C_9
REMARK                            x       y       z     vdW  Elec       q    Type
REMARK                         _______ _______ _______ _____ _____    ______ ____
ROOT
ATOM      1  S   UNL     1       8.229  -5.409  10.402  0.00  0.00    +0.000 S 
ATOM      2  N   UNL     1       6.068  -7.214  10.394  0.00  0.00    +0.000 NA
ATOM      3  N   UNL     1       8.333  -8.093  10.191  0.00  0.00    +0.000 NA
ATOM      4  C   UNL     1       6.265  -8.529  10.920  0.00  0.00    +0.000 C 
ATOM      5  C   UNL     1       7.540  -9.073  10.694  0.00  0.00    +0.000 C 
ATOM      6  C   UNL     1       5.895  -6.157  11.358  0.00  0.00    +0.000 C 
ATOM      7  C   UNL     1       7.518  -7.004  10.058  0.00  0.00    +0.000 C 
ATOM      8  C   UNL     1       6.932  -5.080  11.428  0.00  0.00    +0.000 C 
ENDROOT
BRANCH   5   9
ATOM      9  C   UNL     1       8.007 -10.419  10.991  0.00  0.00    +0.000 A 
ATOM     10  C   UNL     1       9.358 -10.687  11.233  0.00  0.00    +0.000 A 
ATOM     11  C   UNL     1       7.100 -11.481  11.034  0.00  0.00    +0.000 A 
ATOM     12  C   UNL     1       9.793 -11.981  11.513  0.00  0.00    +0.000 A 
ATOM     13  C   UNL     1       7.529 -12.778  11.314  0.00  0.00    +0.000 A 
ATOM     14  C   UNL     1       8.876 -13.027  11.553  0.00  0.00    +0.000 A 
ENDBRANCH   5   9
TORSDOF 1
ENDMDL
MODEL 3
REMARK VINA RESULT:      -3.8     11.948     13.008
REMARK  Name = 26879_Levamisole.pdbqt.pdb
REMARK  1 active torsions:
REMARK  status: ('A' for Active; 'I' for Inactive)
REMARK    1  A    between atoms: C_5  and  C_9
REMARK                            x       y       z     vdW  Elec       q    Type
REMARK                         _______ _______ _______ _____ _____    ______ ____
ROOT
ATOM      1  S   UNL     1      -8.440 -19.406  22.528  0.00  0.00    +0.000 S 
ATOM      2  N   UNL     1      -8.572 -16.676  21.855  0.00  0.00    +0.000 NA
ATOM      3  N   UNL     1      -6.600 -17.951  21.201  0.00  0.00    +0.000 NA
ATOM      4  C   UNL     1      -7.915 -16.225  20.667  0.00  0.00    +0.000 C 
ATOM      5  C   UNL     1      -6.716 -16.890  20.363  0.00  0.00    +0.000 C 
ATOM      6  C   UNL     1      -9.835 -17.345  21.675  0.00  0.00    +0.000 C 
ATOM      7  C   UNL     1      -7.682 -17.874  22.033  0.00  0.00    +0.000 C 
ATOM      8  C   UNL     1      -9.937 -18.789  22.060  0.00  0.00    +0.000 C 
ENDROOT
BRANCH   5   9
ATOM      9  C   UNL     1      -5.763 -16.585  19.307  0.00  0.00    +0.000 A 
ATOM     10  C   UNL     1      -6.185 -16.229  18.022  0.00  0.00    +0.000 A 
ATOM     11  C   UNL     1      -4.390 -16.649  19.562  0.00  0.00    +0.000 A 
ATOM     12  C   UNL     1      -5.261 -15.942  17.019  0.00  0.00    +0.000 A 
ATOM     13  C   UNL     1      -3.462 -16.363  18.563  0.00  0.00    +0.000 A 
ATOM     14  C   UNL     1      -3.899 -16.009  17.291  0.00  0.00    +0.000 A 
ENDBRANCH   5   9
TORSDOF 1
ENDMDL
MODEL 4
REMARK VINA RESULT:      -3.7     14.626     15.519
REMARK  Name = 26879_Levamisole.pdbqt.pdb
REMARK  1 active torsions:
REMARK  status: ('A' for Active; 'I' for Inactive)
REMARK    1  A    between atoms: C_5  and  C_9
REMARK                            x       y       z     vdW  Elec       q    Type
REMARK                         _______ _______ _______ _____ _____    ______ ____
ROOT
ATOM      1  S   UNL     1     -23.167  -4.689  15.457  0.00  0.00    +0.000 S 
ATOM      2  N   UNL     1     -20.898  -6.220  16.115  0.00  0.00    +0.000 NA
ATOM      3  N   UNL     1     -21.567  -4.413  17.607  0.00  0.00    +0.000 NA
ATOM      4  C   UNL     1     -20.568  -6.409  17.493  0.00  0.00    +0.000 C 
ATOM      5  C   UNL     1     -20.851  -5.314  18.327  0.00  0.00    +0.000 C 
ATOM      6  C   UNL     1     -21.972  -7.028  15.595  0.00  0.00    +0.000 C 
ATOM      7  C   UNL     1     -21.647  -4.938  16.348  0.00  0.00    +0.000 C 
ATOM      8  C   UNL     1     -23.221  -6.343  15.136  0.00  0.00    +0.000 C 
ENDROOT
BRANCH   5   9
ATOM      9  C   UNL     1     -20.523  -5.148  19.734  0.00  0.00    +0.000 A 
ATOM     10  C   UNL     1     -19.316  -4.571  20.140  0.00  0.00    +0.000 A 
ATOM     11  C   UNL     1     -21.420  -5.575  20.718  0.00  0.00    +0.000 A 
ATOM     12  C   UNL     1     -19.012  -4.421  21.492  0.00  0.00    +0.000 A 
ATOM     13  C   UNL     1     -21.122  -5.427  22.071  0.00  0.00    +0.000 A 
ATOM     14  C   UNL     1     -19.918  -4.850  22.457  0.00  0.00    +0.000 A 
ENDBRANCH   5   9
TORSDOF 1
ENDMDL
MODEL 5
REMARK VINA RESULT:      -3.5     21.738     22.874
REMARK  Name = 26879_Levamisole.pdbqt.pdb
REMARK  1 active torsions:
REMARK  status: ('A' for Active; 'I' for Inactive)
REMARK    1  A    between atoms: C_5  and  C_9
REMARK                            x       y       z     vdW  Elec       q    Type
REMARK                         _______ _______ _______ _____ _____    ______ ____
ROOT
ATOM      1  S   UNL     1     -10.033 -15.247   3.382  0.00  0.00    +0.000 S 
ATOM      2  N   UNL     1      -8.789 -17.051   5.148  0.00  0.00    +0.000 NA
ATOM      3  N   UNL     1     -10.086 -15.207   6.075  0.00  0.00    +0.000 NA
ATOM      4  C   UNL     1      -9.397 -17.305   6.417  0.00  0.00    +0.000 C 
ATOM      5  C   UNL     1     -10.044 -16.202   6.998  0.00  0.00    +0.000 C 
ATOM      6  C   UNL     1      -9.374 -17.715   4.011  0.00  0.00    +0.000 C 
ATOM      7  C   UNL     1      -9.414 -15.694   4.989  0.00  0.00    +0.000 C 
ATOM      8  C   UNL     1     -10.012 -16.876   2.948  0.00  0.00    +0.000 C 
ENDROOT
BRANCH   5   9
ATOM      9  C   UNL     1     -10.642 -16.105   8.320  0.00  0.00    +0.000 A 
ATOM     10  C   UNL     1     -12.028 -16.040   8.492  0.00  0.00    +0.000 A 
ATOM     11  C   UNL     1      -9.829 -16.071   9.456  0.00  0.00    +0.000 A 
ATOM     12  C   UNL     1     -12.589 -15.945   9.764  0.00  0.00    +0.000 A 
ATOM     13  C   UNL     1     -10.383 -15.975  10.731  0.00  0.00    +0.000 A 
ATOM     14  C   UNL     1     -11.764 -15.913  10.884  0.00  0.00    +0.000 A 
ENDBRANCH   5   9
TORSDOF 1
ENDMDL
MODEL 6
REMARK VINA RESULT:      -3.4     12.444     13.857
REMARK  Name = 26879_Levamisole.pdbqt.pdb
REMARK  1 active torsions:
REMARK  status: ('A' for Active; 'I' for Inactive)
REMARK    1  A    between atoms: C_5  and  C_9
REMARK                            x       y       z     vdW  Elec       q    Type
REMARK                         _______ _______ _______ _____ _____    ______ ____
ROOT
ATOM      1  S   UNL     1     -19.384   1.530  23.653  0.00  0.00    +0.000 S 
ATOM      2  N   UNL     1     -17.999   0.327  21.517  0.00  0.00    +0.000 NA
ATOM      3  N   UNL     1     -19.338  -1.081  22.989  0.00  0.00    +0.000 NA
ATOM      4  C   UNL     1     -18.549  -0.847  20.912  0.00  0.00    +0.000 C 
ATOM      5  C   UNL     1     -19.219  -1.711  21.793  0.00  0.00    +0.000 C 
ATOM      6  C   UNL     1     -18.599   1.582  21.143  0.00  0.00    +0.000 C 
ATOM      7  C   UNL     1     -18.687   0.111  22.836  0.00  0.00    +0.000 C 
ATOM      8  C   UNL     1     -19.310   2.374  22.195  0.00  0.00    +0.000 C 
ENDROOT
BRANCH   5   9
ATOM      9  C   UNL     1     -19.771  -3.028  21.513  0.00  0.00    +0.000 A 
ATOM     10  C   UNL     1     -20.448  -3.297  20.319  0.00  0.00    +0.000 A 
ATOM     11  C   UNL     1     -19.635  -4.057  22.448  0.00  0.00    +0.000 A 
ATOM     12  C   UNL     1     -20.974  -4.562  20.065  0.00  0.00    +0.000 A 
ATOM     13  C   UNL     1     -20.160  -5.324  22.199  0.00  0.00    +0.000 A 
ATOM     14  C   UNL     1     -20.829  -5.576  21.006  0.00  0.00    +0.000 A 
ENDBRANCH   5   9
TORSDOF 1
ENDMDL
MODEL 7
REMARK VINA RESULT:      -3.4     13.997     15.160
REMARK  Name = 26879_Levamisole.pdbqt.pdb
REMARK  1 active torsions:
REMARK  status: ('A' for Active; 'I' for Inactive)
REMARK    1  A    between atoms: C_5  and  C_9
REMARK                            x       y       z     vdW  Elec       q    Type
REMARK                         _______ _______ _______ _____ _____    ______ ____
ROOT
ATOM      1  S   UNL     1       6.251  -6.156  22.122  0.00  0.00    +0.000 S 
ATOM      2  N   UNL     1       3.604  -5.229  22.362  0.00  0.00    +0.000 NA
ATOM      3  N   UNL     1       5.249  -3.810  21.256  0.00  0.00    +0.000 NA
ATOM      4  C   UNL     1       3.084  -4.356  21.355  0.00  0.00    +0.000 C 
ATOM      5  C   UNL     1       4.017  -3.461  20.806  0.00  0.00    +0.000 C 
ATOM      6  C   UNL     1       3.665  -6.629  22.028  0.00  0.00    +0.000 C 
ATOM      7  C   UNL     1       5.038  -4.855  22.112  0.00  0.00    +0.000 C 
ATOM      8  C   UNL     1       5.010  -7.281  21.936  0.00  0.00    +0.000 C 
ENDROOT
BRANCH   5   9
ATOM      9  C   UNL     1       3.776  -2.378  19.865  0.00  0.00    +0.000 A 
ATOM     10  C   UNL     1       4.101  -1.054  20.176  0.00  0.00    +0.000 A 
ATOM     11  C   UNL     1       3.202  -2.647  18.619  0.00  0.00    +0.000 A 
ATOM     12  C   UNL     1       3.861  -0.025  19.267  0.00  0.00    +0.000 A 
ATOM     13  C   UNL     1       2.961  -1.623  17.706  0.00  0.00    +0.000 A 
ATOM     14  C   UNL     1       3.291  -0.312  18.030  0.00  0.00    +0.000 A 
ENDBRANCH   5   9
TORSDOF 1
ENDMDL
MODEL 8
REMARK VINA RESULT:      -3.4      3.465      6.778
REMARK  Name = 26879_Levamisole.pdbqt.pdb
REMARK  1 active torsions:
REMARK  status: ('A' for Active; 'I' for Inactive)
REMARK    1  A    between atoms: C_5  and  C_9
REMARK                            x       y       z     vdW  Elec       q    Type
REMARK                         _______ _______ _______ _____ _____    ______ ____
ROOT
ATOM      1  S   UNL     1      -8.777  -9.469  28.925  0.00  0.00    +0.000 S 
ATOM      2  N   UNL     1      -9.865  -8.913  26.389  0.00  0.00    +0.000 NA
ATOM      3  N   UNL     1     -10.687 -10.850  27.620  0.00  0.00    +0.000 NA
ATOM      4  C   UNL     1     -11.222  -9.277  26.125  0.00  0.00    +0.000 C 
ATOM      5  C   UNL     1     -11.651 -10.460  26.748  0.00  0.00    +0.000 C 
ATOM      6  C   UNL     1      -9.660  -7.720  27.169  0.00  0.00    +0.000 C 
ATOM      7  C   UNL     1      -9.674  -9.946  27.464  0.00  0.00    +0.000 C 
ATOM      8  C   UNL     1      -9.021  -7.851  28.517  0.00  0.00    +0.000 C 
ENDROOT
BRANCH   5   9
ATOM      9  C   UNL     1     -12.919 -11.154  26.581  0.00  0.00    +0.000 A 
ATOM     10  C   UNL     1     -13.870 -10.724  25.650  0.00  0.00    +0.000 A 
ATOM     11  C   UNL     1     -13.213 -12.275  27.363  0.00  0.00    +0.000 A 
ATOM     12  C   UNL     1     -15.082 -11.396  25.502  0.00  0.00    +0.000 A 
ATOM     13  C   UNL     1     -14.423 -12.950  27.220  0.00  0.00    +0.000 A 
ATOM     14  C   UNL     1     -15.358 -12.511  26.288  0.00  0.00    +0.000 A 
ENDBRANCH   5   9
TORSDOF 1
ENDMDL
MODEL 9
REMARK VINA RESULT:      -3.4     11.600     12.894
REMARK  Name = 26879_Levamisole.pdbqt.pdb
REMARK  1 active torsions:
REMARK  status: ('A' for Active; 'I' for Inactive)
REMARK    1  A    between atoms: C_5  and  C_9
REMARK                            x       y       z     vdW  Elec       q    Type
REMARK                         _______ _______ _______ _____ _____    ______ ____
ROOT
ATOM      1  S   UNL     1     -17.737   1.070  24.457  0.00  0.00    +0.000 S 
ATOM      2  N   UNL     1     -19.352  -0.660  25.980  0.00  0.00    +0.000 NA
ATOM      3  N   UNL     1     -19.385  -0.859  23.550  0.00  0.00    +0.000 NA
ATOM      4  C   UNL     1     -19.630  -1.969  25.474  0.00  0.00    +0.000 C 
ATOM      5  C   UNL     1     -19.762  -2.051  24.078  0.00  0.00    +0.000 C 
ATOM      6  C   UNL     1     -18.054  -0.463  26.571  0.00  0.00    +0.000 C 
ATOM      7  C   UNL     1     -19.098  -0.063  24.624  0.00  0.00    +0.000 C 
ATOM      8  C   UNL     1     -17.107   0.490  25.909  0.00  0.00    +0.000 C 
ENDROOT
BRANCH   5   9
ATOM      9  C   UNL     1     -20.161  -3.200  23.280  0.00  0.00    +0.000 A 
ATOM     10  C   UNL     1     -21.491  -3.630  23.232  0.00  0.00    +0.000 A 
ATOM     11  C   UNL     1     -19.207  -3.905  22.541  0.00  0.00    +0.000 A 
ATOM     12  C   UNL     1     -21.859  -4.734  22.466  0.00  0.00    +0.000 A 
ATOM     13  C   UNL     1     -19.569  -5.009  21.773  0.00  0.00    +0.000 A 
ATOM     14  C   UNL     1     -20.896  -5.424  21.736  0.00  0.00    +0.000 A 
ENDBRANCH   5   9
TORSDOF 1
ENDMDL
