MODEL 1
REMARK VINA RESULT:      -3.5      0.000      0.000
REMARK  Name = 27924_Phorbol.pdbqt.pdb
REMARK  26 active torsions:
REMARK  status: ('A' for Active; 'I' for Inactive)
REMARK    1  A    between atoms: O_1  and  C_10
REMARK    2  A    between atoms: O_1  and  C_26
REMARK    3  A    between atoms: O_2  and  C_13
REMARK    4  A    between atoms: O_2  and  C_28
REMARK    5  A    between atoms: O_3  and  C_14
REMARK    6  A    between atoms: O_4  and  C_20
REMARK    7  A    between atoms: O_7  and  C_29
REMARK    8  A    between atoms: C_11  and  C_16
REMARK    9  A    between atoms: C_11  and  C_17
REMARK   10  A    between atoms: C_15  and  C_21
REMARK   11  A    between atoms: C_22  and  C_29
REMARK   12  A    between atoms: C_26  and  C_30
REMARK   13  A    between atoms: C_27  and  C_31
REMARK   14  A    between atoms: C_28  and  C_32
REMARK   15  A    between atoms: C_32  and  C_33
REMARK   16  A    between atoms: C_33  and  C_34
REMARK   17  A    between atoms: C_34  and  C_35
REMARK   18  A    between atoms: C_35  and  C_36
REMARK   19  A    between atoms: C_36  and  C_37
REMARK   20  A    between atoms: C_37  and  C_38
REMARK   21  A    between atoms: C_38  and  C_39
REMARK   22  A    between atoms: C_39  and  C_40
REMARK   23  A    between atoms: C_40  and  C_41
REMARK   24  A    between atoms: C_41  and  C_42
REMARK   25  A    between atoms: C_42  and  C_43
REMARK   26  A    between atoms: C_43  and  C_44
REMARK                            x       y       z     vdW  Elec       q    Type
REMARK                         _______ _______ _______ _____ _____    ______ ____
ROOT
ATOM      1  O   UNL     1       2.376 -13.021  20.769  0.00  0.00    +0.000 OA
ATOM      2  C   UNL     1      -2.412 -18.259  20.711  0.00  0.00    +0.000 C 
ATOM      3  C   UNL     1      -3.833 -17.977  20.262  0.00  0.00    +0.000 C 
ATOM      4  C   UNL     1      -3.504 -18.229  21.762  0.00  0.00    +0.000 C 
ATOM      5  C   UNL     1      -1.306 -17.289  20.416  0.00  0.00    +0.000 C 
ATOM      6  C   UNL     1      -4.118 -16.587  19.663  0.00  0.00    +0.000 C 
ATOM      7  C   UNL     1      -1.701 -15.802  19.989  0.00  0.00    +0.000 C 
ATOM      8  C   UNL     1      -2.857 -16.007  18.931  0.00  0.00    +0.000 C 
ATOM      9  C   UNL     1      -3.808 -19.581  22.384  0.00  0.00    +0.000 C 
ATOM     10  C   UNL     1      -3.564 -17.127  22.791  0.00  0.00    +0.000 C 
ATOM     11  C   UNL     1      -0.365 -15.022  19.535  0.00  0.00    +0.000 C 
ATOM     12  C   UNL     1      -0.172 -17.342  21.423  0.00  0.00    +0.000 C 
ATOM     13  C   UNL     1       0.701 -14.783  20.694  0.00  0.00    +0.000 C 
ATOM     14  C   UNL     1      -3.240 -14.774  18.112  0.00  0.00    +0.000 C 
ATOM     15  C   UNL     1       1.078 -17.275  20.917  0.00  0.00    +0.000 C 
ATOM     16  C   UNL     1       1.736 -15.906  20.923  0.00  0.00    +0.000 C 
ATOM     17  C   UNL     1      -0.468 -13.609  18.976  0.00  0.00    +0.000 C 
ATOM     18  C   UNL     1       1.357 -13.484  20.279  0.00  0.00    +0.000 C 
ATOM     19  C   UNL     1       0.514 -12.764  19.317  0.00  0.00    +0.000 C 
ATOM     20  C   UNL     1       0.778 -11.372  18.897  0.00  0.00    +0.000 C 
ENDROOT
BRANCH   7  21
ATOM     21  O   UNL     1      -2.280 -15.064  21.073  0.00  0.00    +0.000 OA
ATOM     22  H   UNL     1      -1.685 -15.152  21.850  0.00  0.00    +0.000 HD
ENDBRANCH   7  21
BRANCH  13  23
ATOM     23  O   UNL     1       0.055 -14.446  21.947  0.00  0.00    +0.000 OA
ATOM     24  H   UNL     1       0.754 -14.067  22.519  0.00  0.00    +0.000 HD
ENDBRANCH  13  23
BRANCH   3  25
ATOM     25  O   UNL     1      -4.319 -19.084  19.460  0.00  0.00    +0.000 OA
BRANCH  25  27
ATOM     26  O   UNL     1      -3.163 -20.918  18.874  0.00  0.00    +0.000 OA
ATOM     27  C   UNL     1      -3.569 -19.795  18.580  0.00  0.00    +0.000 C 
ATOM     28  C   UNL     1      -3.315 -19.220  17.219  0.00  0.00    +0.000 C 
ENDBRANCH  25  27
ENDBRANCH   3  25
BRANCH  15  29
ATOM     29  C   UNL     1       1.609 -18.234  19.884  0.00  0.00    +0.000 C 
BRANCH  29  30
ATOM     30  O   UNL     1       2.068 -17.481  18.774  0.00  0.00    +0.000 OA
ATOM     31  H   UNL     1       2.223 -18.115  18.051  0.00  0.00    +0.000 HD
ENDBRANCH  29  30
ENDBRANCH  15  29
BRANCH   6  32
ATOM     32  O   UNL     1      -5.218 -16.723  18.723  0.00  0.00    +0.000 OA
BRANCH  32  34
ATOM     33  O   UNL     1      -7.345 -17.241  18.263  0.00  0.00    +0.000 OA
ATOM     34  C   UNL     1      -6.530 -16.764  19.049  0.00  0.00    +0.000 C 
BRANCH  34  35
ATOM     35  C   UNL     1      -6.979 -16.220  20.383  0.00  0.00    +0.000 C 
BRANCH  35  36
ATOM     36  C   UNL     1      -7.395 -17.335  21.335  0.00  0.00    +0.000 C 
BRANCH  36  37
ATOM     37  C   UNL     1      -7.277 -16.970  22.819  0.00  0.00    +0.000 C 
BRANCH  37  38
ATOM     38  C   UNL     1      -7.113 -18.174  23.757  0.00  0.00    +0.000 C 
BRANCH  38  39
ATOM     39  C   UNL     1      -6.422 -17.802  25.073  0.00  0.00    +0.000 C 
BRANCH  39  40
ATOM     40  C   UNL     1      -5.601 -18.945  25.677  0.00  0.00    +0.000 C 
BRANCH  40  41
ATOM     41  C   UNL     1      -4.221 -18.499  26.166  0.00  0.00    +0.000 C 
BRANCH  41  42
ATOM     42  C   UNL     1      -3.189 -19.630  26.179  0.00  0.00    +0.000 C 
BRANCH  42  43
ATOM     43  C   UNL     1      -1.854 -19.321  25.494  0.00  0.00    +0.000 C 
BRANCH  43  44
ATOM     44  C   UNL     1      -1.381 -17.867  25.592  0.00  0.00    +0.000 C 
BRANCH  44  45
ATOM     45  C   UNL     1       0.031 -17.594  25.066  0.00  0.00    +0.000 C 
BRANCH  45  46
ATOM     46  C   UNL     1       0.438 -16.121  24.987  0.00  0.00    +0.000 C 
ATOM     47  C   UNL     1       1.908 -15.916  24.656  0.00  0.00    +0.000 C 
ENDBRANCH  45  46
ENDBRANCH  44  45
ENDBRANCH  43  44
ENDBRANCH  42  43
ENDBRANCH  41  42
ENDBRANCH  40  41
ENDBRANCH  39  40
ENDBRANCH  38  39
ENDBRANCH  37  38
ENDBRANCH  36  37
ENDBRANCH  35  36
ENDBRANCH  34  35
ENDBRANCH  32  34
ENDBRANCH   6  32
TORSDOF 20
ENDMDL
MODEL 2
REMARK VINA RESULT:      -3.3      9.667     14.601
REMARK  Name = 27924_Phorbol.pdbqt.pdb
REMARK  26 active torsions:
REMARK  status: ('A' for Active; 'I' for Inactive)
REMARK    1  A    between atoms: O_1  and  C_10
REMARK    2  A    between atoms: O_1  and  C_26
REMARK    3  A    between atoms: O_2  and  C_13
REMARK    4  A    between atoms: O_2  and  C_28
REMARK    5  A    between atoms: O_3  and  C_14
REMARK    6  A    between atoms: O_4  and  C_20
REMARK    7  A    between atoms: O_7  and  C_29
REMARK    8  A    between atoms: C_11  and  C_16
REMARK    9  A    between atoms: C_11  and  C_17
REMARK   10  A    between atoms: C_15  and  C_21
REMARK   11  A    between atoms: C_22  and  C_29
REMARK   12  A    between atoms: C_26  and  C_30
REMARK   13  A    between atoms: C_27  and  C_31
REMARK   14  A    between atoms: C_28  and  C_32
REMARK   15  A    between atoms: C_32  and  C_33
REMARK   16  A    between atoms: C_33  and  C_34
REMARK   17  A    between atoms: C_34  and  C_35
REMARK   18  A    between atoms: C_35  and  C_36
REMARK   19  A    between atoms: C_36  and  C_37
REMARK   20  A    between atoms: C_37  and  C_38
REMARK   21  A    between atoms: C_38  and  C_39
REMARK   22  A    between atoms: C_39  and  C_40
REMARK   23  A    between atoms: C_40  and  C_41
REMARK   24  A    between atoms: C_41  and  C_42
REMARK   25  A    between atoms: C_42  and  C_43
REMARK   26  A    between atoms: C_43  and  C_44
REMARK                            x       y       z     vdW  Elec       q    Type
REMARK                         _______ _______ _______ _____ _____    ______ ____
ROOT
ATOM      1  O   UNL     1      11.219 -19.102  12.528  0.00  0.00    +0.000 OA
ATOM      2  C   UNL     1       5.045 -16.201  14.483  0.00  0.00    +0.000 C 
ATOM      3  C   UNL     1       4.662 -14.824  13.972  0.00  0.00    +0.000 C 
ATOM      4  C   UNL     1       5.087 -15.037  15.454  0.00  0.00    +0.000 C 
ATOM      5  C   UNL     1       6.150 -16.980  13.837  0.00  0.00    +0.000 C 
ATOM      6  C   UNL     1       5.569 -14.198  12.897  0.00  0.00    +0.000 C 
ATOM      7  C   UNL     1       7.167 -16.199  12.884  0.00  0.00    +0.000 C 
ATOM      8  C   UNL     1       6.229 -15.295  11.990  0.00  0.00    +0.000 C 
ATOM      9  C   UNL     1       4.028 -15.093  16.541  0.00  0.00    +0.000 C 
ATOM     10  C   UNL     1       6.399 -14.521  15.993  0.00  0.00    +0.000 C 
ATOM     11  C   UNL     1       8.126 -17.275  12.159  0.00  0.00    +0.000 C 
ATOM     12  C   UNL     1       6.838 -17.950  14.780  0.00  0.00    +0.000 C 
ATOM     13  C   UNL     1       9.101 -18.071  13.135  0.00  0.00    +0.000 C 
ATOM     14  C   UNL     1       6.887 -14.650  10.771  0.00  0.00    +0.000 C 
ATOM     15  C   UNL     1       7.127 -19.169  14.276  0.00  0.00    +0.000 C 
ATOM     16  C   UNL     1       8.542 -19.368  13.761  0.00  0.00    +0.000 C 
ATOM     17  C   UNL     1       9.127 -16.808  11.110  0.00  0.00    +0.000 C 
ATOM     18  C   UNL     1      10.303 -18.340  12.256  0.00  0.00    +0.000 C 
ATOM     19  C   UNL     1      10.310 -17.435  11.101  0.00  0.00    +0.000 C 
ATOM     20  C   UNL     1      11.464 -17.305  10.185  0.00  0.00    +0.000 C 
ENDROOT
BRANCH   7  21
ATOM     21  O   UNL     1       8.009 -15.299  13.615  0.00  0.00    +0.000 OA
ATOM     22  H   UNL     1       8.907 -15.696  13.662  0.00  0.00    +0.000 HD
ENDBRANCH   7  21
BRANCH  13  23
ATOM     23  O   UNL     1       9.630 -17.212  14.174  0.00  0.00    +0.000 OA
ATOM     24  H   UNL     1      10.551 -17.004  13.910  0.00  0.00    +0.000 HD
ENDBRANCH  13  23
BRANCH   3  25
ATOM     25  O   UNL     1       3.248 -14.800  13.649  0.00  0.00    +0.000 OA
BRANCH  25  27
ATOM     26  O   UNL     1       1.704 -16.406  13.933  0.00  0.00    +0.000 OA
ATOM     27  C   UNL     1       2.534 -15.865  13.205  0.00  0.00    +0.000 C 
ATOM     28  C   UNL     1       2.717 -16.315  11.786  0.00  0.00    +0.000 C 
ENDBRANCH  25  27
ENDBRANCH   3  25
BRANCH  15  29
ATOM     29  C   UNL     1       6.094 -20.086  13.676  0.00  0.00    +0.000 C 
BRANCH  29  30
ATOM     30  O   UNL     1       5.059 -20.270  14.626  0.00  0.00    +0.000 OA
ATOM     31  H   UNL     1       5.345 -19.822  15.442  0.00  0.00    +0.000 HD
ENDBRANCH  29  30
ENDBRANCH  15  29
BRANCH   6  32
ATOM     32  O   UNL     1       4.752 -13.310  12.085  0.00  0.00    +0.000 OA
BRANCH  32  34
ATOM     33  O   UNL     1       3.755 -11.317  11.900  0.00  0.00    +0.000 OA
ATOM     34  C   UNL     1       4.777 -11.959  12.130  0.00  0.00    +0.000 C 
BRANCH  34  35
ATOM     35  C   UNL     1       6.067 -11.253  12.465  0.00  0.00    +0.000 C 
BRANCH  35  36
ATOM     36  C   UNL     1       6.730 -10.671  11.222  0.00  0.00    +0.000 C 
BRANCH  36  37
ATOM     37  C   UNL     1       8.014 -11.393  10.797  0.00  0.00    +0.000 C 
BRANCH  37  38
ATOM     38  C   UNL     1       8.880 -11.884  11.965  0.00  0.00    +0.000 C 
BRANCH  38  39
ATOM     39  C   UNL     1      10.330 -12.150  11.548  0.00  0.00    +0.000 C 
BRANCH  39  40
ATOM     40  C   UNL     1      11.313 -11.082  12.036  0.00  0.00    +0.000 C 
BRANCH  40  41
ATOM     41  C   UNL     1      11.939 -10.276  10.896  0.00  0.00    +0.000 C 
BRANCH  41  42
ATOM     42  C   UNL     1      11.509  -8.806  10.885  0.00  0.00    +0.000 C 
BRANCH  42  43
ATOM     43  C   UNL     1      10.168  -8.509  10.209  0.00  0.00    +0.000 C 
BRANCH  43  44
ATOM     44  C   UNL     1       9.134  -7.787  11.079  0.00  0.00    +0.000 C 
BRANCH  44  45
ATOM     45  C   UNL     1       9.455  -7.728  12.576  0.00  0.00    +0.000 C 
BRANCH  45  46
ATOM     46  C   UNL     1       8.516  -8.520  13.489  0.00  0.00    +0.000 C 
ATOM     47  C   UNL     1       9.235  -9.240  14.619  0.00  0.00    +0.000 C 
ENDBRANCH  45  46
ENDBRANCH  44  45
ENDBRANCH  43  44
ENDBRANCH  42  43
ENDBRANCH  41  42
ENDBRANCH  40  41
ENDBRANCH  39  40
ENDBRANCH  38  39
ENDBRANCH  37  38
ENDBRANCH  36  37
ENDBRANCH  35  36
ENDBRANCH  34  35
ENDBRANCH  32  34
ENDBRANCH   6  32
TORSDOF 20
ENDMDL
MODEL 3
REMARK VINA RESULT:      -3.1      8.692     14.411
REMARK  Name = 27924_Phorbol.pdbqt.pdb
REMARK  26 active torsions:
REMARK  status: ('A' for Active; 'I' for Inactive)
REMARK    1  A    between atoms: O_1  and  C_10
REMARK    2  A    between atoms: O_1  and  C_26
REMARK    3  A    between atoms: O_2  and  C_13
REMARK    4  A    between atoms: O_2  and  C_28
REMARK    5  A    between atoms: O_3  and  C_14
REMARK    6  A    between atoms: O_4  and  C_20
REMARK    7  A    between atoms: O_7  and  C_29
REMARK    8  A    between atoms: C_11  and  C_16
REMARK    9  A    between atoms: C_11  and  C_17
REMARK   10  A    between atoms: C_15  and  C_21
REMARK   11  A    between atoms: C_22  and  C_29
REMARK   12  A    between atoms: C_26  and  C_30
REMARK   13  A    between atoms: C_27  and  C_31
REMARK   14  A    between atoms: C_28  and  C_32
REMARK   15  A    between atoms: C_32  and  C_33
REMARK   16  A    between atoms: C_33  and  C_34
REMARK   17  A    between atoms: C_34  and  C_35
REMARK   18  A    between atoms: C_35  and  C_36
REMARK   19  A    between atoms: C_36  and  C_37
REMARK   20  A    between atoms: C_37  and  C_38
REMARK   21  A    between atoms: C_38  and  C_39
REMARK   22  A    between atoms: C_39  and  C_40
REMARK   23  A    between atoms: C_40  and  C_41
REMARK   24  A    between atoms: C_41  and  C_42
REMARK   25  A    between atoms: C_42  and  C_43
REMARK   26  A    between atoms: C_43  and  C_44
REMARK                            x       y       z     vdW  Elec       q    Type
REMARK                         _______ _______ _______ _____ _____    ______ ____
ROOT
ATOM      1  O   UNL     1       3.736 -20.888  15.445  0.00  0.00    +0.000 OA
ATOM      2  C   UNL     1       3.366 -13.884  14.362  0.00  0.00    +0.000 C 
ATOM      3  C   UNL     1       4.537 -12.999  14.743  0.00  0.00    +0.000 C 
ATOM      4  C   UNL     1       3.224 -12.988  15.577  0.00  0.00    +0.000 C 
ATOM      5  C   UNL     1       3.530 -15.371  14.253  0.00  0.00    +0.000 C 
ATOM      6  C   UNL     1       5.834 -13.702  15.185  0.00  0.00    +0.000 C 
ATOM      7  C   UNL     1       4.819 -16.039  14.918  0.00  0.00    +0.000 C 
ATOM      8  C   UNL     1       6.005 -15.092  14.477  0.00  0.00    +0.000 C 
ATOM      9  C   UNL     1       2.229 -11.854  15.402  0.00  0.00    +0.000 C 
ATOM     10  C   UNL     1       3.153 -13.569  16.968  0.00  0.00    +0.000 C 
ATOM     11  C   UNL     1       4.872 -17.594  14.496  0.00  0.00    +0.000 C 
ATOM     12  C   UNL     1       2.250 -16.141  14.521  0.00  0.00    +0.000 C 
ATOM     13  C   UNL     1       3.681 -18.486  15.065  0.00  0.00    +0.000 C 
ATOM     14  C   UNL     1       7.415 -15.635  14.709  0.00  0.00    +0.000 C 
ATOM     15  C   UNL     1       1.997 -17.182  13.699  0.00  0.00    +0.000 C 
ATOM     16  C   UNL     1       2.400 -18.556  14.206  0.00  0.00    +0.000 C 
ATOM     17  C   UNL     1       6.063 -18.449  14.909  0.00  0.00    +0.000 C 
ATOM     18  C   UNL     1       4.331 -19.843  15.225  0.00  0.00    +0.000 C 
ATOM     19  C   UNL     1       5.793 -19.717  15.246  0.00  0.00    +0.000 C 
ATOM     20  C   UNL     1       6.694 -20.832  15.607  0.00  0.00    +0.000 C 
ENDROOT
BRANCH   7  21
ATOM     21  O   UNL     1       4.778 -15.985  16.350  0.00  0.00    +0.000 OA
ATOM     22  H   UNL     1       4.623 -15.050  16.612  0.00  0.00    +0.000 HD
ENDBRANCH   7  21
BRANCH  13  23
ATOM     23  O   UNL     1       3.343 -18.115  16.424  0.00  0.00    +0.000 OA
ATOM     24  H   UNL     1       2.889 -18.891  16.812  0.00  0.00    +0.000 HD
ENDBRANCH  13  23
BRANCH   3  25
ATOM     25  O   UNL     1       4.727 -11.978  13.728  0.00  0.00    +0.000 OA
BRANCH  25  27
ATOM     26  O   UNL     1       3.521 -11.767  11.846  0.00  0.00    +0.000 OA
ATOM     27  C   UNL     1       4.546 -12.164  12.396  0.00  0.00    +0.000 C 
ATOM     28  C   UNL     1       5.652 -12.787  11.598  0.00  0.00    +0.000 C 
ENDBRANCH  25  27
ENDBRANCH   3  25
BRANCH  15  29
ATOM     29  C   UNL     1       1.910 -17.055  12.200  0.00  0.00    +0.000 C 
BRANCH  29  30
ATOM     30  O   UNL     1       1.434 -18.284  11.678  0.00  0.00    +0.000 OA
ATOM     31  H   UNL     1       1.070 -18.091  10.796  0.00  0.00    +0.000 HD
ENDBRANCH  29  30
ENDBRANCH  15  29
BRANCH   6  32
ATOM     32  O   UNL     1       6.950 -12.833  14.848  0.00  0.00    +0.000 OA
BRANCH  32  34
ATOM     33  O   UNL     1       7.927 -12.632  16.850  0.00  0.00    +0.000 OA
ATOM     34  C   UNL     1       7.718 -12.160  15.735  0.00  0.00    +0.000 C 
BRANCH  34  35
ATOM     35  C   UNL     1       8.311 -10.830  15.341  0.00  0.00    +0.000 C 
BRANCH  35  36
ATOM     36  C   UNL     1       7.373 -10.041  14.436  0.00  0.00    +0.000 C 
BRANCH  36  37
ATOM     37  C   UNL     1       7.992  -9.631  13.095  0.00  0.00    +0.000 C 
BRANCH  37  38
ATOM     38  C   UNL     1       6.970  -9.252  12.014  0.00  0.00    +0.000 C 
BRANCH  38  39
ATOM     39  C   UNL     1       7.166  -7.822  11.498  0.00  0.00    +0.000 C 
BRANCH  39  40
ATOM     40  C   UNL     1       5.882  -7.187  10.958  0.00  0.00    +0.000 C 
BRANCH  40  41
ATOM     41  C   UNL     1       5.432  -7.785   9.622  0.00  0.00    +0.000 C 
BRANCH  41  42
ATOM     42  C   UNL     1       5.573  -6.814   8.446  0.00  0.00    +0.000 C 
BRANCH  42  43
ATOM     43  C   UNL     1       4.976  -5.420   8.657  0.00  0.00    +0.000 C 
BRANCH  43  44
ATOM     44  C   UNL     1       5.982  -4.266   8.679  0.00  0.00    +0.000 C 
BRANCH  44  45
ATOM     45  C   UNL     1       5.481  -2.963   9.308  0.00  0.00    +0.000 C 
BRANCH  45  46
ATOM     46  C   UNL     1       6.432  -2.296  10.305  0.00  0.00    +0.000 C 
ATOM     47  C   UNL     1       7.558  -3.206  10.770  0.00  0.00    +0.000 C 
ENDBRANCH  45  46
ENDBRANCH  44  45
ENDBRANCH  43  44
ENDBRANCH  42  43
ENDBRANCH  41  42
ENDBRANCH  40  41
ENDBRANCH  39  40
ENDBRANCH  38  39
ENDBRANCH  37  38
ENDBRANCH  36  37
ENDBRANCH  35  36
ENDBRANCH  34  35
ENDBRANCH  32  34
ENDBRANCH   6  32
TORSDOF 20
ENDMDL
MODEL 4
REMARK VINA RESULT:      -3.1      5.959     10.846
REMARK  Name = 27924_Phorbol.pdbqt.pdb
REMARK  26 active torsions:
REMARK  status: ('A' for Active; 'I' for Inactive)
REMARK    1  A    between atoms: O_1  and  C_10
REMARK    2  A    between atoms: O_1  and  C_26
REMARK    3  A    between atoms: O_2  and  C_13
REMARK    4  A    between atoms: O_2  and  C_28
REMARK    5  A    between atoms: O_3  and  C_14
REMARK    6  A    between atoms: O_4  and  C_20
REMARK    7  A    between atoms: O_7  and  C_29
REMARK    8  A    between atoms: C_11  and  C_16
REMARK    9  A    between atoms: C_11  and  C_17
REMARK   10  A    between atoms: C_15  and  C_21
REMARK   11  A    between atoms: C_22  and  C_29
REMARK   12  A    between atoms: C_26  and  C_30
REMARK   13  A    between atoms: C_27  and  C_31
REMARK   14  A    between atoms: C_28  and  C_32
REMARK   15  A    between atoms: C_32  and  C_33
REMARK   16  A    between atoms: C_33  and  C_34
REMARK   17  A    between atoms: C_34  and  C_35
REMARK   18  A    between atoms: C_35  and  C_36
REMARK   19  A    between atoms: C_36  and  C_37
REMARK   20  A    between atoms: C_37  and  C_38
REMARK   21  A    between atoms: C_38  and  C_39
REMARK   22  A    between atoms: C_39  and  C_40
REMARK   23  A    between atoms: C_40  and  C_41
REMARK   24  A    between atoms: C_41  and  C_42
REMARK   25  A    between atoms: C_42  and  C_43
REMARK   26  A    between atoms: C_43  and  C_44
REMARK                            x       y       z     vdW  Elec       q    Type
REMARK                         _______ _______ _______ _____ _____    ______ ____
ROOT
ATOM      1  O   UNL     1       5.375 -20.365  14.390  0.00  0.00    +0.000 OA
ATOM      2  C   UNL     1       3.263 -13.597  14.695  0.00  0.00    +0.000 C 
ATOM      3  C   UNL     1       4.238 -12.521  15.132  0.00  0.00    +0.000 C 
ATOM      4  C   UNL     1       3.080 -12.975  16.065  0.00  0.00    +0.000 C 
ATOM      5  C   UNL     1       3.749 -14.957  14.291  0.00  0.00    +0.000 C 
ATOM      6  C   UNL     1       5.709 -12.939  15.316  0.00  0.00    +0.000 C 
ATOM      7  C   UNL     1       5.233 -15.380  14.701  0.00  0.00    +0.000 C 
ATOM      8  C   UNL     1       6.100 -14.108  14.345  0.00  0.00    +0.000 C 
ATOM      9  C   UNL     1       1.836 -12.113  16.197  0.00  0.00    +0.000 C 
ATOM     10  C   UNL     1       3.329 -13.773  17.321  0.00  0.00    +0.000 C 
ATOM     11  C   UNL     1       5.586 -16.783  13.988  0.00  0.00    +0.000 C 
ATOM     12  C   UNL     1       2.728 -16.056  14.519  0.00  0.00    +0.000 C 
ATOM     13  C   UNL     1       4.719 -18.024  14.480  0.00  0.00    +0.000 C 
ATOM     14  C   UNL     1       7.616 -14.312  14.344  0.00  0.00    +0.000 C 
ATOM     15  C   UNL     1       2.615 -16.979  13.540  0.00  0.00    +0.000 C 
ATOM     16  C   UNL     1       3.386 -18.272  13.740  0.00  0.00    +0.000 C 
ATOM     17  C   UNL     1       6.986 -17.368  14.125  0.00  0.00    +0.000 C 
ATOM     18  C   UNL     1       5.679 -19.184  14.321  0.00  0.00    +0.000 C 
ATOM     19  C   UNL     1       7.062 -18.701  14.237  0.00  0.00    +0.000 C 
ATOM     20  C   UNL     1       8.235 -19.598  14.299  0.00  0.00    +0.000 C 
ENDROOT
BRANCH   7  21
ATOM     21  O   UNL     1       5.369 -15.572  16.115  0.00  0.00    +0.000 OA
ATOM     22  H   UNL     1       6.138 -16.167  16.266  0.00  0.00    +0.000 HD
ENDBRANCH   7  21
BRANCH  13  23
ATOM     23  O   UNL     1       4.486 -17.976  15.909  0.00  0.00    +0.000 OA
ATOM     24  H   UNL     1       5.010 -18.709  16.294  0.00  0.00    +0.000 HD
ENDBRANCH  13  23
BRANCH   3  25
ATOM     25  O   UNL     1       4.053 -11.334  14.317  0.00  0.00    +0.000 OA
BRANCH  25  27
ATOM     26  O   UNL     1       2.636 -11.040  12.599  0.00  0.00    +0.000 OA
ATOM     27  C   UNL     1       3.763 -11.340  12.991  0.00  0.00    +0.000 C 
ATOM     28  C   UNL     1       4.859 -11.637  12.013  0.00  0.00    +0.000 C 
ENDBRANCH  25  27
ENDBRANCH   3  25
BRANCH  15  29
ATOM     29  C   UNL     1       2.304 -16.636  12.107  0.00  0.00    +0.000 C 
BRANCH  29  30
ATOM     30  O   UNL     1       0.896 -16.547  11.968  0.00  0.00    +0.000 OA
ATOM     31  H   UNL     1       0.691 -16.782  11.045  0.00  0.00    +0.000 HD
ENDBRANCH  29  30
ENDBRANCH  15  29
BRANCH   6  32
ATOM     32  O   UNL     1       6.541 -11.777  15.053  0.00  0.00    +0.000 OA
BRANCH  32  34
ATOM     33  O   UNL     1       8.320 -10.744  15.931  0.00  0.00    +0.000 OA
ATOM     34  C   UNL     1       7.118 -10.995  15.993  0.00  0.00    +0.000 C 
BRANCH  34  35
ATOM     35  C   UNL     1       6.275 -10.437  17.113  0.00  0.00    +0.000 C 
BRANCH  35  36
ATOM     36  C   UNL     1       6.552 -11.145  18.434  0.00  0.00    +0.000 C 
BRANCH  36  37
ATOM     37  C   UNL     1       5.336 -11.241  19.362  0.00  0.00    +0.000 C 
BRANCH  37  38
ATOM     38  C   UNL     1       4.929  -9.913  20.014  0.00  0.00    +0.000 C 
BRANCH  38  39
ATOM     39  C   UNL     1       3.492  -9.936  20.545  0.00  0.00    +0.000 C 
BRANCH  39  40
ATOM     40  C   UNL     1       2.483 -10.519  19.551  0.00  0.00    +0.000 C 
BRANCH  40  41
ATOM     41  C   UNL     1       1.918 -11.872  19.994  0.00  0.00    +0.000 C 
BRANCH  41  42
ATOM     42  C   UNL     1       0.737 -11.748  20.960  0.00  0.00    +0.000 C 
BRANCH  42  43
ATOM     43  C   UNL     1      -0.437 -12.697  20.703  0.00  0.00    +0.000 C 
BRANCH  43  44
ATOM     44  C   UNL     1      -0.470 -13.347  19.316  0.00  0.00    +0.000 C 
BRANCH  44  45
ATOM     45  C   UNL     1      -0.667 -14.866  19.302  0.00  0.00    +0.000 C 
BRANCH  45  46
ATOM     46  C   UNL     1       0.587 -15.697  19.022  0.00  0.00    +0.000 C 
ATOM     47  C   UNL     1       1.619 -15.631  20.137  0.00  0.00    +0.000 C 
ENDBRANCH  45  46
ENDBRANCH  44  45
ENDBRANCH  43  44
ENDBRANCH  42  43
ENDBRANCH  41  42
ENDBRANCH  40  41
ENDBRANCH  39  40
ENDBRANCH  38  39
ENDBRANCH  37  38
ENDBRANCH  36  37
ENDBRANCH  35  36
ENDBRANCH  34  35
ENDBRANCH  32  34
ENDBRANCH   6  32
TORSDOF 20
ENDMDL
MODEL 5
REMARK VINA RESULT:      -3.0     28.328     32.608
REMARK  Name = 27924_Phorbol.pdbqt.pdb
REMARK  26 active torsions:
REMARK  status: ('A' for Active; 'I' for Inactive)
REMARK    1  A    between atoms: O_1  and  C_10
REMARK    2  A    between atoms: O_1  and  C_26
REMARK    3  A    between atoms: O_2  and  C_13
REMARK    4  A    between atoms: O_2  and  C_28
REMARK    5  A    between atoms: O_3  and  C_14
REMARK    6  A    between atoms: O_4  and  C_20
REMARK    7  A    between atoms: O_7  and  C_29
REMARK    8  A    between atoms: C_11  and  C_16
REMARK    9  A    between atoms: C_11  and  C_17
REMARK   10  A    between atoms: C_15  and  C_21
REMARK   11  A    between atoms: C_22  and  C_29
REMARK   12  A    between atoms: C_26  and  C_30
REMARK   13  A    between atoms: C_27  and  C_31
REMARK   14  A    between atoms: C_28  and  C_32
REMARK   15  A    between atoms: C_32  and  C_33
REMARK   16  A    between atoms: C_33  and  C_34
REMARK   17  A    between atoms: C_34  and  C_35
REMARK   18  A    between atoms: C_35  and  C_36
REMARK   19  A    between atoms: C_36  and  C_37
REMARK   20  A    between atoms: C_37  and  C_38
REMARK   21  A    between atoms: C_38  and  C_39
REMARK   22  A    between atoms: C_39  and  C_40
REMARK   23  A    between atoms: C_40  and  C_41
REMARK   24  A    between atoms: C_41  and  C_42
REMARK   25  A    between atoms: C_42  and  C_43
REMARK   26  A    between atoms: C_43  and  C_44
REMARK                            x       y       z     vdW  Elec       q    Type
REMARK                         _______ _______ _______ _____ _____    ______ ____
ROOT
ATOM      1  O   UNL     1     -20.550   7.142   1.513  0.00  0.00    +0.000 OA
ATOM      2  C   UNL     1     -13.505   7.916   1.862  0.00  0.00    +0.000 C 
ATOM      3  C   UNL     1     -12.847   8.257   3.187  0.00  0.00    +0.000 C 
ATOM      4  C   UNL     1     -12.956   9.316   2.053  0.00  0.00    +0.000 C 
ATOM      5  C   UNL     1     -14.916   7.413   1.812  0.00  0.00    +0.000 C 
ATOM      6  C   UNL     1     -13.742   8.239   4.439  0.00  0.00    +0.000 C 
ATOM      7  C   UNL     1     -15.836   7.617   3.101  0.00  0.00    +0.000 C 
ATOM      8  C   UNL     1     -14.903   7.191   4.303  0.00  0.00    +0.000 C 
ATOM      9  C   UNL     1     -11.741   9.632   1.197  0.00  0.00    +0.000 C 
ATOM     10  C   UNL     1     -13.879  10.506   2.154  0.00  0.00    +0.000 C 
ATOM     11  C   UNL     1     -17.222   6.823   2.878  0.00  0.00    +0.000 C 
ATOM     12  C   UNL     1     -15.627   7.737   0.511  0.00  0.00    +0.000 C 
ATOM     13  C   UNL     1     -18.137   7.385   1.702  0.00  0.00    +0.000 C 
ATOM     14  C   UNL     1     -15.597   6.991   5.650  0.00  0.00    +0.000 C 
ATOM     15  C   UNL     1     -16.388   6.753  -0.014  0.00  0.00    +0.000 C 
ATOM     16  C   UNL     1     -17.875   6.814   0.291  0.00  0.00    +0.000 C 
ATOM     17  C   UNL     1     -18.247   6.763   4.003  0.00  0.00    +0.000 C 
ATOM     18  C   UNL     1     -19.535   7.070   2.189  0.00  0.00    +0.000 C 
ATOM     19  C   UNL     1     -19.534   6.824   3.636  0.00  0.00    +0.000 C 
ATOM     20  C   UNL     1     -20.772   6.709   4.435  0.00  0.00    +0.000 C 
ENDROOT
BRANCH   7  21
ATOM     21  O   UNL     1     -16.163   8.996   3.320  0.00  0.00    +0.000 OA
ATOM     22  H   UNL     1     -16.088   9.174   4.283  0.00  0.00    +0.000 HD
ENDBRANCH   7  21
BRANCH  13  23
ATOM     23  O   UNL     1     -18.116   8.833   1.659  0.00  0.00    +0.000 OA
ATOM     24  H   UNL     1     -19.049   9.115   1.558  0.00  0.00    +0.000 HD
ENDBRANCH  13  23
BRANCH   3  25
ATOM     25  O   UNL     1     -11.612   7.508   3.324  0.00  0.00    +0.000 OA
BRANCH  25  27
ATOM     26  O   UNL     1     -12.101   5.321   3.474  0.00  0.00    +0.000 OA
ATOM     27  C   UNL     1     -11.441   6.215   2.948  0.00  0.00    +0.000 C 
ATOM     28  C   UNL     1     -10.496   5.909   1.825  0.00  0.00    +0.000 C 
ENDBRANCH  25  27
ENDBRANCH   3  25
BRANCH  15  29
ATOM     29  C   UNL     1     -15.860   5.383  -0.347  0.00  0.00    +0.000 C 
BRANCH  29  30
ATOM     30  O   UNL     1     -16.705   4.422   0.263  0.00  0.00    +0.000 OA
ATOM     31  H   UNL     1     -16.538   4.471   1.221  0.00  0.00    +0.000 HD
ENDBRANCH  29  30
ENDBRANCH  15  29
BRANCH   6  32
ATOM     32  O   UNL     1     -12.906   7.906   5.581  0.00  0.00    +0.000 OA
BRANCH  32  34
ATOM     33  O   UNL     1     -12.402   9.824   6.616  0.00  0.00    +0.000 OA
ATOM     34  C   UNL     1     -12.024   8.739   6.179  0.00  0.00    +0.000 C 
BRANCH  34  35
ATOM     35  C   UNL     1     -10.579   8.324   6.300  0.00  0.00    +0.000 C 
BRANCH  35  36
ATOM     36  C   UNL     1     -10.444   6.840   6.621  0.00  0.00    +0.000 C 
BRANCH  36  37
ATOM     37  C   UNL     1      -9.338   6.126   5.836  0.00  0.00    +0.000 C 
BRANCH  37  38
ATOM     38  C   UNL     1      -8.499   5.149   6.670  0.00  0.00    +0.000 C 
BRANCH  38  39
ATOM     39  C   UNL     1      -8.365   5.590   8.131  0.00  0.00    +0.000 C 
BRANCH  39  40
ATOM     40  C   UNL     1      -7.117   6.435   8.402  0.00  0.00    +0.000 C 
BRANCH  40  41
ATOM     41  C   UNL     1      -7.444   7.878   8.797  0.00  0.00    +0.000 C 
BRANCH  41  42
ATOM     42  C   UNL     1      -6.730   8.920   7.931  0.00  0.00    +0.000 C 
BRANCH  42  43
ATOM     43  C   UNL     1      -7.128   8.943   6.453  0.00  0.00    +0.000 C 
BRANCH  43  44
ATOM     44  C   UNL     1      -6.106   8.342   5.483  0.00  0.00    +0.000 C 
BRANCH  44  45
ATOM     45  C   UNL     1      -6.495   8.380   4.003  0.00  0.00    +0.000 C 
BRANCH  45  46
ATOM     46  C   UNL     1      -6.853   7.031   3.374  0.00  0.00    +0.000 C 
ATOM     47  C   UNL     1      -6.484   6.934   1.902  0.00  0.00    +0.000 C 
ENDBRANCH  45  46
ENDBRANCH  44  45
ENDBRANCH  43  44
ENDBRANCH  42  43
ENDBRANCH  41  42
ENDBRANCH  40  41
ENDBRANCH  39  40
ENDBRANCH  38  39
ENDBRANCH  37  38
ENDBRANCH  36  37
ENDBRANCH  35  36
ENDBRANCH  34  35
ENDBRANCH  32  34
ENDBRANCH   6  32
TORSDOF 20
ENDMDL
MODEL 6
REMARK VINA RESULT:      -2.8     14.694     18.843
REMARK  Name = 27924_Phorbol.pdbqt.pdb
REMARK  26 active torsions:
REMARK  status: ('A' for Active; 'I' for Inactive)
REMARK    1  A    between atoms: O_1  and  C_10
REMARK    2  A    between atoms: O_1  and  C_26
REMARK    3  A    between atoms: O_2  and  C_13
REMARK    4  A    between atoms: O_2  and  C_28
REMARK    5  A    between atoms: O_3  and  C_14
REMARK    6  A    between atoms: O_4  and  C_20
REMARK    7  A    between atoms: O_7  and  C_29
REMARK    8  A    between atoms: C_11  and  C_16
REMARK    9  A    between atoms: C_11  and  C_17
REMARK   10  A    between atoms: C_15  and  C_21
REMARK   11  A    between atoms: C_22  and  C_29
REMARK   12  A    between atoms: C_26  and  C_30
REMARK   13  A    between atoms: C_27  and  C_31
REMARK   14  A    between atoms: C_28  and  C_32
REMARK   15  A    between atoms: C_32  and  C_33
REMARK   16  A    between atoms: C_33  and  C_34
REMARK   17  A    between atoms: C_34  and  C_35
REMARK   18  A    between atoms: C_35  and  C_36
REMARK   19  A    between atoms: C_36  and  C_37
REMARK   20  A    between atoms: C_37  and  C_38
REMARK   21  A    between atoms: C_38  and  C_39
REMARK   22  A    between atoms: C_39  and  C_40
REMARK   23  A    between atoms: C_40  and  C_41
REMARK   24  A    between atoms: C_41  and  C_42
REMARK   25  A    between atoms: C_42  and  C_43
REMARK   26  A    between atoms: C_43  and  C_44
REMARK                            x       y       z     vdW  Elec       q    Type
REMARK                         _______ _______ _______ _____ _____    ______ ____
ROOT
ATOM      1  O   UNL     1      -0.760 -20.316   4.047  0.00  0.00    +0.000 OA
ATOM      2  C   UNL     1       6.234 -19.921   2.913  0.00  0.00    +0.000 C 
ATOM      3  C   UNL     1       7.158 -19.488   4.036  0.00  0.00    +0.000 C 
ATOM      4  C   UNL     1       6.861 -18.542   2.837  0.00  0.00    +0.000 C 
ATOM      5  C   UNL     1       4.824 -20.344   3.197  0.00  0.00    +0.000 C 
ATOM      6  C   UNL     1       6.535 -19.329   5.435  0.00  0.00    +0.000 C 
ATOM      7  C   UNL     1       4.192 -19.959   4.613  0.00  0.00    +0.000 C 
ATOM      8  C   UNL     1       5.333 -20.316   5.645  0.00  0.00    +0.000 C 
ATOM      9  C   UNL     1       7.888 -18.385   1.728  0.00  0.00    +0.000 C 
ATOM     10  C   UNL     1       6.022 -17.297   2.987  0.00  0.00    +0.000 C 
ATOM     11  C   UNL     1       2.762 -20.690   4.755  0.00  0.00    +0.000 C 
ATOM     12  C   UNL     1       3.877 -20.110   2.035  0.00  0.00    +0.000 C 
ATOM     13  C   UNL     1       1.649 -20.196   3.728  0.00  0.00    +0.000 C 
ATOM     14  C   UNL     1       4.919 -20.340   7.117  0.00  0.00    +0.000 C 
ATOM     15  C   UNL     1       2.990 -21.096   1.781  0.00  0.00    +0.000 C 
ATOM     16  C   UNL     1       1.599 -20.919   2.364  0.00  0.00    +0.000 C 
ATOM     17  C   UNL     1       1.984 -20.578   6.060  0.00  0.00    +0.000 C 
ATOM     18  C   UNL     1       0.368 -20.379   4.514  0.00  0.00    +0.000 C 
ATOM     19  C   UNL     1       0.652 -20.479   5.950  0.00  0.00    +0.000 C 
ATOM     20  C   UNL     1      -0.402 -20.442   6.985  0.00  0.00    +0.000 C 
ENDROOT
BRANCH   7  21
ATOM     21  O   UNL     1       3.967 -18.549   4.739  0.00  0.00    +0.000 OA
ATOM     22  H   UNL     1       3.671 -18.211   3.864  0.00  0.00    +0.000 HD
ENDBRANCH   7  21
BRANCH  13  23
ATOM     23  O   UNL     1       1.714 -18.763   3.524  0.00  0.00    +0.000 OA
ATOM     24  H   UNL     1       2.495 -18.606   2.954  0.00  0.00    +0.000 HD
ENDBRANCH  13  23
BRANCH   3  25
ATOM     25  O   UNL     1       8.367 -20.290   4.008  0.00  0.00    +0.000 OA
BRANCH  25  27
ATOM     26  O   UNL     1       7.911 -22.426   4.527  0.00  0.00    +0.000 OA
ATOM     27  C   UNL     1       8.412 -21.620   3.745  0.00  0.00    +0.000 C 
ATOM     28  C   UNL     1       9.007 -22.081   2.449  0.00  0.00    +0.000 C 
ENDBRANCH  25  27
ENDBRANCH   3  25
BRANCH  15  29
ATOM     29  C   UNL     1       3.389 -22.522   1.503  0.00  0.00    +0.000 C 
BRANCH  29  30
ATOM     30  O   UNL     1       2.658 -23.366   2.376  0.00  0.00    +0.000 OA
ATOM     31  H   UNL     1       3.302 -23.974   2.781  0.00  0.00    +0.000 HD
ENDBRANCH  29  30
ENDBRANCH  15  29
BRANCH   6  32
ATOM     32  O   UNL     1       7.572 -19.593   6.419  0.00  0.00    +0.000 OA
BRANCH  32  34
ATOM     33  O   UNL     1       8.857 -17.765   6.344  0.00  0.00    +0.000 OA
ATOM     34  C   UNL     1       8.346 -18.658   7.015  0.00  0.00    +0.000 C 
BRANCH  34  35
ATOM     35  C   UNL     1       8.573 -18.726   8.505  0.00  0.00    +0.000 C 
BRANCH  35  36
ATOM     36  C   UNL     1       9.225 -17.453   9.033  0.00  0.00    +0.000 C 
BRANCH  36  37
ATOM     37  C   UNL     1      10.266 -17.691  10.133  0.00  0.00    +0.000 C 
BRANCH  37  38
ATOM     38  C   UNL     1       9.852 -17.179  11.519  0.00  0.00    +0.000 C 
BRANCH  38  39
ATOM     39  C   UNL     1       9.800 -15.649  11.588  0.00  0.00    +0.000 C 
BRANCH  39  40
ATOM     40  C   UNL     1       9.946 -15.095  13.008  0.00  0.00    +0.000 C 
BRANCH  40  41
ATOM     41  C   UNL     1      11.061 -14.054  13.135  0.00  0.00    +0.000 C 
BRANCH  41  42
ATOM     42  C   UNL     1      11.206 -13.168  11.895  0.00  0.00    +0.000 C 
BRANCH  42  43
ATOM     43  C   UNL     1      10.367 -11.886  11.890  0.00  0.00    +0.000 C 
BRANCH  43  44
ATOM     44  C   UNL     1       9.048 -11.963  11.115  0.00  0.00    +0.000 C 
BRANCH  44  45
ATOM     45  C   UNL     1       7.806 -12.281  11.953  0.00  0.00    +0.000 C 
BRANCH  45  46
ATOM     46  C   UNL     1       6.607 -12.836  11.182  0.00  0.00    +0.000 C 
ATOM     47  C   UNL     1       6.560 -14.356  11.149  0.00  0.00    +0.000 C 
ENDBRANCH  45  46
ENDBRANCH  44  45
ENDBRANCH  43  44
ENDBRANCH  42  43
ENDBRANCH  41  42
ENDBRANCH  40  41
ENDBRANCH  39  40
ENDBRANCH  38  39
ENDBRANCH  37  38
ENDBRANCH  36  37
ENDBRANCH  35  36
ENDBRANCH  34  35
ENDBRANCH  32  34
ENDBRANCH   6  32
TORSDOF 20
ENDMDL
MODEL 7
REMARK VINA RESULT:      -2.6      8.696     13.073
REMARK  Name = 27924_Phorbol.pdbqt.pdb
REMARK  26 active torsions:
REMARK  status: ('A' for Active; 'I' for Inactive)
REMARK    1  A    between atoms: O_1  and  C_10
REMARK    2  A    between atoms: O_1  and  C_26
REMARK    3  A    between atoms: O_2  and  C_13
REMARK    4  A    between atoms: O_2  and  C_28
REMARK    5  A    between atoms: O_3  and  C_14
REMARK    6  A    between atoms: O_4  and  C_20
REMARK    7  A    between atoms: O_7  and  C_29
REMARK    8  A    between atoms: C_11  and  C_16
REMARK    9  A    between atoms: C_11  and  C_17
REMARK   10  A    between atoms: C_15  and  C_21
REMARK   11  A    between atoms: C_22  and  C_29
REMARK   12  A    between atoms: C_26  and  C_30
REMARK   13  A    between atoms: C_27  and  C_31
REMARK   14  A    between atoms: C_28  and  C_32
REMARK   15  A    between atoms: C_32  and  C_33
REMARK   16  A    between atoms: C_33  and  C_34
REMARK   17  A    between atoms: C_34  and  C_35
REMARK   18  A    between atoms: C_35  and  C_36
REMARK   19  A    between atoms: C_36  and  C_37
REMARK   20  A    between atoms: C_37  and  C_38
REMARK   21  A    between atoms: C_38  and  C_39
REMARK   22  A    between atoms: C_39  and  C_40
REMARK   23  A    between atoms: C_40  and  C_41
REMARK   24  A    between atoms: C_41  and  C_42
REMARK   25  A    between atoms: C_42  and  C_43
REMARK   26  A    between atoms: C_43  and  C_44
REMARK                            x       y       z     vdW  Elec       q    Type
REMARK                         _______ _______ _______ _____ _____    ______ ____
ROOT
ATOM      1  O   UNL     1      10.118 -18.941  10.634  0.00  0.00    +0.000 OA
ATOM      2  C   UNL     1       8.786 -12.411  13.073  0.00  0.00    +0.000 C 
ATOM      3  C   UNL     1       7.386 -12.047  13.530  0.00  0.00    +0.000 C 
ATOM      4  C   UNL     1       7.963 -11.485  12.199  0.00  0.00    +0.000 C 
ATOM      5  C   UNL     1       9.184 -13.844  12.882  0.00  0.00    +0.000 C 
ATOM      6  C   UNL     1       6.355 -13.188  13.609  0.00  0.00    +0.000 C 
ATOM      7  C   UNL     1       8.028 -14.941  12.778  0.00  0.00    +0.000 C 
ATOM      8  C   UNL     1       7.038 -14.559  13.949  0.00  0.00    +0.000 C 
ATOM      9  C   UNL     1       8.480 -10.057  12.145  0.00  0.00    +0.000 C 
ATOM     10  C   UNL     1       7.455 -11.935  10.852  0.00  0.00    +0.000 C 
ATOM     11  C   UNL     1       8.702 -16.406  12.781  0.00  0.00    +0.000 C 
ATOM     12  C   UNL     1      10.284 -14.035  11.855  0.00  0.00    +0.000 C 
ATOM     13  C   UNL     1       9.609 -16.731  11.512  0.00  0.00    +0.000 C 
ATOM     14  C   UNL     1       5.980 -15.606  14.298  0.00  0.00    +0.000 C 
ATOM     15  C   UNL     1      11.251 -14.922  12.173  0.00  0.00    +0.000 C 
ATOM     16  C   UNL     1      11.096 -16.321  11.604  0.00  0.00    +0.000 C 
ATOM     17  C   UNL     1       7.817 -17.645  12.796  0.00  0.00    +0.000 C 
ATOM     18  C   UNL     1       9.442 -18.227  11.360  0.00  0.00    +0.000 C 
ATOM     19  C   UNL     1       8.246 -18.688  12.074  0.00  0.00    +0.000 C 
ATOM     20  C   UNL     1       7.698 -20.053  11.931  0.00  0.00    +0.000 C 
ENDROOT
BRANCH   7  21
ATOM     21  O   UNL     1       7.275 -14.819  11.564  0.00  0.00    +0.000 OA
ATOM     22  H   UNL     1       6.372 -15.171  11.732  0.00  0.00    +0.000 HD
ENDBRANCH   7  21
BRANCH  13  23
ATOM     23  O   UNL     1       9.028 -16.202  10.295  0.00  0.00    +0.000 OA
ATOM     24  H   UNL     1       8.067 -16.384  10.353  0.00  0.00    +0.000 HD
ENDBRANCH  13  23
BRANCH   3  25
ATOM     25  O   UNL     1       7.461 -11.226  14.724  0.00  0.00    +0.000 OA
BRANCH  25  27
ATOM     26  O   UNL     1       9.332 -10.568  15.778  0.00  0.00    +0.000 OA
ATOM     27  C   UNL     1       8.394 -11.359  15.701  0.00  0.00    +0.000 C 
ATOM     28  C   UNL     1       8.213 -12.435  16.730  0.00  0.00    +0.000 C 
ENDBRANCH  25  27
ENDBRANCH   3  25
BRANCH  15  29
ATOM     29  C   UNL     1      12.084 -14.830  13.425  0.00  0.00    +0.000 C 
BRANCH  29  30
ATOM     30  O   UNL     1      12.702 -13.555  13.453  0.00  0.00    +0.000 OA
ATOM     31  H   UNL     1      12.417 -13.125  14.280  0.00  0.00    +0.000 HD
ENDBRANCH  29  30
ENDBRANCH  15  29
BRANCH   6  32
ATOM     32  O   UNL     1       5.388 -12.846  14.640  0.00  0.00    +0.000 OA
BRANCH  32  34
ATOM     33  O   UNL     1       3.787 -11.312  14.931  0.00  0.00    +0.000 OA
ATOM     34  C   UNL     1       4.141 -12.373  14.421  0.00  0.00    +0.000 C 
BRANCH  34  35
ATOM     35  C   UNL     1       3.193 -13.158  13.549  0.00  0.00    +0.000 C 
BRANCH  35  36
ATOM     36  C   UNL     1       2.612 -14.359  14.286  0.00  0.00    +0.000 C 
BRANCH  36  37
ATOM     37  C   UNL     1       2.396 -15.593  13.403  0.00  0.00    +0.000 C 
BRANCH  37  38
ATOM     38  C   UNL     1       2.497 -16.931  14.148  0.00  0.00    +0.000 C 
BRANCH  38  39
ATOM     39  C   UNL     1       2.143 -16.804  15.633  0.00  0.00    +0.000 C 
BRANCH  39  40
ATOM     40  C   UNL     1       3.326 -17.064  16.569  0.00  0.00    +0.000 C 
BRANCH  40  41
ATOM     41  C   UNL     1       3.362 -16.115  17.770  0.00  0.00    +0.000 C 
BRANCH  41  42
ATOM     42  C   UNL     1       4.338 -14.949  17.591  0.00  0.00    +0.000 C 
BRANCH  42  43
ATOM     43  C   UNL     1       3.760 -13.552  17.836  0.00  0.00    +0.000 C 
BRANCH  43  44
ATOM     44  C   UNL     1       2.247 -13.419  17.638  0.00  0.00    +0.000 C 
BRANCH  44  45
ATOM     45  C   UNL     1       1.696 -11.991  17.690  0.00  0.00    +0.000 C 
BRANCH  45  46
ATOM     46  C   UNL     1       0.497 -11.774  18.617  0.00  0.00    +0.000 C 
ATOM     47  C   UNL     1      -0.203 -13.064  19.013  0.00  0.00    +0.000 C 
ENDBRANCH  45  46
ENDBRANCH  44  45
ENDBRANCH  43  44
ENDBRANCH  42  43
ENDBRANCH  41  42
ENDBRANCH  40  41
ENDBRANCH  39  40
ENDBRANCH  38  39
ENDBRANCH  37  38
ENDBRANCH  36  37
ENDBRANCH  35  36
ENDBRANCH  34  35
ENDBRANCH  32  34
ENDBRANCH   6  32
TORSDOF 20
ENDMDL
MODEL 8
REMARK VINA RESULT:      -2.6     17.290     19.675
REMARK  Name = 27924_Phorbol.pdbqt.pdb
REMARK  26 active torsions:
REMARK  status: ('A' for Active; 'I' for Inactive)
REMARK    1  A    between atoms: O_1  and  C_10
REMARK    2  A    between atoms: O_1  and  C_26
REMARK    3  A    between atoms: O_2  and  C_13
REMARK    4  A    between atoms: O_2  and  C_28
REMARK    5  A    between atoms: O_3  and  C_14
REMARK    6  A    between atoms: O_4  and  C_20
REMARK    7  A    between atoms: O_7  and  C_29
REMARK    8  A    between atoms: C_11  and  C_16
REMARK    9  A    between atoms: C_11  and  C_17
REMARK   10  A    between atoms: C_15  and  C_21
REMARK   11  A    between atoms: C_22  and  C_29
REMARK   12  A    between atoms: C_26  and  C_30
REMARK   13  A    between atoms: C_27  and  C_31
REMARK   14  A    between atoms: C_28  and  C_32
REMARK   15  A    between atoms: C_32  and  C_33
REMARK   16  A    between atoms: C_33  and  C_34
REMARK   17  A    between atoms: C_34  and  C_35
REMARK   18  A    between atoms: C_35  and  C_36
REMARK   19  A    between atoms: C_36  and  C_37
REMARK   20  A    between atoms: C_37  and  C_38
REMARK   21  A    between atoms: C_38  and  C_39
REMARK   22  A    between atoms: C_39  and  C_40
REMARK   23  A    between atoms: C_40  and  C_41
REMARK   24  A    between atoms: C_41  and  C_42
REMARK   25  A    between atoms: C_42  and  C_43
REMARK   26  A    between atoms: C_43  and  C_44
REMARK                            x       y       z     vdW  Elec       q    Type
REMARK                         _______ _______ _______ _____ _____    ______ ____
ROOT
ATOM      1  O   UNL     1      -6.705   0.482  27.416  0.00  0.00    +0.000 OA
ATOM      2  C   UNL     1     -13.780   0.966  27.663  0.00  0.00    +0.000 C 
ATOM      3  C   UNL     1     -14.618  -0.291  27.806  0.00  0.00    +0.000 C 
ATOM      4  C   UNL     1     -14.564   0.484  26.459  0.00  0.00    +0.000 C 
ATOM      5  C   UNL     1     -12.309   0.945  27.950  0.00  0.00    +0.000 C 
ATOM      6  C   UNL     1     -13.867  -1.608  28.074  0.00  0.00    +0.000 C 
ATOM      7  C   UNL     1     -11.573  -0.471  28.015  0.00  0.00    +0.000 C 
ATOM      8  C   UNL     1     -12.546  -1.363  28.884  0.00  0.00    +0.000 C 
ATOM      9  C   UNL     1     -15.718   1.390  26.062  0.00  0.00    +0.000 C 
ATOM     10  C   UNL     1     -13.860  -0.070  25.244  0.00  0.00    +0.000 C 
ATOM     11  C   UNL     1     -10.062  -0.245  28.531  0.00  0.00    +0.000 C 
ATOM     12  C   UNL     1     -11.528   1.990  27.176  0.00  0.00    +0.000 C 
ATOM     13  C   UNL     1      -9.132   0.588  27.542  0.00  0.00    +0.000 C 
ATOM     14  C   UNL     1     -11.972  -2.691  29.378  0.00  0.00    +0.000 C 
ATOM     15  C   UNL     1     -10.567   2.647  27.862  0.00  0.00    +0.000 C 
ATOM     16  C   UNL     1      -9.150   2.124  27.707  0.00  0.00    +0.000 C 
ATOM     17  C   UNL     1      -9.163  -1.449  28.786  0.00  0.00    +0.000 C 
ATOM     18  C   UNL     1      -7.760   0.006  27.808  0.00  0.00    +0.000 C 
ATOM     19  C   UNL     1      -7.872  -1.303  28.460  0.00  0.00    +0.000 C 
ATOM     20  C   UNL     1      -6.722  -2.212  28.647  0.00  0.00    +0.000 C 
ENDROOT
BRANCH   7  21
ATOM     21  O   UNL     1     -11.497  -1.101  26.730  0.00  0.00    +0.000 OA
ATOM     22  H   UNL     1     -12.413  -1.315  26.444  0.00  0.00    +0.000 HD
ENDBRANCH   7  21
BRANCH  13  23
ATOM     23  O   UNL     1      -9.381   0.239  26.158  0.00  0.00    +0.000 OA
ATOM     24  H   UNL     1     -10.348   0.325  26.027  0.00  0.00    +0.000 HD
ENDBRANCH  13  23
BRANCH   3  25
ATOM     25  O   UNL     1     -15.725  -0.039  28.711  0.00  0.00    +0.000 OA
BRANCH  25  27
ATOM     26  O   UNL     1     -16.217   1.895  29.741  0.00  0.00    +0.000 OA
ATOM     27  C   UNL     1     -15.677   0.791  29.784  0.00  0.00    +0.000 C 
ATOM     28  C   UNL     1     -15.028   0.305  31.045  0.00  0.00    +0.000 C 
ENDBRANCH  25  27
ENDBRANCH   3  25
BRANCH  15  29
ATOM     29  C   UNL     1     -10.830   3.412  29.133  0.00  0.00    +0.000 C 
BRANCH  29  30
ATOM     30  O   UNL     1      -9.997   2.883  30.150  0.00  0.00    +0.000 OA
ATOM     31  H   UNL     1     -10.059   3.492  30.907  0.00  0.00    +0.000 HD
ENDBRANCH  29  30
ENDBRANCH  15  29
BRANCH   6  32
ATOM     32  O   UNL     1     -14.753  -2.483  28.826  0.00  0.00    +0.000 OA
BRANCH  32  34
ATOM     33  O   UNL     1     -16.490  -3.523  27.876  0.00  0.00    +0.000 OA
ATOM     34  C   UNL     1     -15.356  -3.593  28.343  0.00  0.00    +0.000 C 
BRANCH  34  35
ATOM     35  C   UNL     1     -14.623  -4.911  28.384  0.00  0.00    +0.000 C 
BRANCH  35  36
ATOM     36  C   UNL     1     -15.454  -5.997  29.057  0.00  0.00    +0.000 C 
BRANCH  36  37
ATOM     37  C   UNL     1     -15.936  -7.098  28.105  0.00  0.00    +0.000 C 
BRANCH  37  38
ATOM     38  C   UNL     1     -15.158  -8.416  28.215  0.00  0.00    +0.000 C 
BRANCH  38  39
ATOM     39  C   UNL     1     -14.380  -8.530  29.530  0.00  0.00    +0.000 C 
BRANCH  39  40
ATOM     40  C   UNL     1     -13.163  -9.456  29.443  0.00  0.00    +0.000 C 
BRANCH  40  41
ATOM     41  C   UNL     1     -11.872  -8.798  29.936  0.00  0.00    +0.000 C 
BRANCH  41  42
ATOM     42  C   UNL     1     -11.151  -7.992  28.852  0.00  0.00    +0.000 C 
BRANCH  42  43
ATOM     43  C   UNL     1     -11.225  -6.469  28.995  0.00  0.00    +0.000 C 
BRANCH  43  44
ATOM     44  C   UNL     1     -10.499  -5.667  27.910  0.00  0.00    +0.000 C 
BRANCH  44  45
ATOM     45  C   UNL     1      -9.439  -6.436  27.116  0.00  0.00    +0.000 C 
BRANCH  45  46
ATOM     46  C   UNL     1      -8.502  -5.584  26.258  0.00  0.00    +0.000 C 
ATOM     47  C   UNL     1      -7.370  -6.379  25.626  0.00  0.00    +0.000 C 
ENDBRANCH  45  46
ENDBRANCH  44  45
ENDBRANCH  43  44
ENDBRANCH  42  43
ENDBRANCH  41  42
ENDBRANCH  40  41
ENDBRANCH  39  40
ENDBRANCH  38  39
ENDBRANCH  37  38
ENDBRANCH  36  37
ENDBRANCH  35  36
ENDBRANCH  34  35
ENDBRANCH  32  34
ENDBRANCH   6  32
TORSDOF 20
ENDMDL
MODEL 9
REMARK VINA RESULT:      -2.4     28.800     32.865
REMARK  Name = 27924_Phorbol.pdbqt.pdb
REMARK  26 active torsions:
REMARK  status: ('A' for Active; 'I' for Inactive)
REMARK    1  A    between atoms: O_1  and  C_10
REMARK    2  A    between atoms: O_1  and  C_26
REMARK    3  A    between atoms: O_2  and  C_13
REMARK    4  A    between atoms: O_2  and  C_28
REMARK    5  A    between atoms: O_3  and  C_14
REMARK    6  A    between atoms: O_4  and  C_20
REMARK    7  A    between atoms: O_7  and  C_29
REMARK    8  A    between atoms: C_11  and  C_16
REMARK    9  A    between atoms: C_11  and  C_17
REMARK   10  A    between atoms: C_15  and  C_21
REMARK   11  A    between atoms: C_22  and  C_29
REMARK   12  A    between atoms: C_26  and  C_30
REMARK   13  A    between atoms: C_27  and  C_31
REMARK   14  A    between atoms: C_28  and  C_32
REMARK   15  A    between atoms: C_32  and  C_33
REMARK   16  A    between atoms: C_33  and  C_34
REMARK   17  A    between atoms: C_34  and  C_35
REMARK   18  A    between atoms: C_35  and  C_36
REMARK   19  A    between atoms: C_36  and  C_37
REMARK   20  A    between atoms: C_37  and  C_38
REMARK   21  A    between atoms: C_38  and  C_39
REMARK   22  A    between atoms: C_39  and  C_40
REMARK   23  A    between atoms: C_40  and  C_41
REMARK   24  A    between atoms: C_41  and  C_42
REMARK   25  A    between atoms: C_42  and  C_43
REMARK   26  A    between atoms: C_43  and  C_44
REMARK                            x       y       z     vdW  Elec       q    Type
REMARK                         _______ _______ _______ _____ _____    ______ ____
ROOT
ATOM      1  O   UNL     1     -19.460   7.106   1.226  0.00  0.00    +0.000 OA
ATOM      2  C   UNL     1     -12.534   8.563   1.750  0.00  0.00    +0.000 C 
ATOM      3  C   UNL     1     -11.944   8.953   3.093  0.00  0.00    +0.000 C 
ATOM      4  C   UNL     1     -12.130  10.009   1.965  0.00  0.00    +0.000 C 
ATOM      5  C   UNL     1     -13.888   7.925   1.662  0.00  0.00    +0.000 C 
ATOM      6  C   UNL     1     -12.862   8.835   4.324  0.00  0.00    +0.000 C 
ATOM      7  C   UNL     1     -14.853   8.024   2.931  0.00  0.00    +0.000 C 
ATOM      8  C   UNL     1     -13.910   7.680   4.151  0.00  0.00    +0.000 C 
ATOM      9  C   UNL     1     -10.933  10.451   1.141  0.00  0.00    +0.000 C 
ATOM     10  C   UNL     1     -13.168  11.101   2.054  0.00  0.00    +0.000 C 
ATOM     11  C   UNL     1     -16.149   7.101   2.668  0.00  0.00    +0.000 C 
ATOM     12  C   UNL     1     -14.597   8.191   0.348  0.00  0.00    +0.000 C 
ATOM     13  C   UNL     1     -17.087   7.583   1.475  0.00  0.00    +0.000 C 
ATOM     14  C   UNL     1     -14.612   7.399   5.480  0.00  0.00    +0.000 C 
ATOM     15  C   UNL     1     -15.246   7.143  -0.204  0.00  0.00    +0.000 C 
ATOM     16  C   UNL     1     -16.737   7.055   0.066  0.00  0.00    +0.000 C 
ATOM     17  C   UNL     1     -17.189   6.929   3.768  0.00  0.00    +0.000 C 
ATOM     18  C   UNL     1     -18.458   7.127   1.927  0.00  0.00    +0.000 C 
ATOM     19  C   UNL     1     -18.466   6.868   3.371  0.00  0.00    +0.000 C 
ATOM     20  C   UNL     1     -19.705   6.624   4.139  0.00  0.00    +0.000 C 
ENDROOT
BRANCH   7  21
ATOM     21  O   UNL     1     -15.318   9.362   3.152  0.00  0.00    +0.000 OA
ATOM     22  H   UNL     1     -16.188   9.457   2.704  0.00  0.00    +0.000 HD
ENDBRANCH   7  21
BRANCH  13  23
ATOM     23  O   UNL     1     -17.207   9.026   1.444  0.00  0.00    +0.000 OA
ATOM     24  H   UNL     1     -18.161   9.216   1.323  0.00  0.00    +0.000 HD
ENDBRANCH  13  23
BRANCH   3  25
ATOM     25  O   UNL     1     -10.645   8.328   3.254  0.00  0.00    +0.000 OA
BRANCH  25  27
ATOM     26  O   UNL     1      -9.675   6.933   1.786  0.00  0.00    +0.000 OA
ATOM     27  C   UNL     1     -10.322   7.083   2.820  0.00  0.00    +0.000 C 
ATOM     28  C   UNL     1     -10.698   5.903   3.666  0.00  0.00    +0.000 C 
ENDBRANCH  25  27
ENDBRANCH   3  25
BRANCH  15  29
ATOM     29  C   UNL     1     -14.578   5.834  -0.534  0.00  0.00    +0.000 C 
BRANCH  29  30
ATOM     30  O   UNL     1     -15.205   4.812   0.222  0.00  0.00    +0.000 OA
ATOM     31  H   UNL     1     -15.380   4.077  -0.392  0.00  0.00    +0.000 HD
ENDBRANCH  29  30
ENDBRANCH  15  29
BRANCH   6  32
ATOM     32  O   UNL     1     -12.024   8.574   5.483  0.00  0.00    +0.000 OA
BRANCH  32  34
ATOM     33  O   UNL     1     -12.033  10.335   6.862  0.00  0.00    +0.000 OA
ATOM     34  C   UNL     1     -11.385   9.513   6.218  0.00  0.00    +0.000 C 
BRANCH  34  35
ATOM     35  C   UNL     1      -9.877   9.539   6.238  0.00  0.00    +0.000 C 
BRANCH  35  36
ATOM     36  C   UNL     1      -9.296   8.182   6.615  0.00  0.00    +0.000 C 
BRANCH  36  37
ATOM     37  C   UNL     1      -7.809   8.019   6.277  0.00  0.00    +0.000 C 
BRANCH  37  38
ATOM     38  C   UNL     1      -7.010   7.208   7.306  0.00  0.00    +0.000 C 
BRANCH  38  39
ATOM     39  C   UNL     1      -7.477   7.462   8.743  0.00  0.00    +0.000 C 
BRANCH  39  40
ATOM     40  C   UNL     1      -6.678   8.552   9.463  0.00  0.00    +0.000 C 
BRANCH  40  41
ATOM     41  C   UNL     1      -7.472   9.244  10.574  0.00  0.00    +0.000 C 
BRANCH  41  42
ATOM     42  C   UNL     1      -7.667  10.744  10.335  0.00  0.00    +0.000 C 
BRANCH  42  43
ATOM     43  C   UNL     1      -8.428  11.122   9.061  0.00  0.00    +0.000 C 
BRANCH  43  44
ATOM     44  C   UNL     1      -7.720  12.120   8.139  0.00  0.00    +0.000 C 
BRANCH  44  45
ATOM     45  C   UNL     1      -6.900  11.504   7.002  0.00  0.00    +0.000 C 
BRANCH  45  46
ATOM     46  C   UNL     1      -5.409  11.307   7.287  0.00  0.00    +0.000 C 
ATOM     47  C   UNL     1      -4.790  10.159   6.506  0.00  0.00    +0.000 C 
ENDBRANCH  45  46
ENDBRANCH  44  45
ENDBRANCH  43  44
ENDBRANCH  42  43
ENDBRANCH  41  42
ENDBRANCH  40  41
ENDBRANCH  39  40
ENDBRANCH  38  39
ENDBRANCH  37  38
ENDBRANCH  36  37
ENDBRANCH  35  36
ENDBRANCH  34  35
ENDBRANCH  32  34
ENDBRANCH   6  32
TORSDOF 20
ENDMDL
