MODEL 1
REMARK VINA RESULT:      -3.4      0.000      0.000
REMARK  Name = 2Methylcholine.pdbqt.pdb
REMARK  3 active torsions:
REMARK  status: ('A' for Active; 'I' for Inactive)
REMARK    1  A    between atoms: C_1  and  N_2
REMARK    2  A    between atoms: C_1  and  C_6
REMARK    3  A    between atoms: C_6  and  O_8
REMARK                            x       y       z     vdW  Elec       q    Type
REMARK                         _______ _______ _______ _____ _____    ______ ____
ROOT
ATOM      1  C   UNL     1       5.775  -7.419   9.968  0.00  0.00    +0.000 C 
ENDROOT
BRANCH   1   2
ATOM      2  N   UNL     1       6.017  -8.099  11.225  0.00  0.00    +0.000 N 
ATOM      3  C   UNL     1       7.420  -8.516  11.305  0.00  0.00    +0.000 C 
ATOM      4  C   UNL     1       5.717  -7.202  12.344  0.00  0.00    +0.000 C 
ATOM      5  C   UNL     1       5.160  -9.284  11.320  0.00  0.00    +0.000 C 
ENDBRANCH   1   2
BRANCH   1   6
ATOM      6  C   UNL     1       5.516  -6.776   8.749  0.00  0.00    +0.000 C 
ATOM      7  C   UNL     1       5.246  -5.320   8.684  0.00  0.00    +0.000 C 
BRANCH   6   8
ATOM      8  O   UNL     1       5.498  -7.447   7.566  0.00  0.00    +0.000 OA
ATOM      9  H   UNL     1       4.994  -6.918   6.918  0.00  0.00    +0.000 HD
ENDBRANCH   6   8
ENDBRANCH   1   6
TORSDOF 3
ENDMDL
MODEL 2
REMARK VINA RESULT:      -3.2      2.178      3.619
REMARK  Name = 2Methylcholine.pdbqt.pdb
REMARK  3 active torsions:
REMARK  status: ('A' for Active; 'I' for Inactive)
REMARK    1  A    between atoms: C_1  and  N_2
REMARK    2  A    between atoms: C_1  and  C_6
REMARK    3  A    between atoms: C_6  and  O_8
REMARK                            x       y       z     vdW  Elec       q    Type
REMARK                         _______ _______ _______ _____ _____    ______ ____
ROOT
ATOM      1  C   UNL     1       6.010  -5.802   9.340  0.00  0.00    +0.000 C 
ENDROOT
BRANCH   1   2
ATOM      2  N   UNL     1       6.406  -4.486   9.801  0.00  0.00    +0.000 N 
ATOM      3  C   UNL     1       6.047  -3.477   8.799  0.00  0.00    +0.000 C 
ATOM      4  C   UNL     1       5.728  -4.173  11.062  0.00  0.00    +0.000 C 
ATOM      5  C   UNL     1       7.855  -4.452  10.016  0.00  0.00    +0.000 C 
ENDBRANCH   1   2
BRANCH   1   6
ATOM      6  C   UNL     1       5.647  -7.086   8.911  0.00  0.00    +0.000 C 
ATOM      7  C   UNL     1       5.408  -8.186   9.875  0.00  0.00    +0.000 C 
BRANCH   6   8
ATOM      8  O   UNL     1       5.495  -7.393   7.593  0.00  0.00    +0.000 OA
ATOM      9  H   UNL     1       6.318  -7.814   7.278  0.00  0.00    +0.000 HD
ENDBRANCH   6   8
ENDBRANCH   1   6
TORSDOF 3
ENDMDL
MODEL 3
REMARK VINA RESULT:      -3.1     20.401     21.071
REMARK  Name = 2Methylcholine.pdbqt.pdb
REMARK  3 active torsions:
REMARK  status: ('A' for Active; 'I' for Inactive)
REMARK    1  A    between atoms: C_1  and  N_2
REMARK    2  A    between atoms: C_1  and  C_6
REMARK    3  A    between atoms: C_6  and  O_8
REMARK                            x       y       z     vdW  Elec       q    Type
REMARK                         _______ _______ _______ _____ _____    ______ ____
ROOT
ATOM      1  C   UNL     1     -14.720  -6.748   6.437  0.00  0.00    +0.000 C 
ENDROOT
BRANCH   1   2
ATOM      2  N   UNL     1     -14.196  -7.396   5.251  0.00  0.00    +0.000 N 
ATOM      3  C   UNL     1     -13.645  -6.392   4.336  0.00  0.00    +0.000 C 
ATOM      4  C   UNL     1     -13.139  -8.340   5.623  0.00  0.00    +0.000 C 
ATOM      5  C   UNL     1     -15.270  -8.124   4.571  0.00  0.00    +0.000 C 
ENDBRANCH   1   2
BRANCH   1   6
ATOM      6  C   UNL     1     -15.201  -6.111   7.590  0.00  0.00    +0.000 C 
ATOM      7  C   UNL     1     -16.239  -6.736   8.444  0.00  0.00    +0.000 C 
BRANCH   6   8
ATOM      8  O   UNL     1     -14.744  -4.892   7.987  0.00  0.00    +0.000 OA
ATOM      9  H   UNL     1     -15.418  -4.222   7.762  0.00  0.00    +0.000 HD
ENDBRANCH   6   8
ENDBRANCH   1   6
TORSDOF 3
ENDMDL
MODEL 4
REMARK VINA RESULT:      -3.0     20.941     22.050
REMARK  Name = 2Methylcholine.pdbqt.pdb
REMARK  3 active torsions:
REMARK  status: ('A' for Active; 'I' for Inactive)
REMARK    1  A    between atoms: C_1  and  N_2
REMARK    2  A    between atoms: C_1  and  C_6
REMARK    3  A    between atoms: C_6  and  O_8
REMARK                            x       y       z     vdW  Elec       q    Type
REMARK                         _______ _______ _______ _____ _____    ______ ____
ROOT
ATOM      1  C   UNL     1      -8.746  -7.244  26.306  0.00  0.00    +0.000 C 
ENDROOT
BRANCH   1   2
ATOM      2  N   UNL     1      -9.847  -7.913  26.972  0.00  0.00    +0.000 N 
ATOM      3  C   UNL     1     -10.968  -6.984  27.139  0.00  0.00    +0.000 C 
ATOM      4  C   UNL     1     -10.288  -9.062  26.177  0.00  0.00    +0.000 C 
ATOM      5  C   UNL     1      -9.414  -8.383  28.291  0.00  0.00    +0.000 C 
ENDBRANCH   1   2
BRANCH   1   6
ATOM      6  C   UNL     1      -7.684  -6.576  25.681  0.00  0.00    +0.000 C 
ATOM      7  C   UNL     1      -7.605  -5.097  25.658  0.00  0.00    +0.000 C 
BRANCH   6   8
ATOM      8  O   UNL     1      -6.673  -7.246  25.063  0.00  0.00    +0.000 OA
ATOM      9  H   UNL     1      -6.799  -7.172  24.097  0.00  0.00    +0.000 HD
ENDBRANCH   6   8
ENDBRANCH   1   6
TORSDOF 3
ENDMDL
MODEL 5
REMARK VINA RESULT:      -3.0     15.868     16.572
REMARK  Name = 2Methylcholine.pdbqt.pdb
REMARK  3 active torsions:
REMARK  status: ('A' for Active; 'I' for Inactive)
REMARK    1  A    between atoms: C_1  and  N_2
REMARK    2  A    between atoms: C_1  and  C_6
REMARK    3  A    between atoms: C_6  and  O_8
REMARK                            x       y       z     vdW  Elec       q    Type
REMARK                         _______ _______ _______ _____ _____    ______ ____
ROOT
ATOM      1  C   UNL     1      -7.828 -12.852   3.335  0.00  0.00    +0.000 C 
ENDROOT
BRANCH   1   2
ATOM      2  N   UNL     1      -7.318 -12.774   1.980  0.00  0.00    +0.000 N 
ATOM      3  C   UNL     1      -8.392 -13.064   1.025  0.00  0.00    +0.000 C 
ATOM      4  C   UNL     1      -6.794 -11.430   1.721  0.00  0.00    +0.000 C 
ATOM      5  C   UNL     1      -6.241 -13.750   1.799  0.00  0.00    +0.000 C 
ENDBRANCH   1   2
BRANCH   1   6
ATOM      6  C   UNL     1      -8.299 -12.944   4.652  0.00  0.00    +0.000 C 
ATOM      7  C   UNL     1      -9.243 -14.009   5.066  0.00  0.00    +0.000 C 
BRANCH   6   8
ATOM      8  O   UNL     1      -7.918 -12.065   5.619  0.00  0.00    +0.000 OA
ATOM      9  H   UNL     1      -7.702 -11.213   5.193  0.00  0.00    +0.000 HD
ENDBRANCH   6   8
ENDBRANCH   1   6
TORSDOF 3
ENDMDL
MODEL 6
REMARK VINA RESULT:      -2.8     15.349     16.839
REMARK  Name = 2Methylcholine.pdbqt.pdb
REMARK  3 active torsions:
REMARK  status: ('A' for Active; 'I' for Inactive)
REMARK    1  A    between atoms: C_1  and  N_2
REMARK    2  A    between atoms: C_1  and  C_6
REMARK    3  A    between atoms: C_6  and  O_8
REMARK                            x       y       z     vdW  Elec       q    Type
REMARK                         _______ _______ _______ _____ _____    ______ ____
ROOT
ATOM      1  C   UNL     1      -5.675 -16.445  18.314  0.00  0.00    +0.000 C 
ENDROOT
BRANCH   1   2
ATOM      2  N   UNL     1      -4.399 -16.422  17.626  0.00  0.00    +0.000 N 
ATOM      3  C   UNL     1      -3.397 -15.746  18.455  0.00  0.00    +0.000 C 
ATOM      4  C   UNL     1      -3.954 -17.791  17.353  0.00  0.00    +0.000 C 
ATOM      5  C   UNL     1      -4.535 -15.702  16.357  0.00  0.00    +0.000 C 
ENDBRANCH   1   2
BRANCH   1   6
ATOM      6  C   UNL     1      -6.921 -16.472  18.955  0.00  0.00    +0.000 C 
ATOM      7  C   UNL     1      -7.780 -17.680  18.928  0.00  0.00    +0.000 C 
BRANCH   6   8
ATOM      8  O   UNL     1      -7.410 -15.398  19.634  0.00  0.00    +0.000 OA
ATOM      9  H   UNL     1      -6.711 -15.068  20.231  0.00  0.00    +0.000 HD
ENDBRANCH   6   8
ENDBRANCH   1   6
TORSDOF 3
ENDMDL
MODEL 7
REMARK VINA RESULT:      -2.6     12.062     12.975
REMARK  Name = 2Methylcholine.pdbqt.pdb
REMARK  3 active torsions:
REMARK  status: ('A' for Active; 'I' for Inactive)
REMARK    1  A    between atoms: C_1  and  N_2
REMARK    2  A    between atoms: C_1  and  C_6
REMARK    3  A    between atoms: C_6  and  O_8
REMARK                            x       y       z     vdW  Elec       q    Type
REMARK                         _______ _______ _______ _____ _____    ______ ____
ROOT
ATOM      1  C   UNL     1       4.304 -18.285   3.881  0.00  0.00    +0.000 C 
ENDROOT
BRANCH   1   2
ATOM      2  N   UNL     1       3.147 -19.156   3.836  0.00  0.00    +0.000 N 
ATOM      3  C   UNL     1       3.578 -20.558   3.830  0.00  0.00    +0.000 C 
ATOM      4  C   UNL     1       2.297 -18.919   5.005  0.00  0.00    +0.000 C 
ATOM      5  C   UNL     1       2.373 -18.889   2.621  0.00  0.00    +0.000 C 
ENDBRANCH   1   2
BRANCH   1   6
ATOM      6  C   UNL     1       5.440 -17.464   3.929  0.00  0.00    +0.000 C 
ATOM      7  C   UNL     1       6.739 -17.967   4.434  0.00  0.00    +0.000 C 
BRANCH   6   8
ATOM      8  O   UNL     1       5.413 -16.167   3.516  0.00  0.00    +0.000 OA
ATOM      9  H   UNL     1       4.637 -15.731   3.920  0.00  0.00    +0.000 HD
ENDBRANCH   6   8
ENDBRANCH   1   6
TORSDOF 3
ENDMDL
MODEL 8
REMARK VINA RESULT:      -2.6     18.348     19.787
REMARK  Name = 2Methylcholine.pdbqt.pdb
REMARK  3 active torsions:
REMARK  status: ('A' for Active; 'I' for Inactive)
REMARK    1  A    between atoms: C_1  and  N_2
REMARK    2  A    between atoms: C_1  and  C_6
REMARK    3  A    between atoms: C_6  and  O_8
REMARK                            x       y       z     vdW  Elec       q    Type
REMARK                         _______ _______ _______ _____ _____    ______ ____
ROOT
ATOM      1  C   UNL     1      -8.323   5.482   5.348  0.00  0.00    +0.000 C 
ENDROOT
BRANCH   1   2
ATOM      2  N   UNL     1      -7.845   5.747   6.691  0.00  0.00    +0.000 N 
ATOM      3  C   UNL     1      -7.440   7.151   6.809  0.00  0.00    +0.000 C 
ATOM      4  C   UNL     1      -8.906   5.469   7.662  0.00  0.00    +0.000 C 
ATOM      5  C   UNL     1      -6.693   4.891   6.984  0.00  0.00    +0.000 C 
ENDBRANCH   1   2
BRANCH   1   6
ATOM      6  C   UNL     1      -8.789   5.200   4.056  0.00  0.00    +0.000 C 
ATOM      7  C   UNL     1     -10.187   5.487   3.657  0.00  0.00    +0.000 C 
BRANCH   6   8
ATOM      8  O   UNL     1      -7.988   4.649   3.103  0.00  0.00    +0.000 OA
ATOM      9  H   UNL     1      -7.449   3.949   3.520  0.00  0.00    +0.000 HD
ENDBRANCH   6   8
ENDBRANCH   1   6
TORSDOF 3
ENDMDL
MODEL 9
REMARK VINA RESULT:      -2.6     18.862     20.582
REMARK  Name = 2Methylcholine.pdbqt.pdb
REMARK  3 active torsions:
REMARK  status: ('A' for Active; 'I' for Inactive)
REMARK    1  A    between atoms: C_1  and  N_2
REMARK    2  A    between atoms: C_1  and  C_6
REMARK    3  A    between atoms: C_6  and  O_8
REMARK                            x       y       z     vdW  Elec       q    Type
REMARK                         _______ _______ _______ _____ _____    ______ ____
ROOT
ATOM      1  C   UNL     1      -8.860   5.493   5.562  0.00  0.00    +0.000 C 
ENDROOT
BRANCH   1   2
ATOM      2  N   UNL     1      -9.365   5.827   4.245  0.00  0.00    +0.000 N 
ATOM      3  C   UNL     1      -8.579   5.136   3.219  0.00  0.00    +0.000 C 
ATOM      4  C   UNL     1     -10.768   5.420   4.130  0.00  0.00    +0.000 C 
ATOM      5  C   UNL     1      -9.267   7.272   4.029  0.00  0.00    +0.000 C 
ENDBRANCH   1   2
BRANCH   1   6
ATOM      6  C   UNL     1      -8.354   5.191   6.834  0.00  0.00    +0.000 C 
ATOM      7  C   UNL     1      -6.928   4.844   7.039  0.00  0.00    +0.000 C 
BRANCH   6   8
ATOM      8  O   UNL     1      -9.140   5.200   7.946  0.00  0.00    +0.000 OA
ATOM      9  H   UNL     1      -8.617   5.556   8.690  0.00  0.00    +0.000 HD
ENDBRANCH   6   8
ENDBRANCH   1   6
TORSDOF 3
ENDMDL
