REMARK  Name = 3035817_K252a.pdbqt.pdb
REMARK  3 active torsions:
REMARK  status: ('A' for Active; 'I' for Inactive)
REMARK    1  A    between atoms: C_3  and  O_7
REMARK    2  A    between atoms: C_3  and  C_9
REMARK    3  A    between atoms: C_9  and  O_11
REMARK                            x       y       z     vdW  Elec       q    Type
REMARK                         _______ _______ _______ _____ _____    ______ ____
ROOT
ATOM      1  O   UNL     1       1.725  -1.240   1.433  0.00  0.00    +0.000 OA
ATOM      2  C   UNL     1       2.298  -0.140   0.641  0.00  0.00    +0.000 C 
ATOM      3  C   UNL     1       2.766  -0.838  -0.708  0.00  0.00    +0.000 C 
ATOM      4  C   UNL     1       1.069  -2.044   0.484  0.00  0.00    +0.000 C 
ATOM      5  C   UNL     1       1.849  -1.975  -0.696  0.00  0.00    +0.000 C 
ATOM      6  C   UNL     1       3.462   0.432   1.515  0.00  0.00    +0.000 C 
ATOM      7  N   UNL     1       1.215   0.845   0.443  0.00  0.00    +0.000 N 
ATOM      8  C   UNL     1      -0.145   0.683   0.369  0.00  0.00    +0.000 A 
ATOM      9  C   UNL     1      -0.850  -0.521   0.344  0.00  0.00    +0.000 A 
ATOM     10  C   UNL     1      -0.959   1.810   0.216  0.00  0.00    +0.000 A 
ATOM     11  N   UNL     1      -0.279  -1.756   0.356  0.00  0.00    +0.000 N 
ATOM     12  C   UNL     1      -2.233  -0.405   0.168  0.00  0.00    +0.000 A 
ATOM     13  C   UNL     1      -1.408  -2.558   0.112  0.00  0.00    +0.000 A 
ATOM     14  C   UNL     1      -2.610  -1.758   0.022  0.00  0.00    +0.000 A 
ATOM     15  C   UNL     1      -1.461  -3.955  -0.023  0.00  0.00    +0.000 A 
ATOM     16  C   UNL     1      -3.828  -2.425  -0.217  0.00  0.00    +0.000 A 
ATOM     17  C   UNL     1      -3.861  -3.813  -0.346  0.00  0.00    +0.000 A 
ATOM     18  C   UNL     1      -2.696  -4.561  -0.252  0.00  0.00    +0.000 A 
ATOM     19  C   UNL     1      -3.068   0.723   0.032  0.00  0.00    +0.000 A 
ATOM     20  C   UNL     1      -2.345   1.951   0.062  0.00  0.00    +0.000 A 
ATOM     21  C   UNL     1      -4.475   0.969  -0.177  0.00  0.00    +0.000 C 
ATOM     22  C   UNL     1      -3.343   3.037  -0.142  0.00  0.00    +0.000 C 
ATOM     23  N   UNL     1      -4.510   2.367  -0.262  0.00  0.00    +0.000 N 
ATOM     24  H   UNL     1      -5.390   2.841  -0.412  0.00  0.00    +0.000 HD
ATOM     25  O   UNL     1      -5.457   0.248  -0.271  0.00  0.00    +0.000 OA
ATOM     26  C   UNL     1      -0.011   2.845   0.127  0.00  0.00    +0.000 A 
ATOM     27  C   UNL     1       1.300   2.245   0.235  0.00  0.00    +0.000 A 
ATOM     28  C   UNL     1      -0.098   4.238  -0.073  0.00  0.00    +0.000 A 
ATOM     29  C   UNL     1       2.448   3.048   0.120  0.00  0.00    +0.000 A 
ATOM     30  C   UNL     1       2.309   4.422  -0.076  0.00  0.00    +0.000 A 
ATOM     31  C   UNL     1       1.058   5.011  -0.165  0.00  0.00    +0.000 A 
ENDROOT
BRANCH   3  32
ATOM     32  O   UNL     1       2.537  -0.067  -1.897  0.00  0.00    +0.000 OA
ATOM     33  H   UNL     1       3.416   0.194  -2.250  0.00  0.00    +0.000 HD
ENDBRANCH   3  32
BRANCH   3  34
ATOM     34  C   UNL     1       4.223  -1.288  -0.637  0.00  0.00    +0.000 C 
ATOM     35  O   UNL     1       5.056  -0.840  -1.429  0.00  0.00    +0.000 OA
BRANCH  34  36
ATOM     36  O   UNL     1       4.414  -2.233   0.333  0.00  0.00    +0.000 OA
ATOM     37  C   UNL     1       5.688  -2.807   0.442  0.00  0.00    +0.000 C 
ENDBRANCH  34  36
ENDBRANCH   3  34
TORSDOF 3
