MODEL 1
REMARK VINA RESULT:      -7.9      0.000      0.000
REMARK  Name = 3035817_K252a.pdbqt.pdb
REMARK  3 active torsions:
REMARK  status: ('A' for Active; 'I' for Inactive)
REMARK    1  A    between atoms: C_3  and  O_7
REMARK    2  A    between atoms: C_3  and  C_9
REMARK    3  A    between atoms: C_9  and  O_11
REMARK                            x       y       z     vdW  Elec       q    Type
REMARK                         _______ _______ _______ _____ _____    ______ ____
ROOT
ATOM      1  O   UNL     1       6.420  -7.503   9.512  0.00  0.00    +0.000 OA
ATOM      2  C   UNL     1       7.639  -6.891  10.064  0.00  0.00    +0.000 C 
ATOM      3  C   UNL     1       7.137  -6.142  11.373  0.00  0.00    +0.000 C 
ATOM      4  C   UNL     1       5.697  -7.918  10.645  0.00  0.00    +0.000 C 
ATOM      5  C   UNL     1       5.954  -6.953  11.649  0.00  0.00    +0.000 C 
ATOM      6  C   UNL     1       8.171  -5.946   8.937  0.00  0.00    +0.000 C 
ATOM      7  N   UNL     1       8.574  -7.999  10.349  0.00  0.00    +0.000 N 
ATOM      8  C   UNL     1       8.341  -9.308  10.685  0.00  0.00    +0.000 A 
ATOM      9  C   UNL     1       7.109  -9.899  10.967  0.00  0.00    +0.000 A 
ATOM     10  C   UNL     1       9.427 -10.171  10.862  0.00  0.00    +0.000 A 
ATOM     11  N   UNL     1       5.917  -9.242  10.984  0.00  0.00    +0.000 N 
ATOM     12  C   UNL     1       7.162 -11.235  11.377  0.00  0.00    +0.000 A 
ATOM     13  C   UNL     1       5.084 -10.243  11.513  0.00  0.00    +0.000 A 
ATOM     14  C   UNL     1       5.816 -11.472  11.733  0.00  0.00    +0.000 A 
ATOM     15  C   UNL     1       3.713 -10.160  11.804  0.00  0.00    +0.000 A 
ATOM     16  C   UNL     1       5.111 -12.572  12.260  0.00  0.00    +0.000 A 
ATOM     17  C   UNL     1       3.749 -12.471  12.540  0.00  0.00    +0.000 A 
ATOM     18  C   UNL     1       3.066 -11.284  12.317  0.00  0.00    +0.000 A 
ATOM     19  C   UNL     1       8.246 -12.122  11.541  0.00  0.00    +0.000 A 
ATOM     20  C   UNL     1       9.503 -11.516  11.249  0.00  0.00    +0.000 A 
ATOM     21  C   UNL     1       8.431 -13.486  11.974  0.00  0.00    +0.000 C 
ATOM     22  C   UNL     1      10.544 -12.547  11.513  0.00  0.00    +0.000 C 
ATOM     23  N   UNL     1       9.824 -13.618  11.914  0.00  0.00    +0.000 N 
ATOM     24  H   UNL     1      10.259 -14.494  12.169  0.00  0.00    +0.000 HD
ATOM     25  O   UNL     1       7.669 -14.376  12.322  0.00  0.00    +0.000 OA
ATOM     26  C   UNL     1      10.520  -9.308  10.666  0.00  0.00    +0.000 A 
ATOM     27  C   UNL     1       9.991  -7.991  10.387  0.00  0.00    +0.000 A 
ATOM     28  C   UNL     1      11.920  -9.470  10.728  0.00  0.00    +0.000 A 
ATOM     29  C   UNL     1      10.869  -6.909  10.205  0.00  0.00    +0.000 A 
ATOM     30  C   UNL     1      12.246  -7.122  10.274  0.00  0.00    +0.000 A 
ATOM     31  C   UNL     1      12.766  -8.381  10.525  0.00  0.00    +0.000 A 
ENDROOT
BRANCH   3  32
ATOM     32  O   UNL     1       8.029  -6.222  12.494  0.00  0.00    +0.000 OA
ATOM     33  H   UNL     1       7.559  -6.705  13.208  0.00  0.00    +0.000 HD
ENDBRANCH   3  32
BRANCH   3  34
ATOM     34  C   UNL     1       6.769  -4.688  11.087  0.00  0.00    +0.000 C 
ATOM     35  O   UNL     1       7.544  -3.776  11.387  0.00  0.00    +0.000 OA
BRANCH  34  36
ATOM     36  O   UNL     1       5.520  -4.579  10.542  0.00  0.00    +0.000 OA
ATOM     37  C   UNL     1       5.145  -3.337  10.012  0.00  0.00    +0.000 C 
ENDBRANCH  34  36
ENDBRANCH   3  34
TORSDOF 3
ENDMDL
MODEL 2
REMARK VINA RESULT:      -7.0      1.535      5.266
REMARK  Name = 3035817_K252a.pdbqt.pdb
REMARK  3 active torsions:
REMARK  status: ('A' for Active; 'I' for Inactive)
REMARK    1  A    between atoms: C_3  and  O_7
REMARK    2  A    between atoms: C_3  and  C_9
REMARK    3  A    between atoms: C_9  and  O_11
REMARK                            x       y       z     vdW  Elec       q    Type
REMARK                         _______ _______ _______ _____ _____    ______ ____
ROOT
ATOM      1  O   UNL     1       8.072  -7.915  12.823  0.00  0.00    +0.000 OA
ATOM      2  C   UNL     1       6.823  -8.220  12.107  0.00  0.00    +0.000 C 
ATOM      3  C   UNL     1       7.051  -7.612  10.656  0.00  0.00    +0.000 C 
ATOM      4  C   UNL     1       9.076  -8.083  11.852  0.00  0.00    +0.000 C 
ATOM      5  C   UNL     1       8.510  -7.662  10.625  0.00  0.00    +0.000 C 
ATOM      6  C   UNL     1       5.695  -7.521  12.935  0.00  0.00    +0.000 C 
ATOM      7  N   UNL     1       6.685  -9.691  12.108  0.00  0.00    +0.000 N 
ATOM      8  C   UNL     1       7.631 -10.683  12.133  0.00  0.00    +0.000 A 
ATOM      9  C   UNL     1       9.015 -10.529  12.040  0.00  0.00    +0.000 A 
ATOM     10  C   UNL     1       7.219 -12.019  12.172  0.00  0.00    +0.000 A 
ATOM     11  N   UNL     1       9.655  -9.340  11.871  0.00  0.00    +0.000 N 
ATOM     12  C   UNL     1       9.751 -11.718  11.996  0.00  0.00    +0.000 A 
ATOM     13  C   UNL     1      10.967  -9.791  11.640  0.00  0.00    +0.000 A 
ATOM     14  C   UNL     1      11.052 -11.232  11.738  0.00  0.00    +0.000 A 
ATOM     15  C   UNL     1      12.108  -9.020  11.361  0.00  0.00    +0.000 A 
ATOM     16  C   UNL     1      12.310 -11.833  11.534  0.00  0.00    +0.000 A 
ATOM     17  C   UNL     1      13.431 -11.051  11.260  0.00  0.00    +0.000 A 
ATOM     18  C   UNL     1      13.328  -9.670  11.174  0.00  0.00    +0.000 A 
ATOM     19  C   UNL     1       9.351 -13.069  12.052  0.00  0.00    +0.000 A 
ATOM     20  C   UNL     1       7.938 -13.222  12.152  0.00  0.00    +0.000 A 
ATOM     21  C   UNL     1       9.997 -14.359  11.991  0.00  0.00    +0.000 C 
ATOM     22  C   UNL     1       7.667 -14.686  12.151  0.00  0.00    +0.000 C 
ATOM     23  N   UNL     1       8.901 -15.229  12.060  0.00  0.00    +0.000 N 
ATOM     24  H   UNL     1       9.049 -16.229  12.037  0.00  0.00    +0.000 HD
ATOM     25  O   UNL     1      11.160 -14.721  11.905  0.00  0.00    +0.000 OA
ATOM     26  C   UNL     1       5.820 -11.894  12.114  0.00  0.00    +0.000 A 
ATOM     27  C   UNL     1       5.511 -10.483  12.045  0.00  0.00    +0.000 A 
ATOM     28  C   UNL     1       4.755 -12.818  12.072  0.00  0.00    +0.000 A 
ATOM     29  C   UNL     1       4.174 -10.066  11.919  0.00  0.00    +0.000 A 
ATOM     30  C   UNL     1       3.157 -11.019  11.884  0.00  0.00    +0.000 A 
ATOM     31  C   UNL     1       3.439 -12.373  11.965  0.00  0.00    +0.000 A 
ENDROOT
BRANCH   3  32
ATOM     32  O   UNL     1       6.534  -8.410   9.580  0.00  0.00    +0.000 OA
ATOM     33  H   UNL     1       6.997  -9.276   9.610  0.00  0.00    +0.000 HD
ENDBRANCH   3  32
BRANCH   3  34
ATOM     34  C   UNL     1       6.533  -6.180  10.555  0.00  0.00    +0.000 C 
ATOM     35  O   UNL     1       7.103  -5.264  11.153  0.00  0.00    +0.000 OA
BRANCH  34  36
ATOM     36  O   UNL     1       5.395  -6.105   9.799  0.00  0.00    +0.000 OA
ATOM     37  C   UNL     1       5.367  -5.173   8.753  0.00  0.00    +0.000 C 
ENDBRANCH  34  36
ENDBRANCH   3  34
TORSDOF 3
ENDMDL
MODEL 3
REMARK VINA RESULT:      -6.9      1.773      2.680
REMARK  Name = 3035817_K252a.pdbqt.pdb
REMARK  3 active torsions:
REMARK  status: ('A' for Active; 'I' for Inactive)
REMARK    1  A    between atoms: C_3  and  O_7
REMARK    2  A    between atoms: C_3  and  C_9
REMARK    3  A    between atoms: C_9  and  O_11
REMARK                            x       y       z     vdW  Elec       q    Type
REMARK                         _______ _______ _______ _____ _____    ______ ____
ROOT
ATOM      1  O   UNL     1       8.127  -8.806  10.171  0.00  0.00    +0.000 OA
ATOM      2  C   UNL     1       9.393  -8.827  10.922  0.00  0.00    +0.000 C 
ATOM      3  C   UNL     1       9.074  -7.998  12.240  0.00  0.00    +0.000 C 
ATOM      4  C   UNL     1       7.135  -8.912  11.162  0.00  0.00    +0.000 C 
ATOM      5  C   UNL     1       7.630  -8.212  12.289  0.00  0.00    +0.000 C 
ATOM      6  C   UNL     1      10.444  -8.163   9.974  0.00  0.00    +0.000 C 
ATOM      7  N   UNL     1       9.701 -10.248  11.187  0.00  0.00    +0.000 N 
ATOM      8  C   UNL     1       8.877 -11.332  11.348  0.00  0.00    +0.000 A 
ATOM      9  C   UNL     1       7.483 -11.327  11.421  0.00  0.00    +0.000 A 
ATOM     10  C   UNL     1       9.443 -12.595  11.551  0.00  0.00    +0.000 A 
ATOM     11  N   UNL     1       6.707 -10.211  11.375  0.00  0.00    +0.000 N 
ATOM     12  C   UNL     1       6.891 -12.566  11.685  0.00  0.00    +0.000 A 
ATOM     13  C   UNL     1       5.453 -10.763  11.693  0.00  0.00    +0.000 A 
ATOM     14  C   UNL     1       5.538 -12.197  11.858  0.00  0.00    +0.000 A 
ATOM     15  C   UNL     1       4.227 -10.093  11.835  0.00  0.00    +0.000 A 
ATOM     16  C   UNL     1       4.356 -12.895  12.177  0.00  0.00    +0.000 A 
ATOM     17  C   UNL     1       3.147 -12.213  12.311  0.00  0.00    +0.000 A 
ATOM     18  C   UNL     1       3.088 -10.837  12.144  0.00  0.00    +0.000 A 
ATOM     19  C   UNL     1       7.446 -13.849  11.872  0.00  0.00    +0.000 A 
ATOM     20  C   UNL     1       8.869 -13.851  11.793  0.00  0.00    +0.000 A 
ATOM     21  C   UNL     1       6.954 -15.173  12.170  0.00  0.00    +0.000 C 
ATOM     22  C   UNL     1       9.308 -15.248  12.058  0.00  0.00    +0.000 C 
ATOM     23  N   UNL     1       8.144 -15.907  12.254  0.00  0.00    +0.000 N 
ATOM     24  H   UNL     1       8.114 -16.896  12.459  0.00  0.00    +0.000 HD
ATOM     25  O   UNL     1       5.839 -15.648  12.329  0.00  0.00    +0.000 OA
ATOM     26  C   UNL     1      10.817 -12.299  11.576  0.00  0.00    +0.000 A 
ATOM     27  C   UNL     1      10.959 -10.872  11.386  0.00  0.00    +0.000 A 
ATOM     28  C   UNL     1      11.981 -13.068  11.778  0.00  0.00    +0.000 A 
ATOM     29  C   UNL     1      12.235 -10.285  11.425  0.00  0.00    +0.000 A 
ATOM     30  C   UNL     1      13.356 -11.090  11.626  0.00  0.00    +0.000 A 
ATOM     31  C   UNL     1      13.235 -12.460  11.794  0.00  0.00    +0.000 A 
ENDROOT
BRANCH   3  32
ATOM     32  O   UNL     1       9.664  -8.521  13.439  0.00  0.00    +0.000 OA
ATOM     33  H   UNL     1      10.337  -9.184  13.169  0.00  0.00    +0.000 HD
ENDBRANCH   3  32
BRANCH   3  34
ATOM     34  C   UNL     1       9.420  -6.520  12.076  0.00  0.00    +0.000 C 
ATOM     35  O   UNL     1      10.498  -6.081  12.484  0.00  0.00    +0.000 OA
BRANCH  34  36
ATOM     36  O   UNL     1       8.394  -5.821  11.503  0.00  0.00    +0.000 OA
ATOM     37  C   UNL     1       8.712  -4.637  10.824  0.00  0.00    +0.000 C 
ENDBRANCH  34  36
ENDBRANCH   3  34
TORSDOF 3
ENDMDL
MODEL 4
REMARK VINA RESULT:      -6.9      2.223      5.969
REMARK  Name = 3035817_K252a.pdbqt.pdb
REMARK  3 active torsions:
REMARK  status: ('A' for Active; 'I' for Inactive)
REMARK    1  A    between atoms: C_3  and  O_7
REMARK    2  A    between atoms: C_3  and  C_9
REMARK    3  A    between atoms: C_9  and  O_11
REMARK                            x       y       z     vdW  Elec       q    Type
REMARK                         _______ _______ _______ _____ _____    ______ ____
ROOT
ATOM      1  O   UNL     1       7.027  -9.970  10.017  0.00  0.00    +0.000 OA
ATOM      2  C   UNL     1       6.421  -8.797  10.668  0.00  0.00    +0.000 C 
ATOM      3  C   UNL     1       6.181  -9.268  12.167  0.00  0.00    +0.000 C 
ATOM      4  C   UNL     1       7.866 -10.517  11.003  0.00  0.00    +0.000 C 
ATOM      5  C   UNL     1       7.213 -10.299  12.241  0.00  0.00    +0.000 C 
ATOM      6  C   UNL     1       5.114  -8.508   9.859  0.00  0.00    +0.000 C 
ATOM      7  N   UNL     1       7.402  -7.698  10.552  0.00  0.00    +0.000 N 
ATOM      8  C   UNL     1       8.771  -7.719  10.483  0.00  0.00    +0.000 A 
ATOM      9  C   UNL     1       9.606  -8.827  10.631  0.00  0.00    +0.000 A 
ATOM     10  C   UNL     1       9.465  -6.514  10.331  0.00  0.00    +0.000 A 
ATOM     11  N   UNL     1       9.179 -10.089  10.909  0.00  0.00    +0.000 N 
ATOM     12  C   UNL     1      10.978  -8.555  10.610  0.00  0.00    +0.000 A 
ATOM     13  C   UNL     1      10.411 -10.725  11.147  0.00  0.00    +0.000 A 
ATOM     14  C   UNL     1      11.518  -9.816  10.944  0.00  0.00    +0.000 A 
ATOM     15  C   UNL     1      10.635 -12.060  11.519  0.00  0.00    +0.000 A 
ATOM     16  C   UNL     1      12.822 -10.312  11.142  0.00  0.00    +0.000 A 
ATOM     17  C   UNL     1      13.024 -11.642  11.509  0.00  0.00    +0.000 A 
ATOM     18  C   UNL     1      11.947 -12.498  11.695  0.00  0.00    +0.000 A 
ATOM     19  C   UNL     1      11.691  -7.350  10.439  0.00  0.00    +0.000 A 
ATOM     20  C   UNL     1      10.835  -6.221  10.283  0.00  0.00    +0.000 A 
ATOM     21  C   UNL     1      13.075  -6.942  10.424  0.00  0.00    +0.000 C 
ATOM     22  C   UNL     1      11.721  -5.029  10.166  0.00  0.00    +0.000 C 
ATOM     23  N   UNL     1      12.962  -5.556  10.256  0.00  0.00    +0.000 N 
ATOM     24  H   UNL     1      13.794  -4.984  10.208  0.00  0.00    +0.000 HD
ATOM     25  O   UNL     1      14.136  -7.540  10.520  0.00  0.00    +0.000 OA
ATOM     26  C   UNL     1       8.422  -5.571  10.354  0.00  0.00    +0.000 A 
ATOM     27  C   UNL     1       7.183  -6.297  10.519  0.00  0.00    +0.000 A 
ATOM     28  C   UNL     1       8.372  -4.163  10.293  0.00  0.00    +0.000 A 
ATOM     29  C   UNL     1       5.970  -5.595  10.633  0.00  0.00    +0.000 A 
ATOM     30  C   UNL     1       5.974  -4.202  10.564  0.00  0.00    +0.000 A 
ATOM     31  C   UNL     1       7.153  -3.495  10.391  0.00  0.00    +0.000 A 
ENDROOT
BRANCH   3  32
ATOM     32  O   UNL     1       6.447  -8.269  13.163  0.00  0.00    +0.000 OA
ATOM     33  H   UNL     1       7.290  -8.513  13.603  0.00  0.00    +0.000 HD
ENDBRANCH   3  32
BRANCH   3  34
ATOM     34  C   UNL     1       4.784  -9.854  12.359  0.00  0.00    +0.000 C 
ATOM     35  O   UNL     1       3.906  -9.204  12.932  0.00  0.00    +0.000 OA
BRANCH  34  36
ATOM     36  O   UNL     1       4.702 -11.132  11.879  0.00  0.00    +0.000 OA
ATOM     37  C   UNL     1       3.584 -11.894  12.245  0.00  0.00    +0.000 C 
ENDBRANCH  34  36
ENDBRANCH   3  34
TORSDOF 3
ENDMDL
MODEL 5
REMARK VINA RESULT:      -6.8      2.202      7.953
REMARK  Name = 3035817_K252a.pdbqt.pdb
REMARK  3 active torsions:
REMARK  status: ('A' for Active; 'I' for Inactive)
REMARK    1  A    between atoms: C_3  and  O_7
REMARK    2  A    between atoms: C_3  and  C_9
REMARK    3  A    between atoms: C_9  and  O_11
REMARK                            x       y       z     vdW  Elec       q    Type
REMARK                         _______ _______ _______ _____ _____    ______ ____
ROOT
ATOM      1  O   UNL     1       8.121 -14.398  11.262  0.00  0.00    +0.000 OA
ATOM      2  C   UNL     1       6.967 -14.051  12.106  0.00  0.00    +0.000 C 
ATOM      3  C   UNL     1       7.479 -14.309  13.588  0.00  0.00    +0.000 C 
ATOM      4  C   UNL     1       9.233 -13.942  11.992  0.00  0.00    +0.000 C 
ATOM      5  C   UNL     1       8.911 -14.134  13.358  0.00  0.00    +0.000 C 
ATOM      6  C   UNL     1       5.816 -15.003  11.640  0.00  0.00    +0.000 C 
ATOM      7  N   UNL     1       6.659 -12.632  11.834  0.00  0.00    +0.000 N 
ATOM      8  C   UNL     1       7.468 -11.594  11.450  0.00  0.00    +0.000 A 
ATOM      9  C   UNL     1       8.859 -11.608  11.333  0.00  0.00    +0.000 A 
ATOM     10  C   UNL     1       6.902 -10.336  11.217  0.00  0.00    +0.000 A 
ATOM     11  N   UNL     1       9.652 -12.675  11.623  0.00  0.00    +0.000 N 
ATOM     12  C   UNL     1       9.449 -10.381  11.012  0.00  0.00    +0.000 A 
ATOM     13  C   UNL     1      10.921 -12.078  11.531  0.00  0.00    +0.000 A 
ATOM     14  C   UNL     1      10.821 -10.691  11.134  0.00  0.00    +0.000 A 
ATOM     15  C   UNL     1      12.173 -12.674  11.758  0.00  0.00    +0.000 A 
ATOM     16  C   UNL     1      12.017  -9.958  10.995  0.00  0.00    +0.000 A 
ATOM     17  C   UNL     1      13.250 -10.567  11.223  0.00  0.00    +0.000 A 
ATOM     18  C   UNL     1      13.323 -11.901  11.599  0.00  0.00    +0.000 A 
ATOM     19  C   UNL     1       8.890  -9.112  10.756  0.00  0.00    +0.000 A 
ATOM     20  C   UNL     1       7.469  -9.102  10.872  0.00  0.00    +0.000 A 
ATOM     21  C   UNL     1       9.382  -7.791  10.446  0.00  0.00    +0.000 C 
ATOM     22  C   UNL     1       7.033  -7.700  10.627  0.00  0.00    +0.000 C 
ATOM     23  N   UNL     1       8.194  -7.050  10.395  0.00  0.00    +0.000 N 
ATOM     24  H   UNL     1       8.226  -6.060  10.192  0.00  0.00    +0.000 HD
ATOM     25  O   UNL     1      10.495  -7.323  10.258  0.00  0.00    +0.000 OA
ATOM     26  C   UNL     1       5.551 -10.561  11.538  0.00  0.00    +0.000 A 
ATOM     27  C   UNL     1       5.423 -11.944  11.939  0.00  0.00    +0.000 A 
ATOM     28  C   UNL     1       4.405  -9.741  11.576  0.00  0.00    +0.000 A 
ATOM     29  C   UNL     1       4.179 -12.434  12.373  0.00  0.00    +0.000 A 
ATOM     30  C   UNL     1       3.074 -11.583  12.391  0.00  0.00    +0.000 A 
ATOM     31  C   UNL     1       3.180 -10.260  11.994  0.00  0.00    +0.000 A 
ENDROOT
BRANCH   3  32
ATOM     32  O   UNL     1       7.041 -13.344  14.555  0.00  0.00    +0.000 OA
ATOM     33  H   UNL     1       7.712 -13.322  15.272  0.00  0.00    +0.000 HD
ENDBRANCH   3  32
BRANCH   3  34
ATOM     34  C   UNL     1       7.154 -15.724  14.061  0.00  0.00    +0.000 C 
ATOM     35  O   UNL     1       6.119 -15.950  14.694  0.00  0.00    +0.000 OA
BRANCH  34  36
ATOM     36  O   UNL     1       8.148 -16.606  13.740  0.00  0.00    +0.000 OA
ATOM     37  C   UNL     1       7.787 -17.773  13.052  0.00  0.00    +0.000 C 
ENDBRANCH  34  36
ENDBRANCH   3  34
TORSDOF 3
ENDMDL
MODEL 6
REMARK VINA RESULT:      -6.5     23.516     26.880
REMARK  Name = 3035817_K252a.pdbqt.pdb
REMARK  3 active torsions:
REMARK  status: ('A' for Active; 'I' for Inactive)
REMARK    1  A    between atoms: C_3  and  O_7
REMARK    2  A    between atoms: C_3  and  C_9
REMARK    3  A    between atoms: C_9  and  O_11
REMARK                            x       y       z     vdW  Elec       q    Type
REMARK                         _______ _______ _______ _____ _____    ______ ____
ROOT
ATOM      1  O   UNL     1     -10.978  -3.297  29.986  0.00  0.00    +0.000 OA
ATOM      2  C   UNL     1     -12.360  -2.945  29.624  0.00  0.00    +0.000 C 
ATOM      3  C   UNL     1     -12.195  -1.828  28.506  0.00  0.00    +0.000 C 
ATOM      4  C   UNL     1     -10.278  -3.247  28.768  0.00  0.00    +0.000 C 
ATOM      5  C   UNL     1     -10.870  -2.203  28.017  0.00  0.00    +0.000 C 
ATOM      6  C   UNL     1     -13.018  -2.444  30.952  0.00  0.00    +0.000 C 
ATOM      7  N   UNL     1     -12.992  -4.183  29.123  0.00  0.00    +0.000 N 
ATOM      8  C   UNL     1     -12.454  -5.275  28.491  0.00  0.00    +0.000 A 
ATOM      9  C   UNL     1     -11.140  -5.428  28.046  0.00  0.00    +0.000 A 
ATOM     10  C   UNL     1     -13.286  -6.348  28.156  0.00  0.00    +0.000 A 
ATOM     11  N   UNL     1     -10.171  -4.478  28.143  0.00  0.00    +0.000 N 
ATOM     12  C   UNL     1     -10.877  -6.610  27.344  0.00  0.00    +0.000 A 
ATOM     13  C   UNL     1      -9.156  -5.075  27.376  0.00  0.00    +0.000 A 
ATOM     14  C   UNL     1      -9.555  -6.383  26.904  0.00  0.00    +0.000 A 
ATOM     15  C   UNL     1      -7.887  -4.555  27.070  0.00  0.00    +0.000 A 
ATOM     16  C   UNL     1      -8.635  -7.109  26.120  0.00  0.00    +0.000 A 
ATOM     17  C   UNL     1      -7.379  -6.577  25.829  0.00  0.00    +0.000 A 
ATOM     18  C   UNL     1      -7.016  -5.322  26.296  0.00  0.00    +0.000 A 
ATOM     19  C   UNL     1     -11.699  -7.707  27.016  0.00  0.00    +0.000 A 
ATOM     20  C   UNL     1     -13.039  -7.549  27.476  0.00  0.00    +0.000 A 
ATOM     21  C   UNL     1     -11.556  -8.946  26.290  0.00  0.00    +0.000 C 
ATOM     22  C   UNL     1     -13.791  -8.748  27.015  0.00  0.00    +0.000 C 
ATOM     23  N   UNL     1     -12.855  -9.469  26.360  0.00  0.00    +0.000 N 
ATOM     24  H   UNL     1     -13.065 -10.356  25.925  0.00  0.00    +0.000 HD
ATOM     25  O   UNL     1     -10.622  -9.496  25.727  0.00  0.00    +0.000 OA
ATOM     26  C   UNL     1     -14.546  -5.883  28.575  0.00  0.00    +0.000 A 
ATOM     27  C   UNL     1     -14.359  -4.561  29.130  0.00  0.00    +0.000 A 
ATOM     28  C   UNL     1     -15.852  -6.410  28.520  0.00  0.00    +0.000 A 
ATOM     29  C   UNL     1     -15.471  -3.828  29.580  0.00  0.00    +0.000 A 
ATOM     30  C   UNL     1     -16.743  -4.395  29.505  0.00  0.00    +0.000 A 
ATOM     31  C   UNL     1     -16.933  -5.667  28.990  0.00  0.00    +0.000 A 
ENDROOT
BRANCH   3  32
ATOM     32  O   UNL     1     -13.133  -1.915  27.423  0.00  0.00    +0.000 OA
ATOM     33  H   UNL     1     -14.025  -1.737  27.794  0.00  0.00    +0.000 HD
ENDBRANCH   3  32
BRANCH   3  34
ATOM     34  C   UNL     1     -12.199  -0.424  29.103  0.00  0.00    +0.000 C 
ATOM     35  O   UNL     1     -13.246   0.226  29.168  0.00  0.00    +0.000 OA
BRANCH  34  36
ATOM     36  O   UNL     1     -10.943  -0.025  29.467  0.00  0.00    +0.000 OA
ATOM     37  C   UNL     1     -10.773   0.495  30.758  0.00  0.00    +0.000 C 
ENDBRANCH  34  36
ENDBRANCH   3  34
TORSDOF 3
ENDMDL
MODEL 7
REMARK VINA RESULT:      -6.5     23.297     26.629
REMARK  Name = 3035817_K252a.pdbqt.pdb
REMARK  3 active torsions:
REMARK  status: ('A' for Active; 'I' for Inactive)
REMARK    1  A    between atoms: C_3  and  O_7
REMARK    2  A    between atoms: C_3  and  C_9
REMARK    3  A    between atoms: C_9  and  O_11
REMARK                            x       y       z     vdW  Elec       q    Type
REMARK                         _______ _______ _______ _____ _____    ______ ____
ROOT
ATOM      1  O   UNL     1     -11.599  -3.320  30.514  0.00  0.00    +0.000 OA
ATOM      2  C   UNL     1     -12.838  -3.940  30.020  0.00  0.00    +0.000 C 
ATOM      3  C   UNL     1     -13.530  -2.794  29.163  0.00  0.00    +0.000 C 
ATOM      4  C   UNL     1     -11.163  -2.517  29.445  0.00  0.00    +0.000 C 
ATOM      5  C   UNL     1     -12.335  -2.027  28.819  0.00  0.00    +0.000 C 
ATOM      6  C   UNL     1     -13.628  -4.360  31.303  0.00  0.00    +0.000 C 
ATOM      7  N   UNL     1     -12.430  -5.107  29.211  0.00  0.00    +0.000 N 
ATOM      8  C   UNL     1     -11.295  -5.340  28.477  0.00  0.00    +0.000 A 
ATOM      9  C   UNL     1     -10.263  -4.439  28.214  0.00  0.00    +0.000 A 
ATOM     10  C   UNL     1     -11.142  -6.570  27.829  0.00  0.00    +0.000 A 
ATOM     11  N   UNL     1     -10.237  -3.144  28.628  0.00  0.00    +0.000 N 
ATOM     12  C   UNL     1      -9.262  -4.905  27.354  0.00  0.00    +0.000 A 
ATOM     13  C   UNL     1      -9.113  -2.676  27.925  0.00  0.00    +0.000 A 
ATOM     14  C   UNL     1      -8.490  -3.738  27.167  0.00  0.00    +0.000 A 
ATOM     15  C   UNL     1      -8.582  -1.376  27.915  0.00  0.00    +0.000 A 
ATOM     16  C   UNL     1      -7.344  -3.422  26.410  0.00  0.00    +0.000 A 
ATOM     17  C   UNL     1      -6.829  -2.125  26.414  0.00  0.00    +0.000 A 
ATOM     18  C   UNL     1      -7.441  -1.123  27.152  0.00  0.00    +0.000 A 
ATOM     19  C   UNL     1      -9.085  -6.147  26.710  0.00  0.00    +0.000 A 
ATOM     20  C   UNL     1     -10.139  -7.066  26.985  0.00  0.00    +0.000 A 
ATOM     21  C   UNL     1      -8.130  -6.730  25.798  0.00  0.00    +0.000 C 
ATOM     22  C   UNL     1      -9.843  -8.299  26.204  0.00  0.00    +0.000 C 
ATOM     23  N   UNL     1      -8.685  -7.997  25.576  0.00  0.00    +0.000 N 
ATOM     24  H   UNL     1      -8.221  -8.650  24.959  0.00  0.00    +0.000 HD
ATOM     25  O   UNL     1      -7.091  -6.334  25.291  0.00  0.00    +0.000 OA
ATOM     26  C   UNL     1     -12.355  -7.213  28.133  0.00  0.00    +0.000 A 
ATOM     27  C   UNL     1     -13.138  -6.307  28.943  0.00  0.00    +0.000 A 
ATOM     28  C   UNL     1     -12.917  -8.459  27.786  0.00  0.00    +0.000 A 
ATOM     29  C   UNL     1     -14.434  -6.672  29.347  0.00  0.00    +0.000 A 
ATOM     30  C   UNL     1     -14.943  -7.917  28.979  0.00  0.00    +0.000 A 
ATOM     31  C   UNL     1     -14.197  -8.801  28.217  0.00  0.00    +0.000 A 
ENDROOT
BRANCH   3  32
ATOM     32  O   UNL     1     -14.161  -3.242  27.954  0.00  0.00    +0.000 OA
ATOM     33  H   UNL     1     -14.676  -4.049  28.175  0.00  0.00    +0.000 HD
ENDBRANCH   3  32
BRANCH   3  34
ATOM     34  C   UNL     1     -14.505  -1.971  30.001  0.00  0.00    +0.000 C 
ATOM     35  O   UNL     1     -14.088  -1.175  30.846  0.00  0.00    +0.000 OA
BRANCH  34  36
ATOM     36  O   UNL     1     -15.806  -2.287  29.718  0.00  0.00    +0.000 OA
ATOM     37  C   UNL     1     -16.717  -2.311  30.783  0.00  0.00    +0.000 C 
ENDBRANCH  34  36
ENDBRANCH   3  34
TORSDOF 3
ENDMDL
MODEL 8
REMARK VINA RESULT:      -6.4     23.984     28.185
REMARK  Name = 3035817_K252a.pdbqt.pdb
REMARK  3 active torsions:
REMARK  status: ('A' for Active; 'I' for Inactive)
REMARK    1  A    between atoms: C_3  and  O_7
REMARK    2  A    between atoms: C_3  and  C_9
REMARK    3  A    between atoms: C_9  and  O_11
REMARK                            x       y       z     vdW  Elec       q    Type
REMARK                         _______ _______ _______ _____ _____    ______ ____
ROOT
ATOM      1  O   UNL     1     -13.753 -10.602  25.558  0.00  0.00    +0.000 OA
ATOM      2  C   UNL     1     -14.767 -10.993  26.551  0.00  0.00    +0.000 C 
ATOM      3  C   UNL     1     -13.980 -11.943  27.553  0.00  0.00    +0.000 C 
ATOM      4  C   UNL     1     -12.575 -10.448  26.310  0.00  0.00    +0.000 C 
ATOM      5  C   UNL     1     -12.632 -11.423  27.335  0.00  0.00    +0.000 C 
ATOM      6  C   UNL     1     -15.892 -11.704  25.730  0.00  0.00    +0.000 C 
ATOM      7  N   UNL     1     -15.242  -9.745  27.181  0.00  0.00    +0.000 N 
ATOM      8  C   UNL     1     -14.608  -8.548  27.395  0.00  0.00    +0.000 A 
ATOM      9  C   UNL     1     -13.264  -8.253  27.162  0.00  0.00    +0.000 A 
ATOM     10  C   UNL     1     -15.316  -7.497  27.987  0.00  0.00    +0.000 A 
ATOM     11  N   UNL     1     -12.341  -9.142  26.706  0.00  0.00    +0.000 N 
ATOM     12  C   UNL     1     -12.851  -6.976  27.558  0.00  0.00    +0.000 A 
ATOM     13  C   UNL     1     -11.166  -8.386  26.858  0.00  0.00    +0.000 A 
ATOM     14  C   UNL     1     -11.457  -7.057  27.349  0.00  0.00    +0.000 A 
ATOM     15  C   UNL     1      -9.846  -8.778  26.580  0.00  0.00    +0.000 A 
ATOM     16  C   UNL     1     -10.374  -6.178  27.549  0.00  0.00    +0.000 A 
ATOM     17  C   UNL     1      -9.071  -6.584  27.266  0.00  0.00    +0.000 A 
ATOM     18  C   UNL     1      -8.815  -7.863  26.792  0.00  0.00    +0.000 A 
ATOM     19  C   UNL     1     -13.556  -5.902  28.137  0.00  0.00    +0.000 A 
ATOM     20  C   UNL     1     -14.930  -6.205  28.370  0.00  0.00    +0.000 A 
ATOM     21  C   UNL     1     -13.246  -4.572  28.606  0.00  0.00    +0.000 C 
ATOM     22  C   UNL     1     -15.525  -5.007  29.024  0.00  0.00    +0.000 C 
ATOM     23  N   UNL     1     -14.485  -4.149  29.104  0.00  0.00    +0.000 N 
ATOM     24  H   UNL     1     -14.577  -3.228  29.510  0.00  0.00    +0.000 HD
ATOM     25  O   UNL     1     -12.229  -3.894  28.620  0.00  0.00    +0.000 OA
ATOM     26  C   UNL     1     -16.564  -8.093  28.244  0.00  0.00    +0.000 A 
ATOM     27  C   UNL     1     -16.496  -9.461  27.780  0.00  0.00    +0.000 A 
ATOM     28  C   UNL     1     -17.753  -7.650  28.857  0.00  0.00    +0.000 A 
ATOM     29  C   UNL     1     -17.596 -10.317  27.964  0.00  0.00    +0.000 A 
ATOM     30  C   UNL     1     -18.751  -9.830  28.575  0.00  0.00    +0.000 A 
ATOM     31  C   UNL     1     -18.834  -8.517  29.009  0.00  0.00    +0.000 A 
ENDROOT
BRANCH   3  32
ATOM     32  O   UNL     1     -14.325 -11.778  28.937  0.00  0.00    +0.000 OA
ATOM     33  H   UNL     1     -15.075 -11.144  28.977  0.00  0.00    +0.000 HD
ENDBRANCH   3  32
BRANCH   3  34
ATOM     34  C   UNL     1     -14.090 -13.411  27.148  0.00  0.00    +0.000 C 
ATOM     35  O   UNL     1     -15.103 -14.061  27.420  0.00  0.00    +0.000 OA
BRANCH  34  36
ATOM     36  O   UNL     1     -12.950 -13.854  26.537  0.00  0.00    +0.000 OA
ATOM     37  C   UNL     1     -12.460 -15.114  26.907  0.00  0.00    +0.000 C 
ENDBRANCH  34  36
ENDBRANCH   3  34
TORSDOF 3
ENDMDL
MODEL 9
REMARK VINA RESULT:      -6.2     23.222     26.483
REMARK  Name = 3035817_K252a.pdbqt.pdb
REMARK  3 active torsions:
REMARK  status: ('A' for Active; 'I' for Inactive)
REMARK    1  A    between atoms: C_3  and  O_7
REMARK    2  A    between atoms: C_3  and  C_9
REMARK    3  A    between atoms: C_9  and  O_11
REMARK                            x       y       z     vdW  Elec       q    Type
REMARK                         _______ _______ _______ _____ _____    ______ ____
ROOT
ATOM      1  O   UNL     1     -11.702  -5.704  30.262  0.00  0.00    +0.000 OA
ATOM      2  C   UNL     1     -11.446  -6.407  28.995  0.00  0.00    +0.000 C 
ATOM      3  C   UNL     1     -12.853  -6.399  28.257  0.00  0.00    +0.000 C 
ATOM      4  C   UNL     1     -12.603  -4.683  29.914  0.00  0.00    +0.000 C 
ATOM      5  C   UNL     1     -13.427  -5.216  28.894  0.00  0.00    +0.000 C 
ATOM      6  C   UNL     1     -10.937  -7.827  29.409  0.00  0.00    +0.000 C 
ATOM      7  N   UNL     1     -10.409  -5.631  28.284  0.00  0.00    +0.000 N 
ATOM      8  C   UNL     1     -10.114  -4.292  28.309  0.00  0.00    +0.000 A 
ATOM      9  C   UNL     1     -10.832  -3.283  28.953  0.00  0.00    +0.000 A 
ATOM     10  C   UNL     1      -9.034  -3.817  27.558  0.00  0.00    +0.000 A 
ATOM     11  N   UNL     1     -11.987  -3.472  29.646  0.00  0.00    +0.000 N 
ATOM     12  C   UNL     1     -10.363  -1.982  28.740  0.00  0.00    +0.000 A 
ATOM     13  C   UNL     1     -12.360  -2.137  29.884  0.00  0.00    +0.000 A 
ATOM     14  C   UNL     1     -11.372  -1.216  29.365  0.00  0.00    +0.000 A 
ATOM     15  C   UNL     1     -13.507  -1.667  30.544  0.00  0.00    +0.000 A 
ATOM     16  C   UNL     1     -11.606   0.163  29.533  0.00  0.00    +0.000 A 
ATOM     17  C   UNL     1     -12.750   0.611  30.193  0.00  0.00    +0.000 A 
ATOM     18  C   UNL     1     -13.682  -0.290  30.686  0.00  0.00    +0.000 A 
ATOM     19  C   UNL     1      -9.267  -1.490  28.002  0.00  0.00    +0.000 A 
ATOM     20  C   UNL     1      -8.534  -2.524  27.350  0.00  0.00    +0.000 A 
ATOM     21  C   UNL     1      -8.706  -0.197  27.690  0.00  0.00    +0.000 C 
ATOM     22  C   UNL     1      -7.451  -1.855  26.578  0.00  0.00    +0.000 C 
ATOM     23  N   UNL     1      -7.643  -0.545  26.846  0.00  0.00    +0.000 N 
ATOM     24  H   UNL     1      -7.051   0.177  26.458  0.00  0.00    +0.000 HD
ATOM     25  O   UNL     1      -8.987   0.948  28.008  0.00  0.00    +0.000 OA
ATOM     26  C   UNL     1      -8.591  -4.985  26.913  0.00  0.00    +0.000 A 
ATOM     27  C   UNL     1      -9.449  -6.069  27.337  0.00  0.00    +0.000 A 
ATOM     28  C   UNL     1      -7.573  -5.261  25.977  0.00  0.00    +0.000 A 
ATOM     29  C   UNL     1      -9.269  -7.355  26.799  0.00  0.00    +0.000 A 
ATOM     30  C   UNL     1      -8.247  -7.577  25.876  0.00  0.00    +0.000 A 
ATOM     31  C   UNL     1      -7.407  -6.550  25.474  0.00  0.00    +0.000 A 
ENDROOT
BRANCH   3  32
ATOM     32  O   UNL     1     -12.790  -6.180  26.839  0.00  0.00    +0.000 OA
ATOM     33  H   UNL     1     -13.633  -5.753  26.571  0.00  0.00    +0.000 HD
ENDBRANCH   3  32
BRANCH   3  34
ATOM     34  C   UNL     1     -13.663  -7.655  28.567  0.00  0.00    +0.000 C 
ATOM     35  O   UNL     1     -14.218  -7.788  29.660  0.00  0.00    +0.000 OA
BRANCH  34  36
ATOM     36  O   UNL     1     -13.620  -8.552  27.535  0.00  0.00    +0.000 OA
ATOM     37  C   UNL     1     -14.805  -9.225  27.207  0.00  0.00    +0.000 C 
ENDBRANCH  34  36
ENDBRANCH   3  34
TORSDOF 3
ENDMDL
