MODEL 1
REMARK VINA RESULT:      -4.7      0.000      0.000
REMARK  Name = 3136_Dimethoxy.pdbqt.pdb
REMARK  2 active torsions:
REMARK  status: ('A' for Active; 'I' for Inactive)
REMARK    1  A    between atoms: C_7  and  O_13
REMARK    2  A    between atoms: C_8  and  O_15
REMARK                            x       y       z     vdW  Elec       q    Type
REMARK                         _______ _______ _______ _____ _____    ______ ____
ROOT
ATOM      1  O   UNL     1      -5.363  10.117   5.515  0.00  0.00    +0.000 OA
ATOM      2  O   UNL     1      -7.592   5.629   3.702  0.00  0.00    +0.000 OA
ATOM      3  C   UNL     1      -5.870   8.775   3.668  0.00  0.00    +0.000 A 
ATOM      4  C   UNL     1      -6.429   7.595   3.199  0.00  0.00    +0.000 A 
ATOM      5  C   UNL     1      -5.901   9.099   5.098  0.00  0.00    +0.000 C 
ATOM      6  C   UNL     1      -7.055   6.644   4.124  0.00  0.00    +0.000 C 
ATOM      7  C   UNL     1      -6.581   8.153   6.016  0.00  0.00    +0.000 C 
ATOM      8  C   UNL     1      -7.033   6.962   5.572  0.00  0.00    +0.000 C 
ATOM      9  C   UNL     1      -5.272   9.667   2.779  0.00  0.00    +0.000 A 
ATOM     10  C   UNL     1      -6.399   7.300   1.835  0.00  0.00    +0.000 A 
ATOM     11  C   UNL     1      -5.240   9.374   1.417  0.00  0.00    +0.000 A 
ATOM     12  C   UNL     1      -5.803   8.191   0.945  0.00  0.00    +0.000 A 
ENDROOT
BRANCH   7  13
ATOM     13  O   UNL     1      -6.617   8.539   7.343  0.00  0.00    +0.000 OA
ATOM     14  C   UNL     1      -7.853   9.150   7.624  0.00  0.00    +0.000 C 
ENDBRANCH   7  13
BRANCH   8  15
ATOM     15  O   UNL     1      -7.595   6.002   6.396  0.00  0.00    +0.000 OA
ATOM     16  C   UNL     1      -6.581   5.187   6.933  0.00  0.00    +0.000 C 
ENDBRANCH   8  15
TORSDOF 2
ENDMDL
MODEL 2
REMARK VINA RESULT:      -4.5     24.318     26.586
REMARK  Name = 3136_Dimethoxy.pdbqt.pdb
REMARK  2 active torsions:
REMARK  status: ('A' for Active; 'I' for Inactive)
REMARK    1  A    between atoms: C_7  and  O_13
REMARK    2  A    between atoms: C_8  and  O_15
REMARK                            x       y       z     vdW  Elec       q    Type
REMARK                         _______ _______ _______ _____ _____    ______ ____
ROOT
ATOM      1  O   UNL     1     -10.986  -4.485  28.472  0.00  0.00    +0.000 OA
ATOM      2  O   UNL     1      -7.505  -7.299  25.580  0.00  0.00    +0.000 OA
ATOM      3  C   UNL     1      -9.229  -4.458  26.928  0.00  0.00    +0.000 A 
ATOM      4  C   UNL     1      -8.307  -5.190  26.194  0.00  0.00    +0.000 A 
ATOM      5  C   UNL     1     -10.207  -5.135  27.787  0.00  0.00    +0.000 C 
ATOM      6  C   UNL     1      -8.285  -6.655  26.267  0.00  0.00    +0.000 C 
ATOM      7  C   UNL     1     -10.205  -6.619  27.813  0.00  0.00    +0.000 C 
ATOM      8  C   UNL     1      -9.246  -7.323  27.179  0.00  0.00    +0.000 C 
ATOM      9  C   UNL     1      -9.235  -3.066  26.853  0.00  0.00    +0.000 A 
ATOM     10  C   UNL     1      -7.386  -4.535  25.376  0.00  0.00    +0.000 A 
ATOM     11  C   UNL     1      -8.316  -2.410  26.038  0.00  0.00    +0.000 A 
ATOM     12  C   UNL     1      -7.391  -3.144  25.299  0.00  0.00    +0.000 A 
ENDROOT
BRANCH   7  13
ATOM     13  O   UNL     1     -11.181  -7.196  28.604  0.00  0.00    +0.000 OA
ATOM     14  C   UNL     1     -12.294  -7.533  27.812  0.00  0.00    +0.000 C 
ENDBRANCH   7  13
BRANCH   8  15
ATOM     15  O   UNL     1      -9.141  -8.701  27.241  0.00  0.00    +0.000 OA
ATOM     16  C   UNL     1      -8.572  -9.078  28.472  0.00  0.00    +0.000 C 
ENDBRANCH   8  15
TORSDOF 2
ENDMDL
MODEL 3
REMARK VINA RESULT:      -4.4     23.773     26.654
REMARK  Name = 3136_Dimethoxy.pdbqt.pdb
REMARK  2 active torsions:
REMARK  status: ('A' for Active; 'I' for Inactive)
REMARK    1  A    between atoms: C_7  and  O_13
REMARK    2  A    between atoms: C_8  and  O_15
REMARK                            x       y       z     vdW  Elec       q    Type
REMARK                         _______ _______ _______ _____ _____    ______ ____
ROOT
ATOM      1  O   UNL     1     -11.065  -4.790  28.495  0.00  0.00    +0.000 OA
ATOM      2  O   UNL     1      -7.161  -6.536  25.315  0.00  0.00    +0.000 OA
ATOM      3  C   UNL     1     -10.185  -6.559  27.244  0.00  0.00    +0.000 A 
ATOM      4  C   UNL     1      -9.181  -7.006  26.396  0.00  0.00    +0.000 A 
ATOM      5  C   UNL     1     -10.152  -5.197  27.789  0.00  0.00    +0.000 C 
ATOM      6  C   UNL     1      -8.071  -6.124  26.021  0.00  0.00    +0.000 C 
ATOM      7  C   UNL     1      -8.998  -4.333  27.441  0.00  0.00    +0.000 C 
ATOM      8  C   UNL     1      -8.078  -4.734  26.539  0.00  0.00    +0.000 C 
ATOM      9  C   UNL     1     -11.238  -7.406  27.588  0.00  0.00    +0.000 A 
ATOM     10  C   UNL     1      -9.221  -8.305  25.889  0.00  0.00    +0.000 A 
ATOM     11  C   UNL     1     -11.280  -8.703  27.082  0.00  0.00    +0.000 A 
ATOM     12  C   UNL     1     -10.271  -9.153  26.233  0.00  0.00    +0.000 A 
ENDROOT
BRANCH   7  13
ATOM     13  O   UNL     1      -9.002  -3.079  28.024  0.00  0.00    +0.000 OA
ATOM     14  C   UNL     1      -8.186  -3.088  29.171  0.00  0.00    +0.000 C 
ENDBRANCH   7  13
BRANCH   8  15
ATOM     15  O   UNL     1      -7.031  -3.938  26.109  0.00  0.00    +0.000 OA
ATOM     16  C   UNL     1      -7.424  -3.216  24.966  0.00  0.00    +0.000 C 
ENDBRANCH   8  15
TORSDOF 2
ENDMDL
MODEL 4
REMARK VINA RESULT:      -4.2     25.956     27.679
REMARK  Name = 3136_Dimethoxy.pdbqt.pdb
REMARK  2 active torsions:
REMARK  status: ('A' for Active; 'I' for Inactive)
REMARK    1  A    between atoms: C_7  and  O_13
REMARK    2  A    between atoms: C_8  and  O_15
REMARK                            x       y       z     vdW  Elec       q    Type
REMARK                         _______ _______ _______ _____ _____    ______ ____
ROOT
ATOM      1  O   UNL     1     -10.219  -9.397  25.949  0.00  0.00    +0.000 OA
ATOM      2  O   UNL     1     -11.088  -4.793  28.487  0.00  0.00    +0.000 OA
ATOM      3  C   UNL     1      -9.465  -7.235  26.421  0.00  0.00    +0.000 A 
ATOM      4  C   UNL     1      -9.704  -6.028  27.062  0.00  0.00    +0.000 A 
ATOM      5  C   UNL     1     -10.407  -8.351  26.556  0.00  0.00    +0.000 C 
ATOM      6  C   UNL     1     -10.906  -5.840  27.881  0.00  0.00    +0.000 C 
ATOM      7  C   UNL     1     -11.593  -8.164  27.427  0.00  0.00    +0.000 C 
ATOM      8  C   UNL     1     -11.874  -6.961  27.967  0.00  0.00    +0.000 C 
ATOM      9  C   UNL     1      -8.321  -7.397  25.641  0.00  0.00    +0.000 A 
ATOM     10  C   UNL     1      -8.797  -4.975  26.932  0.00  0.00    +0.000 A 
ATOM     11  C   UNL     1      -7.416  -6.347  25.508  0.00  0.00    +0.000 A 
ATOM     12  C   UNL     1      -7.653  -5.136  26.153  0.00  0.00    +0.000 A 
ENDROOT
BRANCH   7  13
ATOM     13  O   UNL     1     -12.416  -9.269  27.550  0.00  0.00    +0.000 OA
ATOM     14  C   UNL     1     -13.459  -9.188  26.609  0.00  0.00    +0.000 C 
ENDBRANCH   7  13
BRANCH   8  15
ATOM     15  O   UNL     1     -13.011  -6.704  28.713  0.00  0.00    +0.000 OA
ATOM     16  C   UNL     1     -12.821  -7.153  30.034  0.00  0.00    +0.000 C 
ENDBRANCH   8  15
TORSDOF 2
ENDMDL
MODEL 5
REMARK VINA RESULT:      -3.9      1.625      4.593
REMARK  Name = 3136_Dimethoxy.pdbqt.pdb
REMARK  2 active torsions:
REMARK  status: ('A' for Active; 'I' for Inactive)
REMARK    1  A    between atoms: C_7  and  O_13
REMARK    2  A    between atoms: C_8  and  O_15
REMARK                            x       y       z     vdW  Elec       q    Type
REMARK                         _______ _______ _______ _____ _____    ______ ____
ROOT
ATOM      1  O   UNL     1      -7.524   9.771   4.881  0.00  0.00    +0.000 OA
ATOM      2  O   UNL     1      -7.388   4.561   5.993  0.00  0.00    +0.000 OA
ATOM      3  C   UNL     1      -7.418   8.108   6.522  0.00  0.00    +0.000 A 
ATOM      4  C   UNL     1      -7.408   6.751   6.812  0.00  0.00    +0.000 A 
ATOM      5  C   UNL     1      -7.463   8.575   5.132  0.00  0.00    +0.000 C 
ATOM      6  C   UNL     1      -7.450   5.755   5.736  0.00  0.00    +0.000 C 
ATOM      7  C   UNL     1      -7.455   7.557   4.052  0.00  0.00    +0.000 C 
ATOM      8  C   UNL     1      -7.547   6.242   4.338  0.00  0.00    +0.000 C 
ATOM      9  C   UNL     1      -7.384   9.044   7.555  0.00  0.00    +0.000 A 
ATOM     10  C   UNL     1      -7.358   6.320   8.138  0.00  0.00    +0.000 A 
ATOM     11  C   UNL     1      -7.336   8.616   8.880  0.00  0.00    +0.000 A 
ATOM     12  C   UNL     1      -7.322   7.254   9.172  0.00  0.00    +0.000 A 
ENDROOT
BRANCH   7  13
ATOM     13  O   UNL     1      -7.451   8.062   2.765  0.00  0.00    +0.000 OA
ATOM     14  C   UNL     1      -6.139   8.052   2.257  0.00  0.00    +0.000 C 
ENDBRANCH   7  13
BRANCH   8  15
ATOM     15  O   UNL     1      -7.633   5.254   3.374  0.00  0.00    +0.000 OA
ATOM     16  C   UNL     1      -8.974   5.098   2.975  0.00  0.00    +0.000 C 
ENDBRANCH   8  15
TORSDOF 2
ENDMDL
MODEL 6
REMARK VINA RESULT:      -3.8     23.864     26.114
REMARK  Name = 3136_Dimethoxy.pdbqt.pdb
REMARK  2 active torsions:
REMARK  status: ('A' for Active; 'I' for Inactive)
REMARK    1  A    between atoms: C_7  and  O_13
REMARK    2  A    between atoms: C_8  and  O_15
REMARK                            x       y       z     vdW  Elec       q    Type
REMARK                         _______ _______ _______ _____ _____    ______ ____
ROOT
ATOM      1  O   UNL     1      -9.893  -5.141  29.530  0.00  0.00    +0.000 OA
ATOM      2  O   UNL     1      -7.712  -2.767  25.286  0.00  0.00    +0.000 OA
ATOM      3  C   UNL     1      -8.735  -5.387  27.512  0.00  0.00    +0.000 A 
ATOM      4  C   UNL     1      -8.190  -4.770  26.396  0.00  0.00    +0.000 A 
ATOM      5  C   UNL     1      -9.368  -4.591  28.571  0.00  0.00    +0.000 C 
ATOM      6  C   UNL     1      -8.239  -3.311  26.246  0.00  0.00    +0.000 C 
ATOM      7  C   UNL     1      -9.367  -3.115  28.431  0.00  0.00    +0.000 C 
ATOM      8  C   UNL     1      -8.926  -2.525  27.300  0.00  0.00    +0.000 C 
ATOM      9  C   UNL     1      -8.687  -6.774  27.638  0.00  0.00    +0.000 A 
ATOM     10  C   UNL     1      -7.586  -5.537  25.398  0.00  0.00    +0.000 A 
ATOM     11  C   UNL     1      -8.086  -7.542  26.643  0.00  0.00    +0.000 A 
ATOM     12  C   UNL     1      -7.534  -6.923  25.523  0.00  0.00    +0.000 A 
ENDROOT
BRANCH   7  13
ATOM     13  O   UNL     1      -9.935  -2.421  29.484  0.00  0.00    +0.000 OA
ATOM     14  C   UNL     1     -11.330  -2.357  29.310  0.00  0.00    +0.000 C 
ENDBRANCH   7  13
BRANCH   8  15
ATOM     15  O   UNL     1      -8.983  -1.161  27.077  0.00  0.00    +0.000 OA
ATOM     16  C   UNL     1     -10.142  -0.850  26.340  0.00  0.00    +0.000 C 
ENDBRANCH   8  15
TORSDOF 2
ENDMDL
MODEL 7
REMARK VINA RESULT:      -3.7      1.786      4.429
REMARK  Name = 3136_Dimethoxy.pdbqt.pdb
REMARK  2 active torsions:
REMARK  status: ('A' for Active; 'I' for Inactive)
REMARK    1  A    between atoms: C_7  and  O_13
REMARK    2  A    between atoms: C_8  and  O_15
REMARK                            x       y       z     vdW  Elec       q    Type
REMARK                         _______ _______ _______ _____ _____    ______ ____
ROOT
ATOM      1  O   UNL     1      -5.934   9.238   4.424  0.00  0.00    +0.000 OA
ATOM      2  O   UNL     1      -8.149   5.125   6.989  0.00  0.00    +0.000 OA
ATOM      3  C   UNL     1      -6.607   8.321   6.468  0.00  0.00    +0.000 A 
ATOM      4  C   UNL     1      -7.206   7.261   7.132  0.00  0.00    +0.000 A 
ATOM      5  C   UNL     1      -6.417   8.280   5.014  0.00  0.00    +0.000 C 
ATOM      6  C   UNL     1      -7.669   6.080   6.395  0.00  0.00    +0.000 C 
ATOM      7  C   UNL     1      -6.844   7.059   4.287  0.00  0.00    +0.000 C 
ATOM      8  C   UNL     1      -7.515   6.075   4.920  0.00  0.00    +0.000 C 
ATOM      9  C   UNL     1      -6.177   9.440   7.181  0.00  0.00    +0.000 A 
ATOM     10  C   UNL     1      -7.376   7.309   8.517  0.00  0.00    +0.000 A 
ATOM     11  C   UNL     1      -6.347   9.491   8.562  0.00  0.00    +0.000 A 
ATOM     12  C   UNL     1      -6.946   8.426   9.231  0.00  0.00    +0.000 A 
ENDROOT
BRANCH   7  13
ATOM     13  O   UNL     1      -6.594   7.063   2.927  0.00  0.00    +0.000 OA
ATOM     14  C   UNL     1      -7.643   7.717   2.256  0.00  0.00    +0.000 C 
ENDBRANCH   7  13
BRANCH   8  15
ATOM     15  O   UNL     1      -8.016   4.956   4.278  0.00  0.00    +0.000 OA
ATOM     16  C   UNL     1      -9.383   5.142   3.999  0.00  0.00    +0.000 C 
ENDBRANCH   8  15
TORSDOF 2
ENDMDL
MODEL 8
REMARK VINA RESULT:      -3.7     27.475     29.685
REMARK  Name = 3136_Dimethoxy.pdbqt.pdb
REMARK  2 active torsions:
REMARK  status: ('A' for Active; 'I' for Inactive)
REMARK    1  A    between atoms: C_7  and  O_13
REMARK    2  A    between atoms: C_8  and  O_15
REMARK                            x       y       z     vdW  Elec       q    Type
REMARK                         _______ _______ _______ _____ _____    ______ ____
ROOT
ATOM      1  O   UNL     1      -4.190 -20.121  19.737  0.00  0.00    +0.000 OA
ATOM      2  O   UNL     1      -3.326 -15.458  17.307  0.00  0.00    +0.000 OA
ATOM      3  C   UNL     1      -5.109 -18.167  18.839  0.00  0.00    +0.000 A 
ATOM      4  C   UNL     1      -4.881 -16.942  18.229  0.00  0.00    +0.000 A 
ATOM      5  C   UNL     1      -3.991 -19.064  19.153  0.00  0.00    +0.000 C 
ATOM      6  C   UNL     1      -3.519 -16.515  17.891  0.00  0.00    +0.000 C 
ATOM      7  C   UNL     1      -2.624 -18.642  18.761  0.00  0.00    +0.000 C 
ATOM      8  C   UNL     1      -2.396 -17.410  18.261  0.00  0.00    +0.000 C 
ATOM      9  C   UNL     1      -6.408 -18.558  19.159  0.00  0.00    +0.000 A 
ATOM     10  C   UNL     1      -5.953 -16.099  17.930  0.00  0.00    +0.000 A 
ATOM     11  C   UNL     1      -7.479 -17.718  18.863  0.00  0.00    +0.000 A 
ATOM     12  C   UNL     1      -7.252 -16.489  18.248  0.00  0.00    +0.000 A 
ENDROOT
BRANCH   7  13
ATOM     13  O   UNL     1      -1.622 -19.552  19.042  0.00  0.00    +0.000 OA
ATOM     14  C   UNL     1      -1.346 -20.319  17.895  0.00  0.00    +0.000 C 
ENDBRANCH   7  13
BRANCH   8  15
ATOM     15  O   UNL     1      -1.134 -16.929  17.961  0.00  0.00    +0.000 OA
ATOM     16  C   UNL     1      -0.585 -16.300  19.096  0.00  0.00    +0.000 C 
ENDBRANCH   8  15
TORSDOF 2
ENDMDL
MODEL 9
REMARK VINA RESULT:      -3.6     26.434     28.559
REMARK  Name = 3136_Dimethoxy.pdbqt.pdb
REMARK  2 active torsions:
REMARK  status: ('A' for Active; 'I' for Inactive)
REMARK    1  A    between atoms: C_7  and  O_13
REMARK    2  A    between atoms: C_8  and  O_15
REMARK                            x       y       z     vdW  Elec       q    Type
REMARK                         _______ _______ _______ _____ _____    ______ ____
ROOT
ATOM      1  O   UNL     1      -7.554  -9.267  30.144  0.00  0.00    +0.000 OA
ATOM      2  O   UNL     1      -8.375  -6.522  25.651  0.00  0.00    +0.000 OA
ATOM      3  C   UNL     1      -8.738  -9.083  28.136  0.00  0.00    +0.000 A 
ATOM      4  C   UNL     1      -8.969  -8.354  26.978  0.00  0.00    +0.000 A 
ATOM      5  C   UNL     1      -7.720  -8.651  29.100  0.00  0.00    +0.000 C 
ATOM      6  C   UNL     1      -8.206  -7.133  26.697  0.00  0.00    +0.000 C 
ATOM      7  C   UNL     1      -6.922  -7.442  28.779  0.00  0.00    +0.000 C 
ATOM      8  C   UNL     1      -7.216  -6.681  27.705  0.00  0.00    +0.000 C 
ATOM      9  C   UNL     1      -9.475 -10.238  28.393  0.00  0.00    +0.000 A 
ATOM     10  C   UNL     1      -9.936  -8.779  26.065  0.00  0.00    +0.000 A 
ATOM     11  C   UNL     1     -10.441 -10.663  27.485  0.00  0.00    +0.000 A 
ATOM     12  C   UNL     1     -10.672  -9.934  26.320  0.00  0.00    +0.000 A 
ENDROOT
BRANCH   7  13
ATOM     13  O   UNL     1      -5.948  -7.115  29.704  0.00  0.00    +0.000 OA
ATOM     14  C   UNL     1      -4.708  -7.634  29.289  0.00  0.00    +0.000 C 
ENDBRANCH   7  13
BRANCH   8  15
ATOM     15  O   UNL     1      -6.566  -5.498  27.405  0.00  0.00    +0.000 OA
ATOM     16  C   UNL     1      -7.280  -4.414  27.950  0.00  0.00    +0.000 C 
ENDBRANCH   8  15
TORSDOF 2
ENDMDL
