MODEL 1
REMARK VINA RESULT:      -4.6      0.000      0.000
REMARK  Name = 326_Cuminaldehyde.pdb
REMARK  1 active torsions:
REMARK  status: ('A' for Active; 'I' for Inactive)
REMARK    1  A    between atoms: C_1  and  C_7
REMARK                            x       y       z     vdW  Elec       q    Type
REMARK                         _______ _______ _______ _____ _____    ______ ____
ROOT
ATOM      1  C   UNL     1      -8.239  -5.177  26.281  0.00  0.00    +0.000 C 
ATOM      2  C   UNL     1      -7.573  -6.250  25.682  0.00  0.00    +0.000 C 
ATOM      3  C   UNL     1      -9.432  -5.407  26.970  0.00  0.00    +0.000 C 
ATOM      4  C   UNL     1      -8.093  -7.539  25.774  0.00  0.00    +0.000 C 
ATOM      5  C   UNL     1      -9.953  -6.697  27.061  0.00  0.00    +0.000 C 
ATOM      6  C   UNL     1      -9.283  -7.761  26.463  0.00  0.00    +0.000 C 
ATOM      7  O   UNL     1     -10.256 -10.168  26.633  0.00  0.00    +0.000 OA
ATOM      8  C   UNL     1      -9.816  -9.080  26.556  0.00  0.00    +0.000 C 
ENDROOT
BRANCH   1   9
ATOM      9  C   UNL     1      -7.693  -3.826  26.185  0.00  0.00    +0.000 C 
ATOM     10  C   UNL     1      -7.364  -3.202  24.852  0.00  0.00    +0.000 C 
ATOM     11  C   UNL     1      -7.433  -2.994  27.415  0.00  0.00    +0.000 C 
ENDBRANCH   1   9
TORSDOF 1
ENDMDL
MODEL 2
REMARK VINA RESULT:      -4.5     26.115     27.792
REMARK  Name = 326_Cuminaldehyde.pdb
REMARK  1 active torsions:
REMARK  status: ('A' for Active; 'I' for Inactive)
REMARK    1  A    between atoms: C_1  and  C_7
REMARK                            x       y       z     vdW  Elec       q    Type
REMARK                         _______ _______ _______ _____ _____    ______ ____
ROOT
ATOM      1  C   UNL     1      -3.553  -3.618  -1.207  0.00  0.00    +0.000 C 
ATOM      2  C   UNL     1      -3.633  -2.228  -1.320  0.00  0.00    +0.000 C 
ATOM      3  C   UNL     1      -4.445  -4.292  -0.371  0.00  0.00    +0.000 C 
ATOM      4  C   UNL     1      -4.597  -1.519  -0.604  0.00  0.00    +0.000 C 
ATOM      5  C   UNL     1      -5.409  -3.585   0.346  0.00  0.00    +0.000 C 
ATOM      6  C   UNL     1      -5.483  -2.198   0.228  0.00  0.00    +0.000 C 
ATOM      7  O   UNL     1      -7.282  -0.877   1.565  0.00  0.00    +0.000 OA
ATOM      8  C   UNL     1      -6.469  -1.474   0.961  0.00  0.00    +0.000 C 
ENDROOT
BRANCH   1   9
ATOM      9  C   UNL     1      -2.544  -4.360  -1.958  0.00  0.00    +0.000 C 
ATOM     10  C   UNL     1      -1.409  -3.656  -2.660  0.00  0.00    +0.000 C 
ATOM     11  C   UNL     1      -2.589  -5.863  -2.065  0.00  0.00    +0.000 C 
ENDBRANCH   1   9
TORSDOF 1
ENDMDL
MODEL 3
REMARK VINA RESULT:      -4.4      2.606      5.043
REMARK  Name = 326_Cuminaldehyde.pdb
REMARK  1 active torsions:
REMARK  status: ('A' for Active; 'I' for Inactive)
REMARK    1  A    between atoms: C_1  and  C_7
REMARK                            x       y       z     vdW  Elec       q    Type
REMARK                         _______ _______ _______ _____ _____    ______ ____
ROOT
ATOM      1  C   UNL     1      -9.200  -7.404  26.562  0.00  0.00    +0.000 C 
ATOM      2  C   UNL     1      -9.777  -6.256  27.109  0.00  0.00    +0.000 C 
ATOM      3  C   UNL     1      -8.039  -7.290  25.793  0.00  0.00    +0.000 C 
ATOM      4  C   UNL     1      -9.199  -5.006  26.891  0.00  0.00    +0.000 C 
ATOM      5  C   UNL     1      -7.461  -6.041  25.573  0.00  0.00    +0.000 C 
ATOM      6  C   UNL     1      -8.042  -4.900  26.124  0.00  0.00    +0.000 C 
ATOM      7  O   UNL     1      -6.963  -2.568  25.715  0.00  0.00    +0.000 OA
ATOM      8  C   UNL     1      -7.451  -3.622  25.900  0.00  0.00    +0.000 C 
ENDROOT
BRANCH   1   9
ATOM      9  C   UNL     1      -9.805  -8.713  26.791  0.00  0.00    +0.000 C 
ATOM     10  C   UNL     1     -11.042  -9.150  26.047  0.00  0.00    +0.000 C 
ATOM     11  C   UNL     1      -9.221  -9.688  27.782  0.00  0.00    +0.000 C 
ENDBRANCH   1   9
TORSDOF 1
ENDMDL
MODEL 4
REMARK VINA RESULT:      -4.4     21.625     22.548
REMARK  Name = 326_Cuminaldehyde.pdb
REMARK  1 active torsions:
REMARK  status: ('A' for Active; 'I' for Inactive)
REMARK    1  A    between atoms: C_1  and  C_7
REMARK                            x       y       z     vdW  Elec       q    Type
REMARK                         _______ _______ _______ _____ _____    ______ ____
ROOT
ATOM      1  C   UNL     1       5.682  -5.885   9.745  0.00  0.00    +0.000 C 
ATOM      2  C   UNL     1       5.998  -5.289  10.968  0.00  0.00    +0.000 C 
ATOM      3  C   UNL     1       5.521  -5.084   8.612  0.00  0.00    +0.000 C 
ATOM      4  C   UNL     1       6.154  -3.906  11.057  0.00  0.00    +0.000 C 
ATOM      5  C   UNL     1       5.676  -3.702   8.699  0.00  0.00    +0.000 C 
ATOM      6  C   UNL     1       5.993  -3.115   9.923  0.00  0.00    +0.000 C 
ATOM      7  O   UNL     1       6.282  -0.534  10.087  0.00  0.00    +0.000 OA
ATOM      8  C   UNL     1       6.151  -1.700  10.013  0.00  0.00    +0.000 C 
ENDROOT
BRANCH   1   9
ATOM      9  C   UNL     1       5.520  -7.333   9.653  0.00  0.00    +0.000 C 
ATOM     10  C   UNL     1       4.764  -7.970   8.514  0.00  0.00    +0.000 C 
ATOM     11  C   UNL     1       6.101  -8.258  10.692  0.00  0.00    +0.000 C 
ENDBRANCH   1   9
TORSDOF 1
ENDMDL
MODEL 5
REMARK VINA RESULT:      -4.2     20.584     22.150
REMARK  Name = 326_Cuminaldehyde.pdb
REMARK  1 active torsions:
REMARK  status: ('A' for Active; 'I' for Inactive)
REMARK    1  A    between atoms: C_1  and  C_7
REMARK                            x       y       z     vdW  Elec       q    Type
REMARK                         _______ _______ _______ _____ _____    ______ ____
ROOT
ATOM      1  C   UNL     1       5.613  -8.215  10.628  0.00  0.00    +0.000 C 
ATOM      2  C   UNL     1       6.032  -7.146  11.425  0.00  0.00    +0.000 C 
ATOM      3  C   UNL     1       5.274  -7.985   9.293  0.00  0.00    +0.000 C 
ATOM      4  C   UNL     1       6.114  -5.861  10.890  0.00  0.00    +0.000 C 
ATOM      5  C   UNL     1       5.355  -6.700   8.758  0.00  0.00    +0.000 C 
ATOM      6  C   UNL     1       5.775  -5.640   9.558  0.00  0.00    +0.000 C 
ATOM      7  O   UNL     1       5.926  -3.242   8.560  0.00  0.00    +0.000 OA
ATOM      8  C   UNL     1       5.858  -4.326   9.011  0.00  0.00    +0.000 C 
ENDROOT
BRANCH   1   9
ATOM      9  C   UNL     1       5.528  -9.560  11.188  0.00  0.00    +0.000 C 
ATOM     10  C   UNL     1       6.705 -10.502  11.157  0.00  0.00    +0.000 C 
ATOM     11  C   UNL     1       4.259 -10.070  11.824  0.00  0.00    +0.000 C 
ENDBRANCH   1   9
TORSDOF 1
ENDMDL
MODEL 6
REMARK VINA RESULT:      -4.2     20.851     21.689
REMARK  Name = 326_Cuminaldehyde.pdb
REMARK  1 active torsions:
REMARK  status: ('A' for Active; 'I' for Inactive)
REMARK    1  A    between atoms: C_1  and  C_7
REMARK                            x       y       z     vdW  Elec       q    Type
REMARK                         _______ _______ _______ _____ _____    ______ ____
ROOT
ATOM      1  C   UNL     1       5.873  -5.353   9.916  0.00  0.00    +0.000 C 
ATOM      2  C   UNL     1       5.554  -6.354   8.995  0.00  0.00    +0.000 C 
ATOM      3  C   UNL     1       6.085  -5.692  11.254  0.00  0.00    +0.000 C 
ATOM      4  C   UNL     1       5.451  -7.682   9.408  0.00  0.00    +0.000 C 
ATOM      5  C   UNL     1       5.981  -7.019  11.668  0.00  0.00    +0.000 C 
ATOM      6  C   UNL     1       5.664  -8.012  10.744  0.00  0.00    +0.000 C 
ATOM      7  O   UNL     1       5.470 -10.489  11.517  0.00  0.00    +0.000 OA
ATOM      8  C   UNL     1       5.557  -9.370  11.168  0.00  0.00    +0.000 C 
ENDROOT
BRANCH   1   9
ATOM      9  C   UNL     1       5.982  -3.963   9.482  0.00  0.00    +0.000 C 
ATOM     10  C   UNL     1       4.923  -2.945   9.826  0.00  0.00    +0.000 C 
ATOM     11  C   UNL     1       7.158  -3.481   8.671  0.00  0.00    +0.000 C 
ENDBRANCH   1   9
TORSDOF 1
ENDMDL
MODEL 7
REMARK VINA RESULT:      -4.1     22.205     22.926
REMARK  Name = 326_Cuminaldehyde.pdb
REMARK  1 active torsions:
REMARK  status: ('A' for Active; 'I' for Inactive)
REMARK    1  A    between atoms: C_1  and  C_7
REMARK                            x       y       z     vdW  Elec       q    Type
REMARK                         _______ _______ _______ _____ _____    ______ ____
ROOT
ATOM      1  C   UNL     1     -14.848  -7.492   5.761  0.00  0.00    +0.000 C 
ATOM      2  C   UNL     1     -15.407  -8.527   5.006  0.00  0.00    +0.000 C 
ATOM      3  C   UNL     1     -14.457  -6.312   5.124  0.00  0.00    +0.000 C 
ATOM      4  C   UNL     1     -15.574  -8.382   3.630  0.00  0.00    +0.000 C 
ATOM      5  C   UNL     1     -14.623  -6.166   3.748  0.00  0.00    +0.000 C 
ATOM      6  C   UNL     1     -15.182  -7.202   3.003  0.00  0.00    +0.000 C 
ATOM      7  O   UNL     1     -15.492  -6.931   0.433  0.00  0.00    +0.000 OA
ATOM      8  C   UNL     1     -15.352  -7.054   1.595  0.00  0.00    +0.000 C 
ENDROOT
BRANCH   1   9
ATOM      9  C   UNL     1     -14.674  -7.644   7.202  0.00  0.00    +0.000 C 
ATOM     10  C   UNL     1     -13.500  -8.396   7.779  0.00  0.00    +0.000 C 
ATOM     11  C   UNL     1     -15.660  -7.057   8.180  0.00  0.00    +0.000 C 
ENDBRANCH   1   9
TORSDOF 1
ENDMDL
MODEL 8
REMARK VINA RESULT:      -4.1     12.212     13.368
REMARK  Name = 326_Cuminaldehyde.pdb
REMARK  1 active torsions:
REMARK  status: ('A' for Active; 'I' for Inactive)
REMARK    1  A    between atoms: C_1  and  C_7
REMARK                            x       y       z     vdW  Elec       q    Type
REMARK                         _______ _______ _______ _____ _____    ______ ____
ROOT
ATOM      1  C   UNL     1      -6.380 -16.577  20.337  0.00  0.00    +0.000 C 
ATOM      2  C   UNL     1      -7.219 -16.192  19.288  0.00  0.00    +0.000 C 
ATOM      3  C   UNL     1      -5.013 -16.736  20.100  0.00  0.00    +0.000 C 
ATOM      4  C   UNL     1      -6.695 -15.966  18.016  0.00  0.00    +0.000 C 
ATOM      5  C   UNL     1      -4.488 -16.511  18.828  0.00  0.00    +0.000 C 
ATOM      6  C   UNL     1      -5.331 -16.126  17.788  0.00  0.00    +0.000 C 
ATOM      7  O   UNL     1      -4.353 -15.706  15.414  0.00  0.00    +0.000 OA
ATOM      8  C   UNL     1      -4.795 -15.896  16.487  0.00  0.00    +0.000 C 
ENDROOT
BRANCH   1   9
ATOM      9  C   UNL     1      -6.929 -16.813  21.669  0.00  0.00    +0.000 C 
ATOM     10  C   UNL     1      -6.036 -17.115  22.847  0.00  0.00    +0.000 C 
ATOM     11  C   UNL     1      -8.414 -16.764  21.929  0.00  0.00    +0.000 C 
ENDBRANCH   1   9
TORSDOF 1
ENDMDL
MODEL 9
REMARK VINA RESULT:      -4.1     18.274     19.777
REMARK  Name = 326_Cuminaldehyde.pdb
REMARK  1 active torsions:
REMARK  status: ('A' for Active; 'I' for Inactive)
REMARK    1  A    between atoms: C_1  and  C_7
REMARK                            x       y       z     vdW  Elec       q    Type
REMARK                         _______ _______ _______ _____ _____    ______ ____
ROOT
ATOM      1  C   UNL     1     -12.161 -15.904  10.788  0.00  0.00    +0.000 C 
ATOM      2  C   UNL     1     -10.769 -15.846  10.679  0.00  0.00    +0.000 C 
ATOM      3  C   UNL     1     -12.947 -15.767   9.641  0.00  0.00    +0.000 C 
ATOM      4  C   UNL     1     -10.169 -15.656   9.435  0.00  0.00    +0.000 C 
ATOM      5  C   UNL     1     -12.348 -15.576   8.397  0.00  0.00    +0.000 C 
ATOM      6  C   UNL     1     -10.959 -15.521   8.296  0.00  0.00    +0.000 C 
ATOM      7  O   UNL     1      -9.840 -15.164   5.974  0.00  0.00    +0.000 OA
ATOM      8  C   UNL     1     -10.346 -15.325   7.024  0.00  0.00    +0.000 C 
ENDROOT
BRANCH   1   9
ATOM      9  C   UNL     1     -12.789 -16.104  12.091  0.00  0.00    +0.000 C 
ATOM     10  C   UNL     1     -12.202 -17.046  13.112  0.00  0.00    +0.000 C 
ATOM     11  C   UNL     1     -14.054 -15.378  12.475  0.00  0.00    +0.000 C 
ENDBRANCH   1   9
TORSDOF 1
ENDMDL
