MODEL 1
REMARK VINA RESULT:      -4.4      0.000      0.000
REMARK  Name = 3363_5FluorouracilDeoxyriboside.pdbqt.pdb
REMARK  4 active torsions:
REMARK  status: ('A' for Active; 'I' for Inactive)
REMARK    1  A    between atoms: N_4  and  C1*_13
REMARK    2  A    between atoms: C3*_12  and  O3*_16
REMARK    3  A    between atoms: C4*_15  and  C5*_18
REMARK    4  A    between atoms: C5*_18  and  O5*_19
REMARK                            x       y       z     vdW  Elec       q    Type
REMARK                         _______ _______ _______ _____ _____    ______ ____
ROOT
ATOM      1  F   UNL     1       5.456 -12.655  12.638  0.00  0.00    +0.000 F 
ATOM      2  O   UNL     1       9.322  -9.731  10.185  0.00  0.00    +0.000 OA
ATOM      3  O   UNL     1       7.850 -13.815  11.676  0.00  0.00    +0.000 OA
ATOM      4  N   UNL     1       7.107  -9.875  11.018  0.00  0.00    +0.000 N 
ATOM      5  N   UNL     1       8.504 -11.760  10.867  0.00  0.00    +0.000 N 
ATOM      6  C   UNL     1       8.381 -10.367  10.645  0.00  0.00    +0.000 C 
ATOM      7  C   UNL     1       6.224 -10.767  11.511  0.00  0.00    +0.000 C 
ATOM      8  C   UNL     1       6.245 -12.036  11.745  0.00  0.00    +0.000 C 
ATOM      9  C   UNL     1       7.579 -12.645  11.436  0.00  0.00    +0.000 C 
ATOM     10  H   UNL     1       9.411 -12.150  10.653  0.00  0.00    +0.000 HD
ENDROOT
BRANCH   4  13
ATOM     11  O4* UNL     1       6.294  -8.013   9.705  0.00  0.00    +0.000 OA
ATOM     12  C3* UNL     1       6.241  -6.382  11.350  0.00  0.00    +0.000 A 
ATOM     13  C1* UNL     1       6.734  -8.565  10.915  0.00  0.00    +0.000 A 
ATOM     14  C2* UNL     1       6.697  -7.583  11.923  0.00  0.00    +0.000 A 
ATOM     15  C4* UNL     1       5.988  -6.671   9.959  0.00  0.00    +0.000 A 
BRANCH  12  16
ATOM     16  O3* UNL     1       5.524  -5.443  12.037  0.00  0.00    +0.000 OA
ATOM     17  H3* UNL     1       4.719  -5.173  11.559  0.00  0.00    +0.000 HD
ENDBRANCH  12  16
BRANCH  15  18
ATOM     18  C5* UNL     1       5.331  -5.853   9.019  0.00  0.00    +0.000 C 
BRANCH  18  19
ATOM     19  O5* UNL     1       4.694  -5.092   8.136  0.00  0.00    +0.000 OA
ATOM     20  H5* UNL     1       5.224  -4.987   7.327  0.00  0.00    +0.000 HD
ENDBRANCH  18  19
ENDBRANCH  15  18
ENDBRANCH   4  13
TORSDOF 4
ENDMDL
MODEL 2
REMARK VINA RESULT:      -4.3      1.647      2.079
REMARK  Name = 3363_5FluorouracilDeoxyriboside.pdbqt.pdb
REMARK  4 active torsions:
REMARK  status: ('A' for Active; 'I' for Inactive)
REMARK    1  A    between atoms: N_4  and  C1*_13
REMARK    2  A    between atoms: C3*_12  and  O3*_16
REMARK    3  A    between atoms: C4*_15  and  C5*_18
REMARK    4  A    between atoms: C5*_18  and  O5*_19
REMARK                            x       y       z     vdW  Elec       q    Type
REMARK                         _______ _______ _______ _____ _____    ______ ____
ROOT
ATOM      1  F   UNL     1       9.970 -11.543  10.821  0.00  0.00    +0.000 F 
ATOM      2  O   UNL     1       4.685 -10.603  11.658  0.00  0.00    +0.000 OA
ATOM      3  O   UNL     1       8.179 -13.579  11.625  0.00  0.00    +0.000 OA
ATOM      4  N   UNL     1       6.867  -9.748  11.301  0.00  0.00    +0.000 N 
ATOM      5  N   UNL     1       6.477 -12.030  11.712  0.00  0.00    +0.000 N 
ATOM      6  C   UNL     1       5.899 -10.746  11.563  0.00  0.00    +0.000 C 
ATOM      7  C   UNL     1       8.155 -10.143  11.234  0.00  0.00    +0.000 C 
ATOM      8  C   UNL     1       8.768 -11.271  11.357  0.00  0.00    +0.000 C 
ATOM      9  C   UNL     1       7.820 -12.409  11.579  0.00  0.00    +0.000 C 
ATOM     10  H   UNL     1       5.820 -12.781  11.861  0.00  0.00    +0.000 HD
ENDROOT
BRANCH   4  13
ATOM     11  O4* UNL     1       6.196  -7.931   9.851  0.00  0.00    +0.000 OA
ATOM     12  C3* UNL     1       6.193  -6.198  11.390  0.00  0.00    +0.000 A 
ATOM     13  C1* UNL     1       6.572  -8.429  11.106  0.00  0.00    +0.000 A 
ATOM     14  C2* UNL     1       6.564  -7.383  12.049  0.00  0.00    +0.000 A 
ATOM     15  C4* UNL     1       5.961  -6.560  10.013  0.00  0.00    +0.000 A 
BRANCH  12  16
ATOM     16  O3* UNL     1       5.512  -5.179  11.995  0.00  0.00    +0.000 OA
ATOM     17  H3* UNL     1       5.634  -4.330  11.533  0.00  0.00    +0.000 HD
ENDBRANCH  12  16
BRANCH  15  18
ATOM     18  C5* UNL     1       5.376  -5.769   9.004  0.00  0.00    +0.000 C 
BRANCH  18  19
ATOM     19  O5* UNL     1       4.836  -5.034   8.038  0.00  0.00    +0.000 OA
ATOM     20  H5* UNL     1       4.273  -5.582   7.463  0.00  0.00    +0.000 HD
ENDBRANCH  18  19
ENDBRANCH  15  18
ENDBRANCH   4  13
TORSDOF 4
ENDMDL
MODEL 3
REMARK VINA RESULT:      -4.1      2.295      3.150
REMARK  Name = 3363_5FluorouracilDeoxyriboside.pdbqt.pdb
REMARK  4 active torsions:
REMARK  status: ('A' for Active; 'I' for Inactive)
REMARK    1  A    between atoms: N_4  and  C1*_13
REMARK    2  A    between atoms: C3*_12  and  O3*_16
REMARK    3  A    between atoms: C4*_15  and  C5*_18
REMARK    4  A    between atoms: C5*_18  and  O5*_19
REMARK                            x       y       z     vdW  Elec       q    Type
REMARK                         _______ _______ _______ _____ _____    ______ ____
ROOT
ATOM      1  F   UNL     1       7.815 -12.129  13.147  0.00  0.00    +0.000 F 
ATOM      2  O   UNL     1       3.010 -10.296  11.396  0.00  0.00    +0.000 OA
ATOM      3  O   UNL     1       5.387 -13.468  13.709  0.00  0.00    +0.000 OA
ATOM      4  N   UNL     1       5.326  -9.918  11.736  0.00  0.00    +0.000 N 
ATOM      5  N   UNL     1       4.231 -11.804  12.613  0.00  0.00    +0.000 N 
ATOM      6  C   UNL     1       4.099 -10.613  11.860  0.00  0.00    +0.000 C 
ATOM      7  C   UNL     1       6.405 -10.465  12.330  0.00  0.00    +0.000 C 
ATOM      8  C   UNL     1       6.619 -11.528  13.028  0.00  0.00    +0.000 C 
ATOM      9  C   UNL     1       5.387 -12.369  13.169  0.00  0.00    +0.000 C 
ATOM     10  H   UNL     1       3.389 -12.356  12.695  0.00  0.00    +0.000 HD
ENDROOT
BRANCH   4  13
ATOM     11  O4* UNL     1       5.738  -7.534  11.700  0.00  0.00    +0.000 OA
ATOM     12  C3* UNL     1       5.633  -7.164   9.415  0.00  0.00    +0.000 A 
ATOM     13  C1* UNL     1       5.474  -8.746  11.049  0.00  0.00    +0.000 A 
ATOM     14  C2* UNL     1       5.417  -8.531   9.659  0.00  0.00    +0.000 A 
ATOM     15  C4* UNL     1       5.837  -6.553  10.706  0.00  0.00    +0.000 A 
BRANCH  12  16
ATOM     16  O3* UNL     1       6.232  -6.684   8.284  0.00  0.00    +0.000 OA
ATOM     17  H3* UNL     1       6.949  -6.056   8.486  0.00  0.00    +0.000 HD
ENDBRANCH  12  16
BRANCH  15  18
ATOM     18  C5* UNL     1       6.290  -5.246  10.976  0.00  0.00    +0.000 C 
BRANCH  18  19
ATOM     19  O5* UNL     1       6.703  -4.007  11.216  0.00  0.00    +0.000 OA
ATOM     20  H5* UNL     1       7.486  -3.795  10.678  0.00  0.00    +0.000 HD
ENDBRANCH  18  19
ENDBRANCH  15  18
ENDBRANCH   4  13
TORSDOF 4
ENDMDL
MODEL 4
REMARK VINA RESULT:      -4.1     25.096     26.595
REMARK  Name = 3363_5FluorouracilDeoxyriboside.pdbqt.pdb
REMARK  4 active torsions:
REMARK  status: ('A' for Active; 'I' for Inactive)
REMARK    1  A    between atoms: N_4  and  C1*_13
REMARK    2  A    between atoms: C3*_12  and  O3*_16
REMARK    3  A    between atoms: C4*_15  and  C5*_18
REMARK    4  A    between atoms: C5*_18  and  O5*_19
REMARK                            x       y       z     vdW  Elec       q    Type
REMARK                         _______ _______ _______ _____ _____    ______ ____
ROOT
ATOM      1  F   UNL     1     -18.663   4.169  16.814  0.00  0.00    +0.000 F 
ATOM      2  O   UNL     1     -14.230   4.807  13.740  0.00  0.00    +0.000 OA
ATOM      3  O   UNL     1     -18.807   4.629  14.027  0.00  0.00    +0.000 OA
ATOM      4  N   UNL     1     -15.202   4.676  15.898  0.00  0.00    +0.000 N 
ATOM      5  N   UNL     1     -16.512   4.798  13.950  0.00  0.00    +0.000 N 
ATOM      6  C   UNL     1     -15.202   4.766  14.486  0.00  0.00    +0.000 C 
ATOM      7  C   UNL     1     -16.402   4.638  16.512  0.00  0.00    +0.000 C 
ATOM      8  C   UNL     1     -17.629   4.663  16.114  0.00  0.00    +0.000 C 
ATOM      9  C   UNL     1     -17.739   4.698  14.620  0.00  0.00    +0.000 C 
ATOM     10  H   UNL     1     -16.562   4.821  12.941  0.00  0.00    +0.000 HD
ENDROOT
BRANCH   4  13
ATOM     11  O4* UNL     1     -13.163   5.685  16.723  0.00  0.00    +0.000 OA
ATOM     12  C3* UNL     1     -12.409   3.965  18.081  0.00  0.00    +0.000 A 
ATOM     13  C1* UNL     1     -14.070   4.619  16.661  0.00  0.00    +0.000 A 
ATOM     14  C2* UNL     1     -13.624   3.572  17.490  0.00  0.00    +0.000 A 
ATOM     15  C4* UNL     1     -12.138   5.295  17.592  0.00  0.00    +0.000 A 
BRANCH  12  16
ATOM     16  O3* UNL     1     -12.003   3.550  19.318  0.00  0.00    +0.000 OA
ATOM     17  H3* UNL     1     -11.843   2.590  19.349  0.00  0.00    +0.000 HD
ENDBRANCH  12  16
BRANCH  15  18
ATOM     18  C5* UNL     1     -11.150   6.191  18.047  0.00  0.00    +0.000 C 
BRANCH  18  19
ATOM     19  O5* UNL     1     -10.228   7.051  18.464  0.00  0.00    +0.000 OA
ATOM     20  H5* UNL     1     -10.629   7.914  18.668  0.00  0.00    +0.000 HD
ENDBRANCH  18  19
ENDBRANCH  15  18
ENDBRANCH   4  13
TORSDOF 4
ENDMDL
MODEL 5
REMARK VINA RESULT:      -4.0     23.344     25.174
REMARK  Name = 3363_5FluorouracilDeoxyriboside.pdbqt.pdb
REMARK  4 active torsions:
REMARK  status: ('A' for Active; 'I' for Inactive)
REMARK    1  A    between atoms: N_4  and  C1*_13
REMARK    2  A    between atoms: C3*_12  and  O3*_16
REMARK    3  A    between atoms: C4*_15  and  C5*_18
REMARK    4  A    between atoms: C5*_18  and  O5*_19
REMARK                            x       y       z     vdW  Elec       q    Type
REMARK                         _______ _______ _______ _____ _____    ______ ____
ROOT
ATOM      1  F   UNL     1     -12.195   6.125  -2.339  0.00  0.00    +0.000 F 
ATOM      2  O   UNL     1     -12.705   2.508   1.682  0.00  0.00    +0.000 OA
ATOM      3  O   UNL     1     -13.750   3.777  -2.604  0.00  0.00    +0.000 OA
ATOM      4  N   UNL     1     -11.603   4.407   0.787  0.00  0.00    +0.000 N 
ATOM      5  N   UNL     1     -13.125   3.141  -0.480  0.00  0.00    +0.000 N 
ATOM      6  C   UNL     1     -12.476   3.293   0.769  0.00  0.00    +0.000 C 
ATOM      7  C   UNL     1     -11.515   5.138  -0.343  0.00  0.00    +0.000 C 
ATOM      8  C   UNL     1     -12.058   5.076  -1.511  0.00  0.00    +0.000 C 
ATOM      9  C   UNL     1     -13.049   3.958  -1.616  0.00  0.00    +0.000 C 
ATOM     10  H   UNL     1     -13.789   2.381  -0.528  0.00  0.00    +0.000 HD
ENDROOT
BRANCH   4  13
ATOM     11  O4* UNL     1     -11.455   5.033   3.120  0.00  0.00    +0.000 OA
ATOM     12  C3* UNL     1      -9.164   5.343   3.286  0.00  0.00    +0.000 A 
ATOM     13  C1* UNL     1     -10.865   4.782   1.874  0.00  0.00    +0.000 A 
ATOM     14  C2* UNL     1      -9.471   4.960   1.968  0.00  0.00    +0.000 A 
ATOM     15  C4* UNL     1     -10.419   5.380   3.996  0.00  0.00    +0.000 A 
BRANCH  12  16
ATOM     16  O3* UNL     1      -7.988   5.030   3.908  0.00  0.00    +0.000 OA
ATOM     17  H3* UNL     1      -7.419   4.466   3.354  0.00  0.00    +0.000 HD
ENDBRANCH  12  16
BRANCH  15  18
ATOM     18  C5* UNL     1     -10.616   5.510   5.385  0.00  0.00    +0.000 C 
BRANCH  18  19
ATOM     19  O5* UNL     1     -10.802   5.611   6.697  0.00  0.00    +0.000 OA
ATOM     20  H5* UNL     1     -11.015   6.528   6.943  0.00  0.00    +0.000 HD
ENDBRANCH  18  19
ENDBRANCH  15  18
ENDBRANCH   4  13
TORSDOF 4
ENDMDL
MODEL 6
REMARK VINA RESULT:      -4.0      2.879      3.835
REMARK  Name = 3363_5FluorouracilDeoxyriboside.pdbqt.pdb
REMARK  4 active torsions:
REMARK  status: ('A' for Active; 'I' for Inactive)
REMARK    1  A    between atoms: N_4  and  C1*_13
REMARK    2  A    between atoms: C3*_12  and  O3*_16
REMARK    3  A    between atoms: C4*_15  and  C5*_18
REMARK    4  A    between atoms: C5*_18  and  O5*_19
REMARK                            x       y       z     vdW  Elec       q    Type
REMARK                         _______ _______ _______ _____ _____    ______ ____
ROOT
ATOM      1  F   UNL     1      11.428  -8.322   9.647  0.00  0.00    +0.000 F 
ATOM      2  O   UNL     1       6.307  -9.210  11.228  0.00  0.00    +0.000 OA
ATOM      3  O   UNL     1      10.649 -10.680  11.001  0.00  0.00    +0.000 OA
ATOM      4  N   UNL     1       7.945  -7.708  10.401  0.00  0.00    +0.000 N 
ATOM      5  N   UNL     1       8.504  -9.859  11.168  0.00  0.00    +0.000 N 
ATOM      6  C   UNL     1       7.466  -8.921  10.951  0.00  0.00    +0.000 C 
ATOM      7  C   UNL     1       9.271  -7.619  10.172  0.00  0.00    +0.000 C 
ATOM      8  C   UNL     1      10.279  -8.407  10.337  0.00  0.00    +0.000 C 
ATOM      9  C   UNL     1       9.867  -9.748  10.863  0.00  0.00    +0.000 C 
ATOM     10  H   UNL     1       8.204 -10.756  11.522  0.00  0.00    +0.000 HD
ENDROOT
BRANCH   4  13
ATOM     11  O4* UNL     1       7.337  -5.381  10.662  0.00  0.00    +0.000 OA
ATOM     12  C3* UNL     1       5.556  -5.284   9.183  0.00  0.00    +0.000 A 
ATOM     13  C1* UNL     1       7.148  -6.644  10.087  0.00  0.00    +0.000 A 
ATOM     14  C2* UNL     1       6.073  -6.592   9.179  0.00  0.00    +0.000 A 
ATOM     15  C4* UNL     1       6.365  -4.536  10.115  0.00  0.00    +0.000 A 
BRANCH  12  16
ATOM     16  O3* UNL     1       4.979  -4.697   8.092  0.00  0.00    +0.000 OA
ATOM     17  H3* UNL     1       4.008  -4.666   8.164  0.00  0.00    +0.000 HD
ENDBRANCH  12  16
BRANCH  15  18
ATOM     18  C5* UNL     1       6.374  -3.141  10.316  0.00  0.00    +0.000 C 
BRANCH  18  19
ATOM     19  O5* UNL     1       6.404  -1.827  10.509  0.00  0.00    +0.000 OA
ATOM     20  H5* UNL     1       6.764  -1.617  11.388  0.00  0.00    +0.000 HD
ENDBRANCH  18  19
ENDBRANCH  15  18
ENDBRANCH   4  13
TORSDOF 4
ENDMDL
MODEL 7
REMARK VINA RESULT:      -3.8     27.274     28.481
REMARK  Name = 3363_5FluorouracilDeoxyriboside.pdbqt.pdb
REMARK  4 active torsions:
REMARK  status: ('A' for Active; 'I' for Inactive)
REMARK    1  A    between atoms: N_4  and  C1*_13
REMARK    2  A    between atoms: C3*_12  and  O3*_16
REMARK    3  A    between atoms: C4*_15  and  C5*_18
REMARK    4  A    between atoms: C5*_18  and  O5*_19
REMARK                            x       y       z     vdW  Elec       q    Type
REMARK                         _______ _______ _______ _____ _____    ______ ____
ROOT
ATOM      1  F   UNL     1     -22.042  -4.778  20.218  0.00  0.00    +0.000 F 
ATOM      2  O   UNL     1     -17.982  -5.606  16.706  0.00  0.00    +0.000 OA
ATOM      3  O   UNL     1     -19.364  -4.084  20.809  0.00  0.00    +0.000 OA
ATOM      4  N   UNL     1     -20.236  -5.991  17.329  0.00  0.00    +0.000 N 
ATOM      5  N   UNL     1     -18.708  -4.942  18.775  0.00  0.00    +0.000 N 
ATOM      6  C   UNL     1     -18.907  -5.538  17.506  0.00  0.00    +0.000 C 
ATOM      7  C   UNL     1     -21.092  -5.801  18.354  0.00  0.00    +0.000 C 
ATOM      8  C   UNL     1     -21.003  -5.278  19.530  0.00  0.00    +0.000 C 
ATOM      9  C   UNL     1     -19.641  -4.712  19.795  0.00  0.00    +0.000 C 
ATOM     10  H   UNL     1     -17.783  -4.566  18.932  0.00  0.00    +0.000 HD
ENDROOT
BRANCH   4  13
ATOM     11  O4* UNL     1     -21.595  -5.957  15.328  0.00  0.00    +0.000 OA
ATOM     12  C3* UNL     1     -21.078  -8.051  14.481  0.00  0.00    +0.000 A 
ATOM     13  C1* UNL     1     -20.693  -6.593  16.191  0.00  0.00    +0.000 A 
ATOM     14  C2* UNL     1     -20.367  -7.863  15.679  0.00  0.00    +0.000 A 
ATOM     15  C4* UNL     1     -21.840  -6.844  14.273  0.00  0.00    +0.000 A 
BRANCH  12  16
ATOM     16  O3* UNL     1     -20.615  -8.804  13.439  0.00  0.00    +0.000 OA
ATOM     17  H3* UNL     1     -19.917  -9.424  13.716  0.00  0.00    +0.000 HD
ENDBRANCH  12  16
BRANCH  15  18
ATOM     18  C5* UNL     1     -22.548  -6.465  13.115  0.00  0.00    +0.000 C 
BRANCH  18  19
ATOM     19  O5* UNL     1     -23.234  -6.115  12.032  0.00  0.00    +0.000 OA
ATOM     20  H5* UNL     1     -23.592  -6.901  11.584  0.00  0.00    +0.000 HD
ENDBRANCH  18  19
ENDBRANCH  15  18
ENDBRANCH   4  13
TORSDOF 4
ENDMDL
MODEL 8
REMARK VINA RESULT:      -3.4     26.794     29.062
REMARK  Name = 3363_5FluorouracilDeoxyriboside.pdbqt.pdb
REMARK  4 active torsions:
REMARK  status: ('A' for Active; 'I' for Inactive)
REMARK    1  A    between atoms: N_4  and  C1*_13
REMARK    2  A    between atoms: C3*_12  and  O3*_16
REMARK    3  A    between atoms: C4*_15  and  C5*_18
REMARK    4  A    between atoms: C5*_18  and  O5*_19
REMARK                            x       y       z     vdW  Elec       q    Type
REMARK                         _______ _______ _______ _____ _____    ______ ____
ROOT
ATOM      1  F   UNL     1     -20.361   6.820  18.101  0.00  0.00    +0.000 F 
ATOM      2  O   UNL     1     -18.938   3.471  14.067  0.00  0.00    +0.000 OA
ATOM      3  O   UNL     1     -22.265   5.612  16.393  0.00  0.00    +0.000 OA
ATOM      4  N   UNL     1     -18.299   5.057  15.710  0.00  0.00    +0.000 N 
ATOM      5  N   UNL     1     -20.555   4.631  15.203  0.00  0.00    +0.000 N 
ATOM      6  C   UNL     1     -19.205   4.313  14.916  0.00  0.00    +0.000 C 
ATOM      7  C   UNL     1     -18.827   5.931  16.591  0.00  0.00    +0.000 C 
ATOM      8  C   UNL     1     -20.024   6.284  16.916  0.00  0.00    +0.000 C 
ATOM      9  C   UNL     1     -21.066   5.508  16.170  0.00  0.00    +0.000 C 
ATOM     10  H   UNL     1     -21.240   4.095  14.689  0.00  0.00    +0.000 HD
ENDROOT
BRANCH   4  13
ATOM     11  O4* UNL     1     -16.189   4.393  16.690  0.00  0.00    +0.000 OA
ATOM     12  C3* UNL     1     -14.766   4.963  14.953  0.00  0.00    +0.000 A 
ATOM     13  C1* UNL     1     -16.941   4.933  15.638  0.00  0.00    +0.000 A 
ATOM     14  C2* UNL     1     -16.084   5.275  14.574  0.00  0.00    +0.000 A 
ATOM     15  C4* UNL     1     -14.851   4.406  16.281  0.00  0.00    +0.000 A 
BRANCH  12  16
ATOM     16  O3* UNL     1     -13.797   4.582  14.068  0.00  0.00    +0.000 OA
ATOM     17  H3* UNL     1     -13.633   5.260  13.388  0.00  0.00    +0.000 HD
ENDBRANCH  12  16
BRANCH  15  18
ATOM     18  C5* UNL     1     -13.832   3.758  17.007  0.00  0.00    +0.000 C 
BRANCH  18  19
ATOM     19  O5* UNL     1     -12.885   3.133  17.698  0.00  0.00    +0.000 OA
ATOM     20  H5* UNL     1     -13.278   2.570  18.387  0.00  0.00    +0.000 HD
ENDBRANCH  18  19
ENDBRANCH  15  18
ENDBRANCH   4  13
TORSDOF 4
ENDMDL
MODEL 9
REMARK VINA RESULT:      -3.2     18.369     19.608
REMARK  Name = 3363_5FluorouracilDeoxyriboside.pdbqt.pdb
REMARK  4 active torsions:
REMARK  status: ('A' for Active; 'I' for Inactive)
REMARK    1  A    between atoms: N_4  and  C1*_13
REMARK    2  A    between atoms: C3*_12  and  O3*_16
REMARK    3  A    between atoms: C4*_15  and  C5*_18
REMARK    4  A    between atoms: C5*_18  and  O5*_19
REMARK                            x       y       z     vdW  Elec       q    Type
REMARK                         _______ _______ _______ _____ _____    ______ ____
ROOT
ATOM      1  F   UNL     1     -13.534 -15.936   3.421  0.00  0.00    +0.000 F 
ATOM      2  O   UNL     1      -8.817 -13.710   4.943  0.00  0.00    +0.000 OA
ATOM      3  O   UNL     1     -12.313 -13.836   1.971  0.00  0.00    +0.000 OA
ATOM      4  N   UNL     1     -10.658 -15.114   5.454  0.00  0.00    +0.000 N 
ATOM      5  N   UNL     1     -10.627 -13.752   3.538  0.00  0.00    +0.000 N 
ATOM      6  C   UNL     1      -9.928 -14.166   4.698  0.00  0.00    +0.000 C 
ATOM      7  C   UNL     1     -11.869 -15.475   4.984  0.00  0.00    +0.000 C 
ATOM      8  C   UNL     1     -12.577 -15.157   3.954  0.00  0.00    +0.000 C 
ATOM      9  C   UNL     1     -11.865 -14.195   3.053  0.00  0.00    +0.000 C 
ATOM     10  H   UNL     1     -10.128 -13.105   2.945  0.00  0.00    +0.000 HD
ENDROOT
BRANCH   4  13
ATOM     11  O4* UNL     1      -9.414 -16.837   6.611  0.00  0.00    +0.000 OA
ATOM     12  C3* UNL     1      -9.744 -16.143   8.797  0.00  0.00    +0.000 A 
ATOM     13  C1* UNL     1     -10.204 -15.681   6.612  0.00  0.00    +0.000 A 
ATOM     14  C2* UNL     1     -10.403 -15.247   7.937  0.00  0.00    +0.000 A 
ATOM     15  C4* UNL     1      -9.125 -17.132   7.948  0.00  0.00    +0.000 A 
BRANCH  12  16
ATOM     16  O3* UNL     1      -9.202 -15.777   9.997  0.00  0.00    +0.000 OA
ATOM     17  H3* UNL     1      -8.463 -16.355  10.257  0.00  0.00    +0.000 HD
ENDBRANCH  12  16
BRANCH  15  18
ATOM     18  C5* UNL     1      -8.188 -18.117   8.320  0.00  0.00    +0.000 C 
BRANCH  18  19
ATOM     19  O5* UNL     1      -7.291 -19.032   8.670  0.00  0.00    +0.000 OA
ATOM     20  H5* UNL     1      -7.231 -19.730   7.995  0.00  0.00    +0.000 HD
ENDBRANCH  18  19
ENDBRANCH  15  18
ENDBRANCH   4  13
TORSDOF 4
ENDMDL
