MODEL 1
REMARK VINA RESULT:      -4.1      0.000      0.000
REMARK  Name = 3385_5Fluorouracil.pdbqt.pdb
REMARK  0 active torsions:
REMARK  status: ('A' for Active; 'I' for Inactive)
REMARK                            x       y       z     vdW  Elec       q    Type
REMARK                         _______ _______ _______ _____ _____    ______ ____
ROOT
ATOM      1  F   UNL     1       6.209  -8.646  10.323  0.00  0.00    +0.000 F 
ATOM      2  O   UNL     1       5.394  -7.869   7.724  0.00  0.00    +0.000 OA
ATOM      3  O   UNL     1       5.523  -3.432   8.979  0.00  0.00    +0.000 OA
ATOM      4  N   UNL     1       5.394  -5.662   8.378  0.00  0.00    +0.000 N 
ATOM      5  N   UNL     1       5.877  -5.063  10.567  0.00  0.00    +0.000 N 
ATOM      6  C   UNL     1       5.496  -7.040   8.620  0.00  0.00    +0.000 C 
ATOM      7  C   UNL     1       5.590  -4.614   9.287  0.00  0.00    +0.000 C 
ATOM      8  C   UNL     1       5.755  -7.412  10.052  0.00  0.00    +0.000 C 
ATOM      9  C   UNL     1       5.933  -6.380  10.807  0.00  0.00    +0.000 C 
ATOM     10  H   UNL     1       5.218  -5.390   7.422  0.00  0.00    +0.000 HD
ATOM     11  H   UNL     1       6.041  -4.382  11.298  0.00  0.00    +0.000 HD
ENDROOT
TORSDOF 0
ENDMDL
MODEL 2
REMARK VINA RESULT:      -4.0      2.436      3.541
REMARK  Name = 3385_5Fluorouracil.pdbqt.pdb
REMARK  0 active torsions:
REMARK  status: ('A' for Active; 'I' for Inactive)
REMARK                            x       y       z     vdW  Elec       q    Type
REMARK                         _______ _______ _______ _____ _____    ______ ____
ROOT
ATOM      1  F   UNL     1       6.124  -3.085  10.790  0.00  0.00    +0.000 F 
ATOM      2  O   UNL     1       7.146  -5.585  11.645  0.00  0.00    +0.000 OA
ATOM      3  O   UNL     1       5.468  -7.601   7.851  0.00  0.00    +0.000 OA
ATOM      4  N   UNL     1       6.246  -6.596   9.784  0.00  0.00    +0.000 N 
ATOM      5  N   UNL     1       4.981  -5.387   8.258  0.00  0.00    +0.000 N 
ATOM      6  C   UNL     1       6.440  -5.508  10.647  0.00  0.00    +0.000 C 
ATOM      7  C   UNL     1       5.552  -6.613   8.566  0.00  0.00    +0.000 C 
ATOM      8  C   UNL     1       5.730  -4.247  10.243  0.00  0.00    +0.000 C 
ATOM      9  C   UNL     1       5.131  -4.358   9.105  0.00  0.00    +0.000 C 
ATOM     10  H   UNL     1       6.712  -7.454  10.037  0.00  0.00    +0.000 HD
ATOM     11  H   UNL     1       4.462  -5.292   7.395  0.00  0.00    +0.000 HD
ENDROOT
TORSDOF 0
ENDMDL
MODEL 3
REMARK VINA RESULT:      -3.6     14.662     15.248
REMARK  Name = 3385_5Fluorouracil.pdbqt.pdb
REMARK  0 active torsions:
REMARK  status: ('A' for Active; 'I' for Inactive)
REMARK                            x       y       z     vdW  Elec       q    Type
REMARK                         _______ _______ _______ _____ _____    ______ ____
ROOT
ATOM      1  F   UNL     1      -3.088  -4.223  -4.119  0.00  0.00    +0.000 F 
ATOM      2  O   UNL     1      -2.624  -5.038  -1.447  0.00  0.00    +0.000 OA
ATOM      3  O   UNL     1      -4.890  -1.333   0.108  0.00  0.00    +0.000 OA
ATOM      4  N   UNL     1      -3.695  -3.151  -0.679  0.00  0.00    +0.000 N 
ATOM      5  N   UNL     1      -4.501  -1.549  -2.152  0.00  0.00    +0.000 N 
ATOM      6  C   UNL     1      -3.145  -3.955  -1.687  0.00  0.00    +0.000 C 
ATOM      7  C   UNL     1      -4.404  -1.951  -0.828  0.00  0.00    +0.000 C 
ATOM      8  C   UNL     1      -3.260  -3.394  -3.076  0.00  0.00    +0.000 C 
ATOM      9  C   UNL     1      -3.937  -2.297  -3.112  0.00  0.00    +0.000 C 
ATOM     10  H   UNL     1      -3.627  -3.509   0.263  0.00  0.00    +0.000 HD
ATOM     11  H   UNL     1      -5.000  -0.695  -2.368  0.00  0.00    +0.000 HD
ENDROOT
TORSDOF 0
ENDMDL
MODEL 4
REMARK VINA RESULT:      -3.5     22.434     22.867
REMARK  Name = 3385_5Fluorouracil.pdbqt.pdb
REMARK  0 active torsions:
REMARK  status: ('A' for Active; 'I' for Inactive)
REMARK                            x       y       z     vdW  Elec       q    Type
REMARK                         _______ _______ _______ _____ _____    ______ ____
ROOT
ATOM      1  F   UNL     1     -11.386  -7.915  28.085  0.00  0.00    +0.000 F 
ATOM      2  O   UNL     1     -10.185  -9.548  26.107  0.00  0.00    +0.000 OA
ATOM      3  O   UNL     1      -7.191  -6.184  25.107  0.00  0.00    +0.000 OA
ATOM      4  N   UNL     1      -8.740  -7.840  25.566  0.00  0.00    +0.000 N 
ATOM      5  N   UNL     1      -8.888  -5.771  26.609  0.00  0.00    +0.000 N 
ATOM      6  C   UNL     1      -9.844  -8.379  26.242  0.00  0.00    +0.000 C 
ATOM      7  C   UNL     1      -8.188  -6.559  25.708  0.00  0.00    +0.000 C 
ATOM      8  C   UNL     1     -10.559  -7.419  27.151  0.00  0.00    +0.000 C 
ATOM      9  C   UNL     1      -9.969  -6.274  27.223  0.00  0.00    +0.000 C 
ATOM     10  H   UNL     1      -8.246  -8.467  24.949  0.00  0.00    +0.000 HD
ATOM     11  H   UNL     1      -8.566  -4.829  26.788  0.00  0.00    +0.000 HD
ENDROOT
TORSDOF 0
ENDMDL
MODEL 5
REMARK VINA RESULT:      -3.5      2.494      3.359
REMARK  Name = 3385_5Fluorouracil.pdbqt.pdb
REMARK  0 active torsions:
REMARK  status: ('A' for Active; 'I' for Inactive)
REMARK                            x       y       z     vdW  Elec       q    Type
REMARK                         _______ _______ _______ _____ _____    ______ ____
ROOT
ATOM      1  F   UNL     1       5.966  -4.824   9.350  0.00  0.00    +0.000 F 
ATOM      2  O   UNL     1       5.838  -7.194   7.805  0.00  0.00    +0.000 OA
ATOM      3  O   UNL     1       5.339  -9.704  11.643  0.00  0.00    +0.000 OA
ATOM      4  N   UNL     1       5.659  -8.445   9.728  0.00  0.00    +0.000 N 
ATOM      5  N   UNL     1       5.747  -7.444  11.821  0.00  0.00    +0.000 N 
ATOM      6  C   UNL     1       5.866  -7.248   9.029  0.00  0.00    +0.000 C 
ATOM      7  C   UNL     1       5.565  -8.624  11.116  0.00  0.00    +0.000 C 
ATOM      8  C   UNL     1       6.106  -6.044   9.894  0.00  0.00    +0.000 C 
ATOM      9  C   UNL     1       5.987  -6.306  11.152  0.00  0.00    +0.000 C 
ATOM     10  H   UNL     1       5.498  -9.267   9.166  0.00  0.00    +0.000 HD
ATOM     11  H   UNL     1       5.693  -7.464  12.831  0.00  0.00    +0.000 HD
ENDROOT
TORSDOF 0
ENDMDL
MODEL 6
REMARK VINA RESULT:      -3.5     17.943     18.791
REMARK  Name = 3385_5Fluorouracil.pdbqt.pdb
REMARK  0 active torsions:
REMARK  status: ('A' for Active; 'I' for Inactive)
REMARK                            x       y       z     vdW  Elec       q    Type
REMARK                         _______ _______ _______ _____ _____    ______ ____
ROOT
ATOM      1  F   UNL     1      -8.394   5.504   4.228  0.00  0.00    +0.000 F 
ATOM      2  O   UNL     1     -10.688   5.954   5.827  0.00  0.00    +0.000 OA
ATOM      3  O   UNL     1      -8.225   5.130   9.640  0.00  0.00    +0.000 OA
ATOM      4  N   UNL     1      -9.469   5.473   7.720  0.00  0.00    +0.000 N 
ATOM      5  N   UNL     1      -7.246   4.818   7.579  0.00  0.00    +0.000 N 
ATOM      6  C   UNL     1      -9.644   5.556   6.331  0.00  0.00    +0.000 C 
ATOM      7  C   UNL     1      -8.302   5.135   8.420  0.00  0.00    +0.000 C 
ATOM      8  C   UNL     1      -8.452   5.137   5.518  0.00  0.00    +0.000 C 
ATOM      9  C   UNL     1      -7.427   4.856   6.251  0.00  0.00    +0.000 C 
ATOM     10  H   UNL     1     -10.258   5.749   8.285  0.00  0.00    +0.000 HD
ATOM     11  H   UNL     1      -6.356   4.565   7.986  0.00  0.00    +0.000 HD
ENDROOT
TORSDOF 0
ENDMDL
MODEL 7
REMARK VINA RESULT:      -3.4     17.827     18.132
REMARK  Name = 3385_5Fluorouracil.pdbqt.pdb
REMARK  0 active torsions:
REMARK  status: ('A' for Active; 'I' for Inactive)
REMARK                            x       y       z     vdW  Elec       q    Type
REMARK                         _______ _______ _______ _____ _____    ______ ____
ROOT
ATOM      1  F   UNL     1      -6.882   7.152   5.072  0.00  0.00    +0.000 F 
ATOM      2  O   UNL     1      -7.576   4.428   5.416  0.00  0.00    +0.000 OA
ATOM      3  O   UNL     1      -8.045   5.091   9.957  0.00  0.00    +0.000 OA
ATOM      4  N   UNL     1      -7.740   4.750   7.689  0.00  0.00    +0.000 N 
ATOM      5  N   UNL     1      -7.251   6.809   8.644  0.00  0.00    +0.000 N 
ATOM      6  C   UNL     1      -7.418   5.158   6.387  0.00  0.00    +0.000 C 
ATOM      7  C   UNL     1      -7.704   5.516   8.863  0.00  0.00    +0.000 C 
ATOM      8  C   UNL     1      -6.885   6.559   6.277  0.00  0.00    +0.000 C 
ATOM      9  C   UNL     1      -6.902   7.185   7.405  0.00  0.00    +0.000 C 
ATOM     10  H   UNL     1      -8.099   3.812   7.786  0.00  0.00    +0.000 HD
ATOM     11  H   UNL     1      -7.192   7.445   9.429  0.00  0.00    +0.000 HD
ENDROOT
TORSDOF 0
ENDMDL
MODEL 8
REMARK VINA RESULT:      -3.3     22.918     23.561
REMARK  Name = 3385_5Fluorouracil.pdbqt.pdb
REMARK  0 active torsions:
REMARK  status: ('A' for Active; 'I' for Inactive)
REMARK                            x       y       z     vdW  Elec       q    Type
REMARK                         _______ _______ _______ _____ _____    ______ ____
ROOT
ATOM      1  F   UNL     1     -16.512   4.034  15.526  0.00  0.00    +0.000 F 
ATOM      2  O   UNL     1     -14.308   5.610  14.697  0.00  0.00    +0.000 OA
ATOM      3  O   UNL     1     -11.605   3.505  17.786  0.00  0.00    +0.000 OA
ATOM      4  N   UNL     1     -12.983   4.604  16.288  0.00  0.00    +0.000 N 
ATOM      5  N   UNL     1     -13.861   3.038  17.760  0.00  0.00    +0.000 N 
ATOM      6  C   UNL     1     -14.211   4.859  15.661  0.00  0.00    +0.000 C 
ATOM      7  C   UNL     1     -12.721   3.697  17.325  0.00  0.00    +0.000 C 
ATOM      8  C   UNL     1     -15.386   4.132  16.251  0.00  0.00    +0.000 C 
ATOM      9  C   UNL     1     -15.042   3.315  17.189  0.00  0.00    +0.000 C 
ATOM     10  H   UNL     1     -12.181   5.084  15.908  0.00  0.00    +0.000 HD
ATOM     11  H   UNL     1     -13.777   2.357  18.504  0.00  0.00    +0.000 HD
ENDROOT
TORSDOF 0
ENDMDL
MODEL 9
REMARK VINA RESULT:      -3.1      2.465      2.995
REMARK  Name = 3385_5Fluorouracil.pdbqt.pdb
REMARK  0 active torsions:
REMARK  status: ('A' for Active; 'I' for Inactive)
REMARK                            x       y       z     vdW  Elec       q    Type
REMARK                         _______ _______ _______ _____ _____    ______ ____
ROOT
ATOM      1  F   UNL     1       6.106  -8.106  13.531  0.00  0.00    +0.000 F 
ATOM      2  O   UNL     1       6.078 -10.143  11.563  0.00  0.00    +0.000 OA
ATOM      3  O   UNL     1       6.120  -6.960   8.225  0.00  0.00    +0.000 OA
ATOM      4  N   UNL     1       6.029  -8.549   9.904  0.00  0.00    +0.000 N 
ATOM      5  N   UNL     1       5.932  -6.288  10.420  0.00  0.00    +0.000 N 
ATOM      6  C   UNL     1       5.980  -8.965  11.242  0.00  0.00    +0.000 C 
ATOM      7  C   UNL     1       6.031  -7.236   9.412  0.00  0.00    +0.000 C 
ATOM      8  C   UNL     1       5.817  -7.856  12.243  0.00  0.00    +0.000 C 
ATOM      9  C   UNL     1       5.842  -6.688  11.696  0.00  0.00    +0.000 C 
ATOM     10  H   UNL     1       6.137  -9.278   9.215  0.00  0.00    +0.000 HD
ATOM     11  H   UNL     1       5.930  -5.307  10.169  0.00  0.00    +0.000 HD
ENDROOT
TORSDOF 0
ENDMDL
