MODEL 1
REMARK VINA RESULT:      -6.3      0.000      0.000
REMARK  Name = 342374_SipholenolA.pdbqt.pdb
REMARK  5 active torsions:
REMARK  status: ('A' for Active; 'I' for Inactive)
REMARK    1  A    between atoms: C_3  and  C_20
REMARK    2  A    between atoms: C_4  and  O_16
REMARK    3  A    between atoms: C_13  and  O_18
REMARK    4  A    between atoms: C_21  and  C_25
REMARK    5  A    between atoms: C_26  and  O_36
REMARK                            x       y       z     vdW  Elec       q    Type
REMARK                         _______ _______ _______ _____ _____    ______ ____
ROOT
ATOM      1  O   UNL     1       8.061  -5.030   9.953  0.00  0.00    +0.000 OA
ATOM      2  C   UNL     1       8.052  -7.371  11.110  0.00  0.00    +0.000 C 
ATOM      3  C   UNL     1       8.017  -8.077  12.469  0.00  0.00    +0.000 C 
ATOM      4  C   UNL     1       8.869  -7.555  13.613  0.00  0.00    +0.000 C 
ATOM      5  C   UNL     1       8.223  -5.789  11.118  0.00  0.00    +0.000 C 
ATOM      6  C   UNL     1       6.757  -7.518  10.426  0.00  0.00    +0.000 C 
ATOM      7  C   UNL     1       9.230  -6.178  13.339  0.00  0.00    +0.000 C 
ATOM      8  C   UNL     1       8.959  -5.259  12.196  0.00  0.00    +0.000 C 
ATOM      9  C   UNL     1       9.195  -7.969  10.245  0.00  0.00    +0.000 C 
ATOM     10  C   UNL     1       5.766  -6.738   9.598  0.00  0.00    +0.000 C 
ATOM     11  C   UNL     1       6.768  -4.395   9.690  0.00  0.00    +0.000 C 
ATOM     12  C   UNL     1       8.130  -7.685  14.954  0.00  0.00    +0.000 C 
ATOM     13  C   UNL     1       5.705  -5.400   9.153  0.00  0.00    +0.000 C 
ATOM     14  C   UNL     1       6.191  -3.701  10.959  0.00  0.00    +0.000 C 
ATOM     15  C   UNL     1       6.998  -3.331   8.576  0.00  0.00    +0.000 C 
ENDROOT
BRANCH   4  16
ATOM     16  O   UNL     1      10.029  -8.338  13.740  0.00  0.00    +0.000 OA
ATOM     17  H   UNL     1       9.894  -8.739  14.617  0.00  0.00    +0.000 HD
ENDBRANCH   4  16
BRANCH  13  18
ATOM     18  O   UNL     1       4.714  -5.035   8.248  0.00  0.00    +0.000 OA
ATOM     19  H   UNL     1       4.535  -5.753   7.605  0.00  0.00    +0.000 HD
ENDBRANCH  13  18
BRANCH   3  20
ATOM     20  C   UNL     1       7.370  -9.358  12.590  0.00  0.00    +0.000 C 
ATOM     21  C   UNL     1       6.670 -10.715  12.708  0.00  0.00    +0.000 C 
BRANCH  21  25
ATOM     22  C   UNL     1       3.787 -12.268  14.190  0.00  0.00    +0.000 C 
ATOM     23  C   UNL     1       4.466 -12.116  12.801  0.00  0.00    +0.000 C 
ATOM     24  C   UNL     1       4.064 -13.367  15.175  0.00  0.00    +0.000 C 
ATOM     25  C   UNL     1       6.007 -11.984  12.814  0.00  0.00    +0.000 C 
ATOM     26  C   UNL     1       2.985 -13.493  16.245  0.00  0.00    +0.000 C 
ATOM     27  C   UNL     1       2.557 -11.678  14.608  0.00  0.00    +0.000 C 
ATOM     28  C   UNL     1       2.087 -12.422  15.828  0.00  0.00    +0.000 C 
ATOM     29  C   UNL     1       5.261 -14.088  15.014  0.00  0.00    +0.000 C 
ATOM     30  C   UNL     1       6.830 -13.159  13.099  0.00  0.00    +0.000 C 
ATOM     31  C   UNL     1       3.863 -10.834  12.114  0.00  0.00    +0.000 C 
ATOM     32  C   UNL     1       4.041 -13.336  11.913  0.00  0.00    +0.000 C 
ATOM     33  C   UNL     1       6.412 -13.925  14.058  0.00  0.00    +0.000 C 
ATOM     34  C   UNL     1       3.546 -13.363  17.654  0.00  0.00    +0.000 C 
ATOM     35  C   UNL     1       8.277 -13.288  12.702  0.00  0.00    +0.000 C 
BRANCH  26  36
ATOM     36  O   UNL     1       2.356 -14.745  16.159  0.00  0.00    +0.000 OA
ATOM     37  H   UNL     1       1.452 -14.480  15.911  0.00  0.00    +0.000 HD
ENDBRANCH  26  36
ENDBRANCH  21  25
ENDBRANCH   3  20
TORSDOF 5
ENDMDL
MODEL 2
REMARK VINA RESULT:      -5.9     25.597     28.617
REMARK  Name = 342374_SipholenolA.pdbqt.pdb
REMARK  5 active torsions:
REMARK  status: ('A' for Active; 'I' for Inactive)
REMARK    1  A    between atoms: C_3  and  C_20
REMARK    2  A    between atoms: C_4  and  O_16
REMARK    3  A    between atoms: C_13  and  O_18
REMARK    4  A    between atoms: C_21  and  C_25
REMARK    5  A    between atoms: C_26  and  O_36
REMARK                            x       y       z     vdW  Elec       q    Type
REMARK                         _______ _______ _______ _____ _____    ______ ____
ROOT
ATOM      1  O   UNL     1     -20.782   0.108  20.337  0.00  0.00    +0.000 OA
ATOM      2  C   UNL     1     -20.310  -2.314  19.479  0.00  0.00    +0.000 C 
ATOM      3  C   UNL     1     -20.206  -3.779  19.913  0.00  0.00    +0.000 C 
ATOM      4  C   UNL     1     -19.490  -4.136  21.204  0.00  0.00    +0.000 C 
ATOM      5  C   UNL     1     -20.473  -1.226  20.630  0.00  0.00    +0.000 C 
ATOM      6  C   UNL     1     -21.541  -2.098  18.702  0.00  0.00    +0.000 C 
ATOM      7  C   UNL     1     -19.423  -2.956  22.044  0.00  0.00    +0.000 C 
ATOM      8  C   UNL     1     -19.872  -1.545  21.863  0.00  0.00    +0.000 C 
ATOM      9  C   UNL     1     -19.062  -1.932  18.638  0.00  0.00    +0.000 C 
ATOM     10  C   UNL     1     -22.667  -1.110  18.528  0.00  0.00    +0.000 C 
ATOM     11  C   UNL     1     -22.178   0.547  20.403  0.00  0.00    +0.000 C 
ATOM     12  C   UNL     1     -20.195  -5.297  21.922  0.00  0.00    +0.000 C 
ATOM     13  C   UNL     1     -23.003   0.108  19.156  0.00  0.00    +0.000 C 
ATOM     14  C   UNL     1     -22.896   0.017  21.680  0.00  0.00    +0.000 C 
ATOM     15  C   UNL     1     -22.167   2.104  20.422  0.00  0.00    +0.000 C 
ENDROOT
BRANCH   4  16
ATOM     16  O   UNL     1     -18.192  -4.595  20.920  0.00  0.00    +0.000 OA
ATOM     17  H   UNL     1     -17.713  -4.322  21.723  0.00  0.00    +0.000 HD
ENDBRANCH   4  16
BRANCH  13  18
ATOM     18  O   UNL     1     -24.043   0.872  18.635  0.00  0.00    +0.000 OA
ATOM     19  H   UNL     1     -24.021   0.884  17.655  0.00  0.00    +0.000 HD
ENDBRANCH  13  18
BRANCH   3  20
ATOM     20  C   UNL     1     -20.572  -4.823  18.990  0.00  0.00    +0.000 C 
ATOM     21  C   UNL     1     -20.966  -5.942  18.022  0.00  0.00    +0.000 C 
BRANCH  21  25
ATOM     22  C   UNL     1     -19.986  -7.466  14.918  0.00  0.00    +0.000 C 
ATOM     23  C   UNL     1     -20.287  -7.866  16.388  0.00  0.00    +0.000 C 
ATOM     24  C   UNL     1     -20.997  -7.412  13.809  0.00  0.00    +0.000 C 
ATOM     25  C   UNL     1     -21.336  -6.997  17.123  0.00  0.00    +0.000 C 
ATOM     26  C   UNL     1     -20.360  -7.390  12.424  0.00  0.00    +0.000 C 
ATOM     27  C   UNL     1     -18.711  -7.472  14.276  0.00  0.00    +0.000 C 
ATOM     28  C   UNL     1     -18.950  -7.434  12.792  0.00  0.00    +0.000 C 
ATOM     29  C   UNL     1     -22.352  -7.349  14.179  0.00  0.00    +0.000 C 
ATOM     30  C   UNL     1     -22.753  -7.136  16.784  0.00  0.00    +0.000 C 
ATOM     31  C   UNL     1     -18.933  -7.792  17.190  0.00  0.00    +0.000 C 
ATOM     32  C   UNL     1     -20.730  -9.369  16.405  0.00  0.00    +0.000 C 
ATOM     33  C   UNL     1     -23.025  -7.242  15.521  0.00  0.00    +0.000 C 
ATOM     34  C   UNL     1     -20.785  -6.177  11.608  0.00  0.00    +0.000 C 
ATOM     35  C   UNL     1     -23.878  -6.723  17.695  0.00  0.00    +0.000 C 
BRANCH  26  36
ATOM     36  O   UNL     1     -20.731  -8.533  11.699  0.00  0.00    +0.000 OA
ATOM     37  H   UNL     1     -19.866  -8.825  11.361  0.00  0.00    +0.000 HD
ENDBRANCH  26  36
ENDBRANCH  21  25
ENDBRANCH   3  20
TORSDOF 5
ENDMDL
MODEL 3
REMARK VINA RESULT:      -5.7     25.678     29.217
REMARK  Name = 342374_SipholenolA.pdbqt.pdb
REMARK  5 active torsions:
REMARK  status: ('A' for Active; 'I' for Inactive)
REMARK    1  A    between atoms: C_3  and  C_20
REMARK    2  A    between atoms: C_4  and  O_16
REMARK    3  A    between atoms: C_13  and  O_18
REMARK    4  A    between atoms: C_21  and  C_25
REMARK    5  A    between atoms: C_26  and  O_36
REMARK                            x       y       z     vdW  Elec       q    Type
REMARK                         _______ _______ _______ _____ _____    ______ ____
ROOT
ATOM      1  O   UNL     1     -20.838   0.202  22.195  0.00  0.00    +0.000 OA
ATOM      2  C   UNL     1     -20.194  -1.874  20.747  0.00  0.00    +0.000 C 
ATOM      3  C   UNL     1     -20.053  -3.399  20.768  0.00  0.00    +0.000 C 
ATOM      4  C   UNL     1     -19.415  -4.082  21.965  0.00  0.00    +0.000 C 
ATOM      5  C   UNL     1     -20.489  -1.152  22.135  0.00  0.00    +0.000 C 
ATOM      6  C   UNL     1     -21.375  -1.482  19.962  0.00  0.00    +0.000 C 
ATOM      7  C   UNL     1     -19.462  -3.180  23.099  0.00  0.00    +0.000 C 
ATOM      8  C   UNL     1     -19.962  -1.786  23.277  0.00  0.00    +0.000 C 
ATOM      9  C   UNL     1     -18.908  -1.243  20.146  0.00  0.00    +0.000 C 
ATOM     10  C   UNL     1     -22.532  -0.513  19.975  0.00  0.00    +0.000 C 
ATOM     11  C   UNL     1     -22.254   0.570  22.267  0.00  0.00    +0.000 C 
ATOM     12  C   UNL     1     -20.113  -5.414  22.277  0.00  0.00    +0.000 C 
ATOM     13  C   UNL     1     -22.967   0.474  20.885  0.00  0.00    +0.000 C 
ATOM     14  C   UNL     1     -23.035  -0.311  23.286  0.00  0.00    +0.000 C 
ATOM     15  C   UNL     1     -22.317   2.061  22.713  0.00  0.00    +0.000 C 
ENDROOT
BRANCH   4  16
ATOM     16  O   UNL     1     -18.080  -4.411  21.671  0.00  0.00    +0.000 OA
ATOM     17  H   UNL     1     -18.161  -4.734  20.756  0.00  0.00    +0.000 HD
ENDBRANCH   4  16
BRANCH  13  18
ATOM     18  O   UNL     1     -24.002   1.326  20.511  0.00  0.00    +0.000 OA
ATOM     19  H   UNL     1     -24.134   1.324  19.540  0.00  0.00    +0.000 HD
ENDBRANCH  13  18
BRANCH   3  20
ATOM     20  C   UNL     1     -20.304  -4.154  19.568  0.00  0.00    +0.000 C 
ATOM     21  C   UNL     1     -20.567  -4.972  18.300  0.00  0.00    +0.000 C 
BRANCH  21  25
ATOM     22  C   UNL     1     -22.937  -7.270  16.878  0.00  0.00    +0.000 C 
ATOM     23  C   UNL     1     -22.228  -5.933  16.526  0.00  0.00    +0.000 C 
ATOM     24  C   UNL     1     -22.415  -8.640  16.555  0.00  0.00    +0.000 C 
ATOM     25  C   UNL     1     -20.810  -5.746  17.116  0.00  0.00    +0.000 C 
ATOM     26  C   UNL     1     -23.485  -9.721  16.648  0.00  0.00    +0.000 C 
ATOM     27  C   UNL     1     -24.320  -7.447  17.184  0.00  0.00    +0.000 C 
ATOM     28  C   UNL     1     -24.634  -8.911  17.036  0.00  0.00    +0.000 C 
ATOM     29  C   UNL     1     -21.044  -8.752  16.260  0.00  0.00    +0.000 C 
ATOM     30  C   UNL     1     -19.689  -6.501  16.555  0.00  0.00    +0.000 C 
ATOM     31  C   UNL     1     -23.140  -4.758  17.044  0.00  0.00    +0.000 C 
ATOM     32  C   UNL     1     -22.180  -5.802  14.965  0.00  0.00    +0.000 C 
ATOM     33  C   UNL     1     -19.927  -7.744  16.276  0.00  0.00    +0.000 C 
ATOM     34  C   UNL     1     -23.109 -10.830  17.622  0.00  0.00    +0.000 C 
ATOM     35  C   UNL     1     -18.247  -6.095  16.701  0.00  0.00    +0.000 C 
BRANCH  26  36
ATOM     36  O   UNL     1     -23.686 -10.318  15.394  0.00  0.00    +0.000 OA
ATOM     37  H   UNL     1     -24.644 -10.185  15.278  0.00  0.00    +0.000 HD
ENDBRANCH  26  36
ENDBRANCH  21  25
ENDBRANCH   3  20
TORSDOF 5
ENDMDL
MODEL 4
REMARK VINA RESULT:      -5.6     27.213     29.742
REMARK  Name = 342374_SipholenolA.pdbqt.pdb
REMARK  5 active torsions:
REMARK  status: ('A' for Active; 'I' for Inactive)
REMARK    1  A    between atoms: C_3  and  C_20
REMARK    2  A    between atoms: C_4  and  O_16
REMARK    3  A    between atoms: C_13  and  O_18
REMARK    4  A    between atoms: C_21  and  C_25
REMARK    5  A    between atoms: C_26  and  O_36
REMARK                            x       y       z     vdW  Elec       q    Type
REMARK                         _______ _______ _______ _____ _____    ______ ____
ROOT
ATOM      1  O   UNL     1     -21.077  -5.327  19.388  0.00  0.00    +0.000 OA
ATOM      2  C   UNL     1     -20.043  -3.753  21.198  0.00  0.00    +0.000 C 
ATOM      3  C   UNL     1     -19.807  -2.286  21.569  0.00  0.00    +0.000 C 
ATOM      4  C   UNL     1     -19.354  -1.301  20.505  0.00  0.00    +0.000 C 
ATOM      5  C   UNL     1     -20.633  -4.050  19.749  0.00  0.00    +0.000 C 
ATOM      6  C   UNL     1     -21.084  -4.336  22.059  0.00  0.00    +0.000 C 
ATOM      7  C   UNL     1     -19.667  -1.845  19.199  0.00  0.00    +0.000 C 
ATOM      8  C   UNL     1     -20.283  -3.126  18.746  0.00  0.00    +0.000 C 
ATOM      9  C   UNL     1     -18.714  -4.544  21.340  0.00  0.00    +0.000 C 
ATOM     10  C   UNL     1     -22.285  -5.248  22.004  0.00  0.00    +0.000 C 
ATOM     11  C   UNL     1     -22.503  -5.643  19.495  0.00  0.00    +0.000 C 
ATOM     12  C   UNL     1     -20.008   0.073  20.713  0.00  0.00    +0.000 C 
ATOM     13  C   UNL     1     -22.944  -5.932  20.961  0.00  0.00    +0.000 C 
ATOM     14  C   UNL     1     -23.397  -4.500  18.928  0.00  0.00    +0.000 C 
ATOM     15  C   UNL     1     -22.746  -6.946  18.677  0.00  0.00    +0.000 C 
ENDROOT
BRANCH   4  16
ATOM     16  O   UNL     1     -17.969  -1.084  20.614  0.00  0.00    +0.000 OA
ATOM     17  H   UNL     1     -17.774  -1.519  21.463  0.00  0.00    +0.000 HD
ENDBRANCH   4  16
BRANCH  13  18
ATOM     18  O   UNL     1     -23.947  -6.842  21.279  0.00  0.00    +0.000 OA
ATOM     19  H   UNL     1     -23.765  -7.292  22.131  0.00  0.00    +0.000 HD
ENDBRANCH  13  18
BRANCH   3  20
ATOM     20  C   UNL     1     -19.783  -1.897  22.956  0.00  0.00    +0.000 C 
ATOM     21  C   UNL     1     -19.742  -1.481  24.429  0.00  0.00    +0.000 C 
BRANCH  21  25
ATOM     22  C   UNL     1     -17.444  -1.101  27.167  0.00  0.00    +0.000 C 
ATOM     23  C   UNL     1     -18.516  -0.279  26.400  0.00  0.00    +0.000 C 
ATOM     24  C   UNL     1     -17.706  -1.959  28.371  0.00  0.00    +0.000 C 
ATOM     25  C   UNL     1     -19.694  -1.091  25.809  0.00  0.00    +0.000 C 
ATOM     26  C   UNL     1     -16.437  -2.307  29.140  0.00  0.00    +0.000 C 
ATOM     27  C   UNL     1     -16.032  -0.896  27.141  0.00  0.00    +0.000 C 
ATOM     28  C   UNL     1     -15.447  -1.613  28.326  0.00  0.00    +0.000 C 
ATOM     29  C   UNL     1     -19.037  -2.351  28.603  0.00  0.00    +0.000 C 
ATOM     30  C   UNL     1     -20.724  -1.623  26.702  0.00  0.00    +0.000 C 
ATOM     31  C   UNL     1     -17.790   0.471  25.221  0.00  0.00    +0.000 C 
ATOM     32  C   UNL     1     -19.062   0.831  27.362  0.00  0.00    +0.000 C 
ATOM     33  C   UNL     1     -20.300  -2.141  27.811  0.00  0.00    +0.000 C 
ATOM     34  C   UNL     1     -16.234  -3.810  29.277  0.00  0.00    +0.000 C 
ATOM     35  C   UNL     1     -22.108  -2.007  26.251  0.00  0.00    +0.000 C 
BRANCH  26  36
ATOM     36  O   UNL     1     -16.490  -1.773  30.437  0.00  0.00    +0.000 OA
ATOM     37  H   UNL     1     -15.914  -2.394  30.916  0.00  0.00    +0.000 HD
ENDBRANCH  26  36
ENDBRANCH  21  25
ENDBRANCH   3  20
TORSDOF 5
ENDMDL
MODEL 5
REMARK VINA RESULT:      -5.6     20.382     23.443
REMARK  Name = 342374_SipholenolA.pdbqt.pdb
REMARK  5 active torsions:
REMARK  status: ('A' for Active; 'I' for Inactive)
REMARK    1  A    between atoms: C_3  and  C_20
REMARK    2  A    between atoms: C_4  and  O_16
REMARK    3  A    between atoms: C_13  and  O_18
REMARK    4  A    between atoms: C_21  and  C_25
REMARK    5  A    between atoms: C_26  and  O_36
REMARK                            x       y       z     vdW  Elec       q    Type
REMARK                         _______ _______ _______ _____ _____    ______ ____
ROOT
ATOM      1  O   UNL     1      -6.854   7.907   6.212  0.00  0.00    +0.000 OA
ATOM      2  C   UNL     1      -6.690   9.163   8.496  0.00  0.00    +0.000 C 
ATOM      3  C   UNL     1      -7.365  10.220   9.375  0.00  0.00    +0.000 C 
ATOM      4  C   UNL     1      -7.888  11.501   8.749  0.00  0.00    +0.000 C 
ATOM      5  C   UNL     1      -7.257   8.976   7.020  0.00  0.00    +0.000 C 
ATOM      6  C   UNL     1      -6.903   7.820   9.059  0.00  0.00    +0.000 C 
ATOM      7  C   UNL     1      -8.061  11.291   7.326  0.00  0.00    +0.000 C 
ATOM      8  C   UNL     1      -7.804  10.130   6.425  0.00  0.00    +0.000 C 
ATOM      9  C   UNL     1      -5.172   9.472   8.387  0.00  0.00    +0.000 C 
ATOM     10  C   UNL     1      -7.226   6.406   8.645  0.00  0.00    +0.000 C 
ATOM     11  C   UNL     1      -7.687   6.703   6.155  0.00  0.00    +0.000 C 
ATOM     12  C   UNL     1      -9.199  11.945   9.415  0.00  0.00    +0.000 C 
ATOM     13  C   UNL     1      -7.509   5.792   7.406  0.00  0.00    +0.000 C 
ATOM     14  C   UNL     1      -9.199   7.048   6.008  0.00  0.00    +0.000 C 
ATOM     15  C   UNL     1      -7.219   5.881   4.918  0.00  0.00    +0.000 C 
ENDROOT
BRANCH   4  16
ATOM     16  O   UNL     1      -6.975  12.547   8.971  0.00  0.00    +0.000 OA
ATOM     17  H   UNL     1      -6.214  12.062   9.336  0.00  0.00    +0.000 HD
ENDBRANCH   4  16
BRANCH  13  18
ATOM     18  O   UNL     1      -7.605   4.405   7.347  0.00  0.00    +0.000 OA
ATOM     19  H   UNL     1      -6.732   3.993   7.174  0.00  0.00    +0.000 HD
ENDBRANCH  13  18
BRANCH   3  20
ATOM     20  C   UNL     1      -7.290  10.107  10.809  0.00  0.00    +0.000 C 
ATOM     21  C   UNL     1      -7.201   9.974  12.332  0.00  0.00    +0.000 C 
BRANCH  21  25
ATOM     22  C   UNL     1      -4.922  10.465  15.068  0.00  0.00    +0.000 C 
ATOM     23  C   UNL     1      -6.361  10.866  14.641  0.00  0.00    +0.000 C 
ATOM     24  C   UNL     1      -4.561   9.238  15.854  0.00  0.00    +0.000 C 
ATOM     25  C   UNL     1      -7.113   9.842  13.759  0.00  0.00    +0.000 C 
ATOM     26  C   UNL     1      -3.168   9.312  16.467  0.00  0.00    +0.000 C 
ATOM     27  C   UNL     1      -3.787  11.326  15.156  0.00  0.00    +0.000 C 
ATOM     28  C   UNL     1      -2.753  10.630  15.998  0.00  0.00    +0.000 C 
ATOM     29  C   UNL     1      -5.506   8.196  15.888  0.00  0.00    +0.000 C 
ATOM     30  C   UNL     1      -7.624   8.609  14.360  0.00  0.00    +0.000 C 
ATOM     31  C   UNL     1      -6.262  12.224  13.849  0.00  0.00    +0.000 C 
ATOM     32  C   UNL     1      -7.189  11.168  15.936  0.00  0.00    +0.000 C 
ATOM     33  C   UNL     1      -6.835   8.021  15.202  0.00  0.00    +0.000 C 
ATOM     34  C   UNL     1      -2.279   8.155  16.033  0.00  0.00    +0.000 C 
ATOM     35  C   UNL     1      -8.730   7.780  13.764  0.00  0.00    +0.000 C 
BRANCH  26  36
ATOM     36  O   UNL     1      -3.248   9.275  17.868  0.00  0.00    +0.000 OA
ATOM     37  H   UNL     1      -4.119   8.860  17.992  0.00  0.00    +0.000 HD
ENDBRANCH  26  36
ENDBRANCH  21  25
ENDBRANCH   3  20
TORSDOF 5
ENDMDL
MODEL 6
REMARK VINA RESULT:      -5.5     26.244     28.897
REMARK  Name = 342374_SipholenolA.pdbqt.pdb
REMARK  5 active torsions:
REMARK  status: ('A' for Active; 'I' for Inactive)
REMARK    1  A    between atoms: C_3  and  C_20
REMARK    2  A    between atoms: C_4  and  O_16
REMARK    3  A    between atoms: C_13  and  O_18
REMARK    4  A    between atoms: C_21  and  C_25
REMARK    5  A    between atoms: C_26  and  O_36
REMARK                            x       y       z     vdW  Elec       q    Type
REMARK                         _______ _______ _______ _____ _____    ______ ____
ROOT
ATOM      1  O   UNL     1     -13.072   4.300  -4.615  0.00  0.00    +0.000 OA
ATOM      2  C   UNL     1     -14.286   4.589  -2.321  0.00  0.00    +0.000 C 
ATOM      3  C   UNL     1     -14.235   4.204  -0.840  0.00  0.00    +0.000 C 
ATOM      4  C   UNL     1     -13.899   2.778  -0.440  0.00  0.00    +0.000 C 
ATOM      5  C   UNL     1     -13.248   3.874  -3.294  0.00  0.00    +0.000 C 
ATOM      6  C   UNL     1     -13.916   6.003  -2.494  0.00  0.00    +0.000 C 
ATOM      7  C   UNL     1     -13.230   2.126  -1.549  0.00  0.00    +0.000 C 
ATOM      8  C   UNL     1     -12.867   2.569  -2.926  0.00  0.00    +0.000 C 
ATOM      9  C   UNL     1     -15.714   4.329  -2.875  0.00  0.00    +0.000 C 
ATOM     10  C   UNL     1     -13.114   6.910  -3.394  0.00  0.00    +0.000 C 
ATOM     11  C   UNL     1     -11.976   5.220  -4.927  0.00  0.00    +0.000 C 
ATOM     12  C   UNL     1     -13.038   2.749   0.831  0.00  0.00    +0.000 C 
ATOM     13  C   UNL     1     -12.297   6.691  -4.523  0.00  0.00    +0.000 C 
ATOM     14  C   UNL     1     -10.646   4.799  -4.236  0.00  0.00    +0.000 C 
ATOM     15  C   UNL     1     -11.788   5.200  -6.473  0.00  0.00    +0.000 C 
ENDROOT
BRANCH   4  16
ATOM     16  O   UNL     1     -15.077   2.082  -0.118  0.00  0.00    +0.000 OA
ATOM     17  H   UNL     1     -15.523   2.723   0.465  0.00  0.00    +0.000 HD
ENDBRANCH   4  16
BRANCH  13  18
ATOM     18  O   UNL     1     -11.823   7.787  -5.236  0.00  0.00    +0.000 OA
ATOM     19  H   UNL     1     -11.318   7.508  -6.028  0.00  0.00    +0.000 HD
ENDBRANCH  13  18
BRANCH   3  20
ATOM     20  C   UNL     1     -14.732   5.123   0.153  0.00  0.00    +0.000 C 
ATOM     21  C   UNL     1     -15.275   6.100   1.200  0.00  0.00    +0.000 C 
BRANCH  21  25
ATOM     22  C   UNL     1     -14.278   7.989   4.090  0.00  0.00    +0.000 C 
ATOM     23  C   UNL     1     -14.963   8.207   2.713  0.00  0.00    +0.000 C 
ATOM     24  C   UNL     1     -14.989   7.660   5.371  0.00  0.00    +0.000 C 
ATOM     25  C   UNL     1     -15.791   7.016   2.176  0.00  0.00    +0.000 C 
ATOM     26  C   UNL     1     -14.132   7.903   6.607  0.00  0.00    +0.000 C 
ATOM     27  C   UNL     1     -12.977   8.432   4.476  0.00  0.00    +0.000 C 
ATOM     28  C   UNL     1     -12.907   8.383   5.978  0.00  0.00    +0.000 C 
ATOM     29  C   UNL     1     -16.295   7.148   5.266  0.00  0.00    +0.000 C 
ATOM     30  C   UNL     1     -17.086   6.706   2.782  0.00  0.00    +0.000 C 
ATOM     31  C   UNL     1     -13.834   8.539   1.666  0.00  0.00    +0.000 C 
ATOM     32  C   UNL     1     -15.864   9.485   2.813  0.00  0.00    +0.000 C 
ATOM     33  C   UNL     1     -17.136   6.773   4.075  0.00  0.00    +0.000 C 
ATOM     34  C   UNL     1     -13.980   6.654   7.464  0.00  0.00    +0.000 C 
ATOM     35  C   UNL     1     -18.167   5.914   2.095  0.00  0.00    +0.000 C 
BRANCH  26  36
ATOM     36  O   UNL     1     -14.710   8.896   7.414  0.00  0.00    +0.000 OA
ATOM     37  H   UNL     1     -14.817   9.618   6.770  0.00  0.00    +0.000 HD
ENDBRANCH  26  36
ENDBRANCH  21  25
ENDBRANCH   3  20
TORSDOF 5
ENDMDL
MODEL 7
REMARK VINA RESULT:      -5.5      1.467      2.249
REMARK  Name = 342374_SipholenolA.pdbqt.pdb
REMARK  5 active torsions:
REMARK  status: ('A' for Active; 'I' for Inactive)
REMARK    1  A    between atoms: C_3  and  C_20
REMARK    2  A    between atoms: C_4  and  O_16
REMARK    3  A    between atoms: C_13  and  O_18
REMARK    4  A    between atoms: C_21  and  C_25
REMARK    5  A    between atoms: C_26  and  O_36
REMARK                            x       y       z     vdW  Elec       q    Type
REMARK                         _______ _______ _______ _____ _____    ______ ____
ROOT
ATOM      1  O   UNL     1       7.751  -4.590  10.076  0.00  0.00    +0.000 OA
ATOM      2  C   UNL     1       8.630  -6.754  11.245  0.00  0.00    +0.000 C 
ATOM      3  C   UNL     1       8.833  -7.427  12.605  0.00  0.00    +0.000 C 
ATOM      4  C   UNL     1       9.373  -6.620  13.774  0.00  0.00    +0.000 C 
ATOM      5  C   UNL     1       8.162  -5.232  11.250  0.00  0.00    +0.000 C 
ATOM      6  C   UNL     1       7.521  -7.394  10.520  0.00  0.00    +0.000 C 
ATOM      7  C   UNL     1       9.169  -5.210  13.504  0.00  0.00    +0.000 C 
ATOM      8  C   UNL     1       8.594  -4.464  12.349  0.00  0.00    +0.000 C 
ATOM      9  C   UNL     1       9.943  -6.844  10.420  0.00  0.00    +0.000 C 
ATOM     10  C   UNL     1       6.329  -7.062   9.656  0.00  0.00    +0.000 C 
ATOM     11  C   UNL     1       6.320  -4.514   9.769  0.00  0.00    +0.000 C 
ATOM     12  C   UNL     1       8.703  -7.042  15.090  0.00  0.00    +0.000 C 
ATOM     13  C   UNL     1       5.759  -5.853   9.202  0.00  0.00    +0.000 C 
ATOM     14  C   UNL     1       5.476  -4.115  11.015  0.00  0.00    +0.000 C 
ATOM     15  C   UNL     1       6.147  -3.438   8.657  0.00  0.00    +0.000 C 
ENDROOT
BRANCH   4  16
ATOM     16  O   UNL     1      10.743  -6.882  13.943  0.00  0.00    +0.000 OA
ATOM     17  H   UNL     1      10.795  -7.814  13.665  0.00  0.00    +0.000 HD
ENDBRANCH   4  16
BRANCH  13  18
ATOM     18  O   UNL     1       4.733  -5.902   8.263  0.00  0.00    +0.000 OA
ATOM     19  H   UNL     1       4.047  -5.227   8.448  0.00  0.00    +0.000 HD
ENDBRANCH  13  18
BRANCH   3  20
ATOM     20  C   UNL     1       8.741  -8.860  12.712  0.00  0.00    +0.000 C 
ATOM     21  C   UNL     1       8.628 -10.384  12.819  0.00  0.00    +0.000 C 
BRANCH  21  25
ATOM     22  C   UNL     1       6.221 -13.038  12.538  0.00  0.00    +0.000 C 
ATOM     23  C   UNL     1       7.609 -12.636  11.970  0.00  0.00    +0.000 C 
ATOM     24  C   UNL     1       5.995 -13.857  13.777  0.00  0.00    +0.000 C 
ATOM     25  C   UNL     1       8.513 -11.811  12.916  0.00  0.00    +0.000 C 
ATOM     26  C   UNL     1       4.585 -14.429  13.863  0.00  0.00    +0.000 C 
ATOM     27  C   UNL     1       4.983 -13.065  11.829  0.00  0.00    +0.000 C 
ATOM     28  C   UNL     1       4.021 -13.903  12.625  0.00  0.00    +0.000 C 
ATOM     29  C   UNL     1       7.063 -13.953  14.687  0.00  0.00    +0.000 C 
ATOM     30  C   UNL     1       9.158 -12.469  14.053  0.00  0.00    +0.000 C 
ATOM     31  C   UNL     1       7.363 -11.794  10.661  0.00  0.00    +0.000 C 
ATOM     32  C   UNL     1       8.352 -13.941  11.523  0.00  0.00    +0.000 C 
ATOM     33  C   UNL     1       8.424 -13.310  14.711  0.00  0.00    +0.000 C 
ATOM     34  C   UNL     1       3.865 -14.013  15.138  0.00  0.00    +0.000 C 
ATOM     35  C   UNL     1      10.379 -11.932  14.752  0.00  0.00    +0.000 C 
BRANCH  26  36
ATOM     36  O   UNL     1       4.626 -15.832  13.845  0.00  0.00    +0.000 OA
ATOM     37  H   UNL     1       3.702 -16.046  14.065  0.00  0.00    +0.000 HD
ENDBRANCH  26  36
ENDBRANCH  21  25
ENDBRANCH   3  20
TORSDOF 5
ENDMDL
MODEL 8
REMARK VINA RESULT:      -5.4     24.226     27.643
REMARK  Name = 342374_SipholenolA.pdbqt.pdb
REMARK  5 active torsions:
REMARK  status: ('A' for Active; 'I' for Inactive)
REMARK    1  A    between atoms: C_3  and  C_20
REMARK    2  A    between atoms: C_4  and  O_16
REMARK    3  A    between atoms: C_13  and  O_18
REMARK    4  A    between atoms: C_21  and  C_25
REMARK    5  A    between atoms: C_26  and  O_36
REMARK                            x       y       z     vdW  Elec       q    Type
REMARK                         _______ _______ _______ _____ _____    ______ ____
ROOT
ATOM      1  O   UNL     1     -18.992   0.959  25.731  0.00  0.00    +0.000 OA
ATOM      2  C   UNL     1     -16.678   2.085  25.288  0.00  0.00    +0.000 C 
ATOM      3  C   UNL     1     -15.184   1.804  25.097  0.00  0.00    +0.000 C 
ATOM      4  C   UNL     1     -14.483   0.800  25.995  0.00  0.00    +0.000 C 
ATOM      5  C   UNL     1     -17.596   0.861  25.729  0.00  0.00    +0.000 C 
ATOM      6  C   UNL     1     -17.294   2.461  24.006  0.00  0.00    +0.000 C 
ATOM      7  C   UNL     1     -15.478  -0.067  26.595  0.00  0.00    +0.000 C 
ATOM      8  C   UNL     1     -16.967  -0.122  26.517  0.00  0.00    +0.000 C 
ATOM      9  C   UNL     1     -16.862   3.219  26.333  0.00  0.00    +0.000 C 
ATOM     10  C   UNL     1     -18.540   2.235  23.186  0.00  0.00    +0.000 C 
ATOM     11  C   UNL     1     -19.742   0.465  24.573  0.00  0.00    +0.000 C 
ATOM     12  C   UNL     1     -13.437  -0.005  25.210  0.00  0.00    +0.000 C 
ATOM     13  C   UNL     1     -19.700   1.452  23.368  0.00  0.00    +0.000 C 
ATOM     14  C   UNL     1     -19.225  -0.922  24.091  0.00  0.00    +0.000 C 
ATOM     15  C   UNL     1     -21.231   0.340  25.012  0.00  0.00    +0.000 C 
ENDROOT
BRANCH   4  16
ATOM     16  O   UNL     1     -13.769   1.475  27.000  0.00  0.00    +0.000 OA
ATOM     17  H   UNL     1     -14.484   1.703  27.622  0.00  0.00    +0.000 HD
ENDBRANCH   4  16
BRANCH  13  18
ATOM     18  O   UNL     1     -20.760   1.599  22.478  0.00  0.00    +0.000 OA
ATOM     19  H   UNL     1     -21.458   0.930  22.640  0.00  0.00    +0.000 HD
ENDBRANCH  13  18
BRANCH   3  20
ATOM     20  C   UNL     1     -14.404   2.655  24.236  0.00  0.00    +0.000 C 
ATOM     21  C   UNL     1     -13.574   3.572  23.332  0.00  0.00    +0.000 C 
BRANCH  21  25
ATOM     22  C   UNL     1     -13.068   4.427  19.878  0.00  0.00    +0.000 C 
ATOM     23  C   UNL     1     -13.387   5.117  21.232  0.00  0.00    +0.000 C 
ATOM     24  C   UNL     1     -11.691   4.181  19.333  0.00  0.00    +0.000 C 
ATOM     25  C   UNL     1     -12.798   4.437  22.491  0.00  0.00    +0.000 C 
ATOM     26  C   UNL     1     -11.688   3.870  17.841  0.00  0.00    +0.000 C 
ATOM     27  C   UNL     1     -13.953   4.273  18.769  0.00  0.00    +0.000 C 
ATOM     28  C   UNL     1     -13.117   3.950  17.562  0.00  0.00    +0.000 C 
ATOM     29  C   UNL     1     -10.621   4.227  20.246  0.00  0.00    +0.000 C 
ATOM     30  C   UNL     1     -11.364   4.543  22.764  0.00  0.00    +0.000 C 
ATOM     31  C   UNL     1     -14.954   5.168  21.384  0.00  0.00    +0.000 C 
ATOM     32  C   UNL     1     -12.902   6.604  21.150  0.00  0.00    +0.000 C 
ATOM     33  C   UNL     1     -10.581   4.405  21.740  0.00  0.00    +0.000 C 
ATOM     34  C   UNL     1     -11.034   2.532  17.527  0.00  0.00    +0.000 C 
ATOM     35  C   UNL     1     -10.751   4.347  24.125  0.00  0.00    +0.000 C 
BRANCH  26  36
ATOM     36  O   UNL     1     -10.979   4.857  17.138  0.00  0.00    +0.000 OA
ATOM     37  H   UNL     1     -10.323   5.124  17.806  0.00  0.00    +0.000 HD
ENDBRANCH  26  36
ENDBRANCH  21  25
ENDBRANCH   3  20
TORSDOF 5
ENDMDL
MODEL 9
REMARK VINA RESULT:      -5.3     21.412     23.972
REMARK  Name = 342374_SipholenolA.pdbqt.pdb
REMARK  5 active torsions:
REMARK  status: ('A' for Active; 'I' for Inactive)
REMARK    1  A    between atoms: C_3  and  C_20
REMARK    2  A    between atoms: C_4  and  O_16
REMARK    3  A    between atoms: C_13  and  O_18
REMARK    4  A    between atoms: C_21  and  C_25
REMARK    5  A    between atoms: C_26  and  O_36
REMARK                            x       y       z     vdW  Elec       q    Type
REMARK                         _______ _______ _______ _____ _____    ______ ____
ROOT
ATOM      1  O   UNL     1      -7.643   8.002   6.152  0.00  0.00    +0.000 OA
ATOM      2  C   UNL     1      -7.029   9.176   8.403  0.00  0.00    +0.000 C 
ATOM      3  C   UNL     1      -7.563  10.102   9.499  0.00  0.00    +0.000 C 
ATOM      4  C   UNL     1      -8.373  11.331   9.121  0.00  0.00    +0.000 C 
ATOM      5  C   UNL     1      -7.938   8.978   7.111  0.00  0.00    +0.000 C 
ATOM      6  C   UNL     1      -6.934   7.795   8.903  0.00  0.00    +0.000 C 
ATOM      7  C   UNL     1      -8.888  11.157   7.777  0.00  0.00    +0.000 C 
ATOM      8  C   UNL     1      -8.748  10.076   6.760  0.00  0.00    +0.000 C 
ATOM      9  C   UNL     1      -5.637   9.680   7.932  0.00  0.00    +0.000 C 
ATOM     10  C   UNL     1      -7.194   6.369   8.484  0.00  0.00    +0.000 C 
ATOM     11  C   UNL     1      -8.322   6.706   6.223  0.00  0.00    +0.000 C 
ATOM     12  C   UNL     1      -9.505  11.577  10.130  0.00  0.00    +0.000 C 
ATOM     13  C   UNL     1      -7.721   5.775   7.318  0.00  0.00    +0.000 C 
ATOM     14  C   UNL     1      -9.848   6.861   6.492  0.00  0.00    +0.000 C 
ATOM     15  C   UNL     1      -8.105   6.001   4.851  0.00  0.00    +0.000 C 
ENDROOT
BRANCH   4  16
ATOM     16  O   UNL     1      -7.558  12.475   9.177  0.00  0.00    +0.000 OA
ATOM     17  H   UNL     1      -6.678  12.076   9.300  0.00  0.00    +0.000 HD
ENDBRANCH   4  16
BRANCH  13  18
ATOM     18  O   UNL     1      -7.672   4.391   7.185  0.00  0.00    +0.000 OA
ATOM     19  H   UNL     1      -7.933   3.942   8.017  0.00  0.00    +0.000 HD
ENDBRANCH  13  18
BRANCH   3  20
ATOM     20  C   UNL     1      -7.103   9.942  10.854  0.00  0.00    +0.000 C 
ATOM     21  C   UNL     1      -6.599   9.777  12.291  0.00  0.00    +0.000 C 
BRANCH  21  25
ATOM     22  C   UNL     1      -7.753   9.609  15.691  0.00  0.00    +0.000 C 
ATOM     23  C   UNL     1      -6.879   8.796  14.697  0.00  0.00    +0.000 C 
ATOM     24  C   UNL     1      -7.248  10.682  16.612  0.00  0.00    +0.000 C 
ATOM     25  C   UNL     1      -6.118   9.623  13.634  0.00  0.00    +0.000 C 
ATOM     26  C   UNL     1      -8.225  11.011  17.734  0.00  0.00    +0.000 C 
ATOM     27  C   UNL     1      -9.038   9.245  16.193  0.00  0.00    +0.000 C 
ATOM     28  C   UNL     1      -9.303  10.082  17.414  0.00  0.00    +0.000 C 
ATOM     29  C   UNL     1      -6.000  11.255  16.307  0.00  0.00    +0.000 C 
ATOM     30  C   UNL     1      -4.950  10.410  14.032  0.00  0.00    +0.000 C 
ATOM     31  C   UNL     1      -7.825   7.780  13.951  0.00  0.00    +0.000 C 
ATOM     32  C   UNL     1      -5.869   7.932  15.528  0.00  0.00    +0.000 C 
ATOM     33  C   UNL     1      -5.058  11.058  15.149  0.00  0.00    +0.000 C 
ATOM     34  C   UNL     1      -8.615  12.482  17.754  0.00  0.00    +0.000 C 
ATOM     35  C   UNL     1      -3.880  10.866  13.077  0.00  0.00    +0.000 C 
BRANCH  26  36
ATOM     36  O   UNL     1      -7.654  10.713  18.982  0.00  0.00    +0.000 OA
ATOM     37  H   UNL     1      -8.409  10.876  19.574  0.00  0.00    +0.000 HD
ENDBRANCH  26  36
ENDBRANCH  21  25
ENDBRANCH   3  20
TORSDOF 5
ENDMDL
