MODEL 1
REMARK VINA RESULT:      -3.6      0.000      0.000
REMARK  Name = 43806_Diaminocyclohexane.pdbqt.pdb
REMARK  2 active torsions:
REMARK  status: ('A' for Active; 'I' for Inactive)
REMARK    1  A    between atoms: C_1  and  N_7
REMARK    2  A    between atoms: C_2  and  N_10
REMARK                            x       y       z     vdW  Elec       q    Type
REMARK                         _______ _______ _______ _____ _____    ______ ____
ROOT
ATOM      1  C   UNL     1       5.651  -4.665   9.128  0.00  0.00    +0.000 A 
ATOM      2  C   UNL     1       6.099  -4.738  10.536  0.00  0.00    +0.000 A 
ATOM      3  C   UNL     1       5.320  -5.922   8.528  0.00  0.00    +0.000 A 
ATOM      4  C   UNL     1       6.105  -6.053  11.106  0.00  0.00    +0.000 A 
ATOM      5  C   UNL     1       5.312  -7.362   9.069  0.00  0.00    +0.000 A 
ATOM      6  C   UNL     1       5.755  -7.435  10.532  0.00  0.00    +0.000 A 
ENDROOT
BRANCH   1   7
ATOM      7  N   UNL     1       5.484  -3.439   8.442  0.00  0.00    +0.000 N 
ATOM      8  H   UNL     1       4.560  -3.324   8.037  0.00  0.00    +0.000 HD
ATOM      9  H   UNL     1       6.225  -3.220   7.784  0.00  0.00    +0.000 HD
ENDBRANCH   1   7
BRANCH   2  10
ATOM     10  N   UNL     1       6.565  -3.609  11.250  0.00  0.00    +0.000 N 
ATOM     11  H   UNL     1       7.545  -3.402  11.087  0.00  0.00    +0.000 HD
ATOM     12  H   UNL     1       6.330  -3.608  12.237  0.00  0.00    +0.000 HD
ENDBRANCH   2  10
TORSDOF 2
ENDMDL
MODEL 2
REMARK VINA RESULT:      -3.6     14.784     15.243
REMARK  Name = 43806_Diaminocyclohexane.pdbqt.pdb
REMARK  2 active torsions:
REMARK  status: ('A' for Active; 'I' for Inactive)
REMARK    1  A    between atoms: C_1  and  N_7
REMARK    2  A    between atoms: C_2  and  N_10
REMARK                            x       y       z     vdW  Elec       q    Type
REMARK                         _______ _______ _______ _____ _____    ______ ____
ROOT
ATOM      1  C   UNL     1      -4.456  -2.184  -1.529  0.00  0.00    +0.000 A 
ATOM      2  C   UNL     1      -5.287  -2.032  -0.315  0.00  0.00    +0.000 A 
ATOM      3  C   UNL     1      -3.948  -3.503  -1.760  0.00  0.00    +0.000 A 
ATOM      4  C   UNL     1      -5.493  -3.235   0.436  0.00  0.00    +0.000 A 
ATOM      5  C   UNL     1      -4.116  -4.828  -0.998  0.00  0.00    +0.000 A 
ATOM      6  C   UNL     1      -4.994  -4.676   0.246  0.00  0.00    +0.000 A 
ENDROOT
BRANCH   1   7
ATOM      7  N   UNL     1      -4.238  -1.126  -2.444  0.00  0.00    +0.000 N 
ATOM      8  H   UNL     1      -3.272  -0.816  -2.482  0.00  0.00    +0.000 HD
ATOM      9  H   UNL     1      -4.889  -0.352  -2.355  0.00  0.00    +0.000 HD
ENDBRANCH   1   7
BRANCH   2  10
ATOM     10  N   UNL     1      -5.782  -0.780   0.122  0.00  0.00    +0.000 N 
ATOM     11  H   UNL     1      -5.097  -0.033   0.068  0.00  0.00    +0.000 HD
ATOM     12  H   UNL     1      -6.257  -0.805   1.018  0.00  0.00    +0.000 HD
ENDBRANCH   2  10
TORSDOF 2
ENDMDL
MODEL 3
REMARK VINA RESULT:      -3.5      0.357      2.297
REMARK  Name = 43806_Diaminocyclohexane.pdbqt.pdb
REMARK  2 active torsions:
REMARK  status: ('A' for Active; 'I' for Inactive)
REMARK    1  A    between atoms: C_1  and  N_7
REMARK    2  A    between atoms: C_2  and  N_10
REMARK                            x       y       z     vdW  Elec       q    Type
REMARK                         _______ _______ _______ _____ _____    ______ ____
ROOT
ATOM      1  C   UNL     1       6.002  -4.936  10.685  0.00  0.00    +0.000 A 
ATOM      2  C   UNL     1       5.510  -4.615   9.327  0.00  0.00    +0.000 A 
ATOM      3  C   UNL     1       6.064  -6.332  10.997  0.00  0.00    +0.000 A 
ATOM      4  C   UNL     1       5.197  -5.750   8.509  0.00  0.00    +0.000 A 
ATOM      5  C   UNL     1       5.738  -7.594  10.181  0.00  0.00    +0.000 A 
ATOM      6  C   UNL     1       5.249  -7.263   8.770  0.00  0.00    +0.000 A 
ENDROOT
BRANCH   1   7
ATOM      7  N   UNL     1       6.455  -3.945  11.587  0.00  0.00    +0.000 N 
ATOM      8  H   UNL     1       7.105  -4.297  12.283  0.00  0.00    +0.000 HD
ATOM      9  H   UNL     1       5.718  -3.379  11.997  0.00  0.00    +0.000 HD
ENDBRANCH   1   7
BRANCH   2  10
ATOM     10  N   UNL     1       5.285  -3.289   8.888  0.00  0.00    +0.000 N 
ATOM     11  H   UNL     1       4.679  -3.228   8.077  0.00  0.00    +0.000 HD
ATOM     12  H   UNL     1       6.127  -2.732   8.784  0.00  0.00    +0.000 HD
ENDBRANCH   2  10
TORSDOF 2
ENDMDL
MODEL 4
REMARK VINA RESULT:      -3.4     14.763     15.056
REMARK  Name = 43806_Diaminocyclohexane.pdbqt.pdb
REMARK  2 active torsions:
REMARK  status: ('A' for Active; 'I' for Inactive)
REMARK    1  A    between atoms: C_1  and  N_7
REMARK    2  A    between atoms: C_2  and  N_10
REMARK                            x       y       z     vdW  Elec       q    Type
REMARK                         _______ _______ _______ _____ _____    ______ ____
ROOT
ATOM      1  C   UNL     1      -3.851  -4.522  -1.154  0.00  0.00    +0.000 A 
ATOM      2  C   UNL     1      -4.974  -4.542  -0.191  0.00  0.00    +0.000 A 
ATOM      3  C   UNL     1      -3.405  -3.218  -1.545  0.00  0.00    +0.000 A 
ATOM      4  C   UNL     1      -5.432  -3.253   0.237  0.00  0.00    +0.000 A 
ATOM      5  C   UNL     1      -3.852  -1.804  -1.139  0.00  0.00    +0.000 A 
ATOM      6  C   UNL     1      -5.000  -1.824  -0.127  0.00  0.00    +0.000 A 
ENDROOT
BRANCH   1   7
ATOM      7  N   UNL     1      -3.206  -5.700  -1.600  0.00  0.00    +0.000 N 
ATOM      8  H   UNL     1      -2.195  -5.663  -1.519  0.00  0.00    +0.000 HD
ATOM      9  H   UNL     1      -3.510  -6.027  -2.512  0.00  0.00    +0.000 HD
ENDBRANCH   1   7
BRANCH   2  10
ATOM     10  N   UNL     1      -5.608  -5.738   0.221  0.00  0.00    +0.000 N 
ATOM     11  H   UNL     1      -5.980  -5.695   1.164  0.00  0.00    +0.000 HD
ATOM     12  H   UNL     1      -5.065  -6.579   0.058  0.00  0.00    +0.000 HD
ENDBRANCH   2  10
TORSDOF 2
ENDMDL
MODEL 5
REMARK VINA RESULT:      -3.3     24.038     24.666
REMARK  Name = 43806_Diaminocyclohexane.pdbqt.pdb
REMARK  2 active torsions:
REMARK  status: ('A' for Active; 'I' for Inactive)
REMARK    1  A    between atoms: C_1  and  N_7
REMARK    2  A    between atoms: C_2  and  N_10
REMARK                            x       y       z     vdW  Elec       q    Type
REMARK                         _______ _______ _______ _____ _____    ______ ____
ROOT
ATOM      1  C   UNL     1     -12.141  -7.184  27.012  0.00  0.00    +0.000 A 
ATOM      2  C   UNL     1     -12.806  -8.381  26.452  0.00  0.00    +0.000 A 
ATOM      3  C   UNL     1     -10.717  -7.280  27.138  0.00  0.00    +0.000 A 
ATOM      4  C   UNL     1     -11.926  -9.450  26.084  0.00  0.00    +0.000 A 
ATOM      5  C   UNL     1      -9.716  -8.390  26.777  0.00  0.00    +0.000 A 
ATOM      6  C   UNL     1     -10.402  -9.619  26.177  0.00  0.00    +0.000 A 
ENDROOT
BRANCH   1   7
ATOM      7  N   UNL     1     -12.843  -5.998  27.331  0.00  0.00    +0.000 N 
ATOM      8  H   UNL     1     -13.613  -6.144  27.975  0.00  0.00    +0.000 HD
ATOM      9  H   UNL     1     -13.113  -5.439  26.527  0.00  0.00    +0.000 HD
ENDBRANCH   1   7
BRANCH   2  10
ATOM     10  N   UNL     1     -14.213  -8.499  26.356  0.00  0.00    +0.000 N 
ATOM     11  H   UNL     1     -14.616  -7.948  25.605  0.00  0.00    +0.000 HD
ATOM     12  H   UNL     1     -14.706  -8.375  27.234  0.00  0.00    +0.000 HD
ENDBRANCH   2  10
TORSDOF 2
ENDMDL
MODEL 6
REMARK VINA RESULT:      -3.3     14.820     15.433
REMARK  Name = 43806_Diaminocyclohexane.pdbqt.pdb
REMARK  2 active torsions:
REMARK  status: ('A' for Active; 'I' for Inactive)
REMARK    1  A    between atoms: C_1  and  N_7
REMARK    2  A    between atoms: C_2  and  N_10
REMARK                            x       y       z     vdW  Elec       q    Type
REMARK                         _______ _______ _______ _____ _____    ______ ____
ROOT
ATOM      1  C   UNL     1      -5.687  -2.874  -0.520  0.00  0.00    +0.000 A 
ATOM      2  C   UNL     1      -5.198  -4.256  -0.717  0.00  0.00    +0.000 A 
ATOM      3  C   UNL     1      -4.719  -1.845  -0.757  0.00  0.00    +0.000 A 
ATOM      4  C   UNL     1      -3.836  -4.364  -1.149  0.00  0.00    +0.000 A 
ATOM      5  C   UNL     1      -3.250  -1.886  -1.208  0.00  0.00    +0.000 A 
ATOM      6  C   UNL     1      -2.750  -3.314  -1.432  0.00  0.00    +0.000 A 
ENDROOT
BRANCH   1   7
ATOM      7  N   UNL     1      -7.033  -2.578  -0.198  0.00  0.00    +0.000 N 
ATOM      8  H   UNL     1      -7.212  -1.586  -0.078  0.00  0.00    +0.000 HD
ATOM      9  H   UNL     1      -7.417  -3.134   0.560  0.00  0.00    +0.000 HD
ENDBRANCH   1   7
BRANCH   2  10
ATOM     10  N   UNL     1      -5.986  -5.395  -0.427  0.00  0.00    +0.000 N 
ATOM     11  H   UNL     1      -5.501  -6.273  -0.578  0.00  0.00    +0.000 HD
ATOM     12  H   UNL     1      -6.909  -5.387  -0.847  0.00  0.00    +0.000 HD
ENDBRANCH   2  10
TORSDOF 2
ENDMDL
MODEL 7
REMARK VINA RESULT:      -3.3     15.032     15.609
REMARK  Name = 43806_Diaminocyclohexane.pdbqt.pdb
REMARK  2 active torsions:
REMARK  status: ('A' for Active; 'I' for Inactive)
REMARK    1  A    between atoms: C_1  and  N_7
REMARK    2  A    between atoms: C_2  and  N_10
REMARK                            x       y       z     vdW  Elec       q    Type
REMARK                         _______ _______ _______ _____ _____    ______ ____
ROOT
ATOM      1  C   UNL     1      -5.481  -4.133  -1.210  0.00  0.00    +0.000 A 
ATOM      2  C   UNL     1      -5.715  -2.815  -0.579  0.00  0.00    +0.000 A 
ATOM      3  C   UNL     1      -4.142  -4.360  -1.668  0.00  0.00    +0.000 A 
ATOM      4  C   UNL     1      -4.562  -1.970  -0.487  0.00  0.00    +0.000 A 
ATOM      5  C   UNL     1      -2.867  -3.503  -1.613  0.00  0.00    +0.000 A 
ATOM      6  C   UNL     1      -3.105  -2.150  -0.942  0.00  0.00    +0.000 A 
ENDROOT
BRANCH   1   7
ATOM      7  N   UNL     1      -6.480  -5.131  -1.289  0.00  0.00    +0.000 N 
ATOM      8  H   UNL     1      -6.111  -6.060  -1.465  0.00  0.00    +0.000 HD
ATOM      9  H   UNL     1      -7.258  -4.902  -1.900  0.00  0.00    +0.000 HD
ENDBRANCH   1   7
BRANCH   2  10
ATOM     10  N   UNL     1      -6.998  -2.382  -0.167  0.00  0.00    +0.000 N 
ATOM     11  H   UNL     1      -7.442  -1.749  -0.824  0.00  0.00    +0.000 HD
ATOM     12  H   UNL     1      -7.040  -2.041   0.787  0.00  0.00    +0.000 HD
ENDBRANCH   2  10
TORSDOF 2
ENDMDL
MODEL 8
REMARK VINA RESULT:      -3.3     21.832     22.557
REMARK  Name = 43806_Diaminocyclohexane.pdbqt.pdb
REMARK  2 active torsions:
REMARK  status: ('A' for Active; 'I' for Inactive)
REMARK    1  A    between atoms: C_1  and  N_7
REMARK    2  A    between atoms: C_2  and  N_10
REMARK                            x       y       z     vdW  Elec       q    Type
REMARK                         _______ _______ _______ _____ _____    ______ ____
ROOT
ATOM      1  C   UNL     1      -9.120  -7.450  26.276  0.00  0.00    +0.000 A 
ATOM      2  C   UNL     1      -9.927  -6.479  27.046  0.00  0.00    +0.000 A 
ATOM      3  C   UNL     1      -7.985  -6.898  25.597  0.00  0.00    +0.000 A 
ATOM      4  C   UNL     1      -9.439  -5.131  27.029  0.00  0.00    +0.000 A 
ATOM      5  C   UNL     1      -7.411  -5.474  25.525  0.00  0.00    +0.000 A 
ATOM      6  C   UNL     1      -8.234  -4.473  26.339  0.00  0.00    +0.000 A 
ENDROOT
BRANCH   1   7
ATOM      7  N   UNL     1      -9.395  -8.838  26.270  0.00  0.00    +0.000 N 
ATOM      8  H   UNL     1      -9.998  -9.128  25.506  0.00  0.00    +0.000 HD
ATOM      9  H   UNL     1      -9.697  -9.212  27.164  0.00  0.00    +0.000 HD
ENDBRANCH   1   7
BRANCH   2  10
ATOM     10  N   UNL     1     -11.137  -6.830  27.690  0.00  0.00    +0.000 N 
ATOM     11  H   UNL     1     -11.302  -7.831  27.725  0.00  0.00    +0.000 HD
ATOM     12  H   UNL     1     -11.950  -6.317  27.367  0.00  0.00    +0.000 HD
ENDBRANCH   2  10
TORSDOF 2
ENDMDL
MODEL 9
REMARK VINA RESULT:      -3.2     17.746     18.761
REMARK  Name = 43806_Diaminocyclohexane.pdbqt.pdb
REMARK  2 active torsions:
REMARK  status: ('A' for Active; 'I' for Inactive)
REMARK    1  A    between atoms: C_1  and  N_7
REMARK    2  A    between atoms: C_2  and  N_10
REMARK                            x       y       z     vdW  Elec       q    Type
REMARK                         _______ _______ _______ _____ _____    ______ ____
ROOT
ATOM      1  C   UNL     1      -9.517   6.275   6.821  0.00  0.00    +0.000 A 
ATOM      2  C   UNL     1      -9.043   5.524   5.638  0.00  0.00    +0.000 A 
ATOM      3  C   UNL     1      -8.630   6.265   7.945  0.00  0.00    +0.000 A 
ATOM      4  C   UNL     1      -7.749   4.923   5.776  0.00  0.00    +0.000 A 
ATOM      5  C   UNL     1      -7.243   5.638   8.168  0.00  0.00    +0.000 A 
ATOM      6  C   UNL     1      -6.744   4.880   6.937  0.00  0.00    +0.000 A 
ENDROOT
BRANCH   1   7
ATOM      7  N   UNL     1     -10.722   7.017   6.823  0.00  0.00    +0.000 N 
ATOM      8  H   UNL     1     -10.671   7.872   6.277  0.00  0.00    +0.000 HD
ATOM      9  H   UNL     1     -11.121   7.169   7.743  0.00  0.00    +0.000 HD
ENDBRANCH   1   7
BRANCH   2  10
ATOM     10  N   UNL     1      -9.836   5.341   4.480  0.00  0.00    +0.000 N 
ATOM     11  H   UNL     1      -9.541   5.909   3.693  0.00  0.00    +0.000 HD
ATOM     12  H   UNL     1     -10.836   5.395   4.642  0.00  0.00    +0.000 HD
ENDBRANCH   2  10
TORSDOF 2
ENDMDL
