MODEL 1
REMARK VINA RESULT:      -5.6      0.000      0.000
REMARK  Name = 44234954_SipholenolL.pdbqt.pdb
REMARK  5 active torsions:
REMARK  status: ('A' for Active; 'I' for Inactive)
REMARK    1  A    between atoms: C_3  and  C_20
REMARK    2  A    between atoms: C_4  and  O_16
REMARK    3  A    between atoms: C_13  and  O_18
REMARK    4  A    between atoms: C_21  and  C_25
REMARK    5  A    between atoms: C_26  and  O_36
REMARK                            x       y       z     vdW  Elec       q    Type
REMARK                         _______ _______ _______ _____ _____    ______ ____
ROOT
ATOM      1  O   UNL     1       9.854 -19.373   7.353  0.00  0.00    +0.000 OA
ATOM      2  C   UNL     1       7.712 -19.705   5.907  0.00  0.00    +0.000 C 
ATOM      3  C   UNL     1       6.691 -18.960   5.044  0.00  0.00    +0.000 C 
ATOM      4  C   UNL     1       7.174 -17.967   4.003  0.00  0.00    +0.000 C 
ATOM      5  C   UNL     1       8.970 -18.862   6.398  0.00  0.00    +0.000 C 
ATOM      6  C   UNL     1       7.124 -20.105   7.195  0.00  0.00    +0.000 C 
ATOM      7  C   UNL     1       8.480 -17.477   4.404  0.00  0.00    +0.000 C 
ATOM      8  C   UNL     1       9.393 -17.837   5.528  0.00  0.00    +0.000 C 
ATOM      9  C   UNL     1       8.227 -20.956   5.148  0.00  0.00    +0.000 C 
ATOM     10  C   UNL     1       7.444 -20.146   8.668  0.00  0.00    +0.000 C 
ATOM     11  C   UNL     1       9.714 -18.974   8.764  0.00  0.00    +0.000 C 
ATOM     12  C   UNL     1       7.129 -18.548   2.593  0.00  0.00    +0.000 C 
ATOM     13  C   UNL     1       8.529 -19.717   9.467  0.00  0.00    +0.000 C 
ATOM     14  C   UNL     1      11.045 -19.386   9.449  0.00  0.00    +0.000 C 
ATOM     15  C   UNL     1       9.485 -17.435   8.891  0.00  0.00    +0.000 C 
ENDROOT
BRANCH   4  16
ATOM     16  O   UNL     1       6.284 -16.870   3.974  0.00  0.00    +0.000 OA
ATOM     17  H   UNL     1       5.878 -16.942   4.858  0.00  0.00    +0.000 HD
ENDBRANCH   4  16
BRANCH  13  18
ATOM     18  O   UNL     1       8.409 -19.766  10.850  0.00  0.00    +0.000 OA
ATOM     19  H   UNL     1       9.069 -19.210  11.301  0.00  0.00    +0.000 HD
ENDBRANCH  13  18
BRANCH   3  20
ATOM     20  C   UNL     1       5.285 -19.234   5.165  0.00  0.00    +0.000 C 
ATOM     21  C   UNL     1       3.794 -19.553   5.314  0.00  0.00    +0.000 C 
BRANCH  21  25
ATOM     22  C   UNL     1       1.510 -20.164   4.277  0.00  0.00    +0.000 A 
ATOM     23  C   UNL     1      -0.003 -20.548   4.509  0.00  0.00    +0.000 A 
ATOM     24  C   UNL     1       2.125 -20.041   2.822  0.00  0.00    +0.000 C 
ATOM     25  C   UNL     1       2.414 -19.878   5.496  0.00  0.00    +0.000 A 
ATOM     26  C   UNL     1      -1.072 -20.897   3.448  0.00  0.00    +0.000 C 
ATOM     27  C   UNL     1       1.013 -20.338   1.914  0.00  0.00    +0.000 C 
ATOM     28  C   UNL     1      -0.422 -20.717   2.164  0.00  0.00    +0.000 C 
ATOM     29  C   UNL     1      -0.324 -20.502   5.897  0.00  0.00    +0.000 A 
ATOM     30  C   UNL     1       1.912 -19.905   6.898  0.00  0.00    +0.000 A 
ATOM     31  C   UNL     1       3.236 -21.102   2.634  0.00  0.00    +0.000 C 
ATOM     32  C   UNL     1       2.609 -18.596   2.574  0.00  0.00    +0.000 C 
ATOM     33  C   UNL     1       0.653 -20.189   6.993  0.00  0.00    +0.000 A 
ATOM     34  C   UNL     1      -1.624 -22.300   3.656  0.00  0.00    +0.000 C 
ATOM     35  C   UNL     1       2.745 -19.774   8.140  0.00  0.00    +0.000 C 
BRANCH  26  36
ATOM     36  O   UNL     1      -2.153 -20.007   3.559  0.00  0.00    +0.000 OA
ATOM     37  H   UNL     1      -2.024 -19.671   4.465  0.00  0.00    +0.000 HD
ENDBRANCH  26  36
ENDBRANCH  21  25
ENDBRANCH   3  20
TORSDOF 5
ENDMDL
MODEL 2
REMARK VINA RESULT:      -4.7     13.231     16.084
REMARK  Name = 44234954_SipholenolL.pdbqt.pdb
REMARK  5 active torsions:
REMARK  status: ('A' for Active; 'I' for Inactive)
REMARK    1  A    between atoms: C_3  and  C_20
REMARK    2  A    between atoms: C_4  and  O_16
REMARK    3  A    between atoms: C_13  and  O_18
REMARK    4  A    between atoms: C_21  and  C_25
REMARK    5  A    between atoms: C_26  and  O_36
REMARK                            x       y       z     vdW  Elec       q    Type
REMARK                         _______ _______ _______ _____ _____    ______ ____
ROOT
ATOM      1  O   UNL     1       0.983 -22.784  19.773  0.00  0.00    +0.000 OA
ATOM      2  C   UNL     1      -0.350 -20.910  18.546  0.00  0.00    +0.000 C 
ATOM      3  C   UNL     1      -0.529 -19.392  18.460  0.00  0.00    +0.000 C 
ATOM      4  C   UNL     1       0.694 -18.497  18.383  0.00  0.00    +0.000 C 
ATOM      5  C   UNL     1       0.850 -21.428  19.455  0.00  0.00    +0.000 C 
ATOM      6  C   UNL     1      -1.499 -21.541  19.214  0.00  0.00    +0.000 C 
ATOM      7  C   UNL     1       1.816 -19.197  18.982  0.00  0.00    +0.000 C 
ATOM      8  C   UNL     1       1.972 -20.578  19.525  0.00  0.00    +0.000 C 
ATOM      9  C   UNL     1      -0.175 -21.499  17.122  0.00  0.00    +0.000 C 
ATOM     10  C   UNL     1      -1.824 -22.594  20.243  0.00  0.00    +0.000 C 
ATOM     11  C   UNL     1       0.495 -23.279  21.071  0.00  0.00    +0.000 C 
ATOM     12  C   UNL     1       0.952 -18.000  16.963  0.00  0.00    +0.000 C 
ATOM     13  C   UNL     1      -1.063 -23.430  21.092  0.00  0.00    +0.000 C 
ATOM     14  C   UNL     1       1.139 -24.680  21.252  0.00  0.00    +0.000 C 
ATOM     15  C   UNL     1       0.921 -22.326  22.231  0.00  0.00    +0.000 C 
ENDROOT
BRANCH   4  16
ATOM     16  O   UNL     1       0.451 -17.329  19.139  0.00  0.00    +0.000 OA
ATOM     17  H   UNL     1      -0.200 -17.662  19.784  0.00  0.00    +0.000 HD
ENDBRANCH   4  16
BRANCH  13  18
ATOM     18  O   UNL     1      -1.716 -24.182  22.061  0.00  0.00    +0.000 OA
ATOM     19  H   UNL     1      -1.347 -24.042  22.951  0.00  0.00    +0.000 HD
ENDBRANCH  13  18
BRANCH   3  20
ATOM     20  C   UNL     1      -1.841 -18.808  18.390  0.00  0.00    +0.000 C 
ATOM     21  C   UNL     1      -3.253 -18.216  18.326  0.00  0.00    +0.000 C 
BRANCH  21  25
ATOM     22  C   UNL     1      -5.760 -18.538  18.848  0.00  0.00    +0.000 A 
ATOM     23  C   UNL     1      -7.217 -17.932  18.832  0.00  0.00    +0.000 A 
ATOM     24  C   UNL     1      -5.471 -19.998  19.393  0.00  0.00    +0.000 C 
ATOM     25  C   UNL     1      -4.585 -17.700  18.299  0.00  0.00    +0.000 A 
ATOM     26  C   UNL     1      -8.524 -18.576  19.349  0.00  0.00    +0.000 C 
ATOM     27  C   UNL     1      -6.781 -20.518  19.797  0.00  0.00    +0.000 C 
ATOM     28  C   UNL     1      -8.158 -19.910  19.785  0.00  0.00    +0.000 C 
ATOM     29  C   UNL     1      -7.218 -16.648  18.213  0.00  0.00    +0.000 A 
ATOM     30  C   UNL     1      -4.766 -16.345  17.708  0.00  0.00    +0.000 A 
ATOM     31  C   UNL     1      -4.547 -19.918  20.632  0.00  0.00    +0.000 C 
ATOM     32  C   UNL     1      -4.903 -20.881  18.261  0.00  0.00    +0.000 C 
ATOM     33  C   UNL     1      -5.997 -15.944  17.698  0.00  0.00    +0.000 A 
ATOM     34  C   UNL     1      -9.162 -17.735  20.445  0.00  0.00    +0.000 C 
ATOM     35  C   UNL     1      -3.671 -15.413  17.278  0.00  0.00    +0.000 C 
BRANCH  26  36
ATOM     36  O   UNL     1      -9.454 -18.661  18.299  0.00  0.00    +0.000 OA
ATOM     37  H   UNL     1      -9.019 -19.313  17.719  0.00  0.00    +0.000 HD
ENDBRANCH  26  36
ENDBRANCH  21  25
ENDBRANCH   3  20
TORSDOF 5
ENDMDL
MODEL 3
REMARK VINA RESULT:      -4.6     12.461     16.552
REMARK  Name = 44234954_SipholenolL.pdbqt.pdb
REMARK  5 active torsions:
REMARK  status: ('A' for Active; 'I' for Inactive)
REMARK    1  A    between atoms: C_3  and  C_20
REMARK    2  A    between atoms: C_4  and  O_16
REMARK    3  A    between atoms: C_13  and  O_18
REMARK    4  A    between atoms: C_21  and  C_25
REMARK    5  A    between atoms: C_26  and  O_36
REMARK                            x       y       z     vdW  Elec       q    Type
REMARK                         _______ _______ _______ _____ _____    ______ ____
ROOT
ATOM      1  O   UNL     1      10.607  -2.797  -0.108  0.00  0.00    +0.000 OA
ATOM      2  C   UNL     1      12.404  -4.561   0.564  0.00  0.00    +0.000 C 
ATOM      3  C   UNL     1      13.120  -5.824   0.079  0.00  0.00    +0.000 C 
ATOM      4  C   UNL     1      13.679  -5.872  -1.332  0.00  0.00    +0.000 C 
ATOM      5  C   UNL     1      11.465  -3.831  -0.495  0.00  0.00    +0.000 C 
ATOM      6  C   UNL     1      11.435  -4.878   1.625  0.00  0.00    +0.000 C 
ATOM      7  C   UNL     1      12.934  -4.937  -2.155  0.00  0.00    +0.000 C 
ATOM      8  C   UNL     1      11.864  -3.945  -1.842  0.00  0.00    +0.000 C 
ATOM      9  C   UNL     1      13.444  -3.535   1.084  0.00  0.00    +0.000 C 
ATOM     10  C   UNL     1      10.029  -4.554   2.063  0.00  0.00    +0.000 C 
ATOM     11  C   UNL     1       9.185  -3.087   0.147  0.00  0.00    +0.000 C 
ATOM     12  C   UNL     1      15.190  -5.663  -1.357  0.00  0.00    +0.000 C 
ATOM     13  C   UNL     1       8.970  -3.781   1.534  0.00  0.00    +0.000 C 
ATOM     14  C   UNL     1       8.474  -1.707   0.158  0.00  0.00    +0.000 C 
ATOM     15  C   UNL     1       8.591  -4.002  -0.968  0.00  0.00    +0.000 C 
ENDROOT
BRANCH   4  16
ATOM     16  O   UNL     1      13.482  -7.170  -1.854  0.00  0.00    +0.000 OA
ATOM     17  H   UNL     1      12.748  -7.483  -1.293  0.00  0.00    +0.000 HD
ENDBRANCH   4  16
BRANCH  13  18
ATOM     18  O   UNL     1       7.720  -3.845   2.138  0.00  0.00    +0.000 OA
ATOM     19  H   UNL     1       7.779  -3.987   3.099  0.00  0.00    +0.000 HD
ENDBRANCH  13  18
BRANCH   3  20
ATOM     20  C   UNL     1      13.324  -6.940   0.961  0.00  0.00    +0.000 C 
ATOM     21  C   UNL     1      13.536  -8.108   1.930  0.00  0.00    +0.000 C 
BRANCH  21  25
ATOM     22  C   UNL     1      13.924 -10.621   2.379  0.00  0.00    +0.000 A 
ATOM     23  C   UNL     1      14.139 -11.771   3.437  0.00  0.00    +0.000 A 
ATOM     24  C   UNL     1      13.900 -10.914   0.821  0.00  0.00    +0.000 C 
ATOM     25  C   UNL     1      13.707  -9.172   2.869  0.00  0.00    +0.000 A 
ATOM     26  C   UNL     1      14.397 -13.273   3.174  0.00  0.00    +0.000 C 
ATOM     27  C   UNL     1      14.098 -12.363   0.706  0.00  0.00    +0.000 C 
ATOM     28  C   UNL     1      14.317 -13.438   1.736  0.00  0.00    +0.000 C 
ATOM     29  C   UNL     1      14.029 -11.259   4.763  0.00  0.00    +0.000 A 
ATOM     30  C   UNL     1      13.650  -8.807   4.311  0.00  0.00    +0.000 A 
ATOM     31  C   UNL     1      15.077 -10.181   0.135  0.00  0.00    +0.000 C 
ATOM     32  C   UNL     1      12.521 -10.543   0.236  0.00  0.00    +0.000 C 
ATOM     33  C   UNL     1      13.796  -9.817   5.108  0.00  0.00    +0.000 A 
ATOM     34  C   UNL     1      15.729 -13.719   3.762  0.00  0.00    +0.000 C 
ATOM     35  C   UNL     1      13.579  -7.416   4.871  0.00  0.00    +0.000 C 
BRANCH  26  36
ATOM     36  O   UNL     1      13.395 -14.037   3.794  0.00  0.00    +0.000 OA
ATOM     37  H   UNL     1      13.880 -14.389   4.563  0.00  0.00    +0.000 HD
ENDBRANCH  26  36
ENDBRANCH  21  25
ENDBRANCH   3  20
TORSDOF 5
ENDMDL
MODEL 4
REMARK VINA RESULT:      -4.6      9.222     13.838
REMARK  Name = 44234954_SipholenolL.pdbqt.pdb
REMARK  5 active torsions:
REMARK  status: ('A' for Active; 'I' for Inactive)
REMARK    1  A    between atoms: C_3  and  C_20
REMARK    2  A    between atoms: C_4  and  O_16
REMARK    3  A    between atoms: C_13  and  O_18
REMARK    4  A    between atoms: C_21  and  C_25
REMARK    5  A    between atoms: C_26  and  O_36
REMARK                            x       y       z     vdW  Elec       q    Type
REMARK                         _______ _______ _______ _____ _____    ______ ____
ROOT
ATOM      1  O   UNL     1       8.404 -11.937  -5.160  0.00  0.00    +0.000 OA
ATOM      2  C   UNL     1       9.733 -13.559  -3.613  0.00  0.00    +0.000 C 
ATOM      3  C   UNL     1       9.567 -14.631  -2.534  0.00  0.00    +0.000 C 
ATOM      4  C   UNL     1       8.550 -15.740  -2.732  0.00  0.00    +0.000 C 
ATOM      5  C   UNL     1       8.398 -13.051  -4.315  0.00  0.00    +0.000 C 
ATOM      6  C   UNL     1      10.241 -12.303  -3.038  0.00  0.00    +0.000 C 
ATOM      7  C   UNL     1       7.519 -15.265  -3.636  0.00  0.00    +0.000 C 
ATOM      8  C   UNL     1       7.364 -14.003  -4.418  0.00  0.00    +0.000 C 
ATOM      9  C   UNL     1      10.701 -14.067  -4.713  0.00  0.00    +0.000 C 
ATOM     10  C   UNL     1      10.023 -10.813  -3.099  0.00  0.00    +0.000 C 
ATOM     11  C   UNL     1       7.991 -10.623  -4.638  0.00  0.00    +0.000 C 
ATOM     12  C   UNL     1       9.207 -17.049  -3.162  0.00  0.00    +0.000 C 
ATOM     13  C   UNL     1       9.109  -9.963  -3.765  0.00  0.00    +0.000 C 
ATOM     14  C   UNL     1       7.739  -9.737  -5.888  0.00  0.00    +0.000 C 
ATOM     15  C   UNL     1       6.692 -10.744  -3.781  0.00  0.00    +0.000 C 
ENDROOT
BRANCH   4  16
ATOM     16  O   UNL     1       7.945 -16.028  -1.488  0.00  0.00    +0.000 OA
ATOM     17  H   UNL     1       7.172 -15.434  -1.520  0.00  0.00    +0.000 HD
ENDBRANCH   4  16
BRANCH  13  18
ATOM     18  O   UNL     1       9.094  -8.610  -3.449  0.00  0.00    +0.000 OA
ATOM     19  H   UNL     1       8.537  -8.093  -4.057  0.00  0.00    +0.000 HD
ENDBRANCH  13  18
BRANCH   3  20
ATOM     20  C   UNL     1      10.404 -14.636  -1.365  0.00  0.00    +0.000 C 
ATOM     21  C   UNL     1      11.301 -14.606  -0.124  0.00  0.00    +0.000 C 
BRANCH  21  25
ATOM     22  C   UNL     1      12.944 -13.250   1.335  0.00  0.00    +0.000 A 
ATOM     23  C   UNL     1      13.829 -13.181   2.640  0.00  0.00    +0.000 A 
ATOM     24  C   UNL     1      12.885 -12.048   0.303  0.00  0.00    +0.000 C 
ATOM     25  C   UNL     1      12.130 -14.528   1.038  0.00  0.00    +0.000 A 
ATOM     26  C   UNL     1      14.696 -12.004   3.143  0.00  0.00    +0.000 C 
ATOM     27  C   UNL     1      13.780 -11.028   0.859  0.00  0.00    +0.000 C 
ATOM     28  C   UNL     1      14.603 -10.982   2.118  0.00  0.00    +0.000 C 
ATOM     29  C   UNL     1      13.776 -14.418   3.346  0.00  0.00    +0.000 A 
ATOM     30  C   UNL     1      12.171 -15.733   1.913  0.00  0.00    +0.000 A 
ATOM     31  C   UNL     1      11.445 -11.485   0.240  0.00  0.00    +0.000 C 
ATOM     32  C   UNL     1      13.426 -12.504  -1.069  0.00  0.00    +0.000 C 
ATOM     33  C   UNL     1      12.952 -15.604   2.937  0.00  0.00    +0.000 A 
ATOM     34  C   UNL     1      14.241 -11.527   4.516  0.00  0.00    +0.000 C 
ATOM     35  C   UNL     1      11.315 -16.958   1.774  0.00  0.00    +0.000 C 
BRANCH  26  36
ATOM     36  O   UNL     1      16.030 -12.424   3.273  0.00  0.00    +0.000 OA
ATOM     37  H   UNL     1      16.318 -11.892   4.037  0.00  0.00    +0.000 HD
ENDBRANCH  26  36
ENDBRANCH  21  25
ENDBRANCH   3  20
TORSDOF 5
ENDMDL
MODEL 5
REMARK VINA RESULT:      -4.5     12.500     17.006
REMARK  Name = 44234954_SipholenolL.pdbqt.pdb
REMARK  5 active torsions:
REMARK  status: ('A' for Active; 'I' for Inactive)
REMARK    1  A    between atoms: C_3  and  C_20
REMARK    2  A    between atoms: C_4  and  O_16
REMARK    3  A    between atoms: C_13  and  O_18
REMARK    4  A    between atoms: C_21  and  C_25
REMARK    5  A    between atoms: C_26  and  O_36
REMARK                            x       y       z     vdW  Elec       q    Type
REMARK                         _______ _______ _______ _____ _____    ______ ____
ROOT
ATOM      1  O   UNL     1       0.254  -8.094  -5.734  0.00  0.00    +0.000 OA
ATOM      2  C   UNL     1       2.505  -9.405  -5.675  0.00  0.00    +0.000 C 
ATOM      3  C   UNL     1       3.249 -10.525  -4.945  0.00  0.00    +0.000 C 
ATOM      4  C   UNL     1       2.540 -11.838  -4.667  0.00  0.00    +0.000 C 
ATOM      5  C   UNL     1       0.973  -9.207  -5.289  0.00  0.00    +0.000 C 
ATOM      6  C   UNL     1       3.054  -8.087  -5.323  0.00  0.00    +0.000 C 
ATOM      7  C   UNL     1       1.111 -11.591  -4.630  0.00  0.00    +0.000 C 
ATOM      8  C   UNL     1       0.287 -10.375  -4.899  0.00  0.00    +0.000 C 
ATOM      9  C   UNL     1       2.598  -9.626  -7.208  0.00  0.00    +0.000 C 
ATOM     10  C   UNL     1       2.613  -6.691  -4.962  0.00  0.00    +0.000 C 
ATOM     11  C   UNL     1       0.072  -6.938  -4.839  0.00  0.00    +0.000 C 
ATOM     12  C   UNL     1       2.962 -12.934  -5.641  0.00  0.00    +0.000 C 
ATOM     13  C   UNL     1       1.366  -6.061  -4.747  0.00  0.00    +0.000 C 
ATOM     14  C   UNL     1      -1.065  -6.092  -5.475  0.00  0.00    +0.000 C 
ATOM     15  C   UNL     1      -0.324  -7.398  -3.402  0.00  0.00    +0.000 C 
ENDROOT
BRANCH   4  16
ATOM     16  O   UNL     1       2.937 -12.308  -3.395  0.00  0.00    +0.000 OA
ATOM     17  H   UNL     1       2.128 -12.141  -2.878  0.00  0.00    +0.000 HD
ENDBRANCH   4  16
BRANCH  13  18
ATOM     18  O   UNL     1       1.342  -4.764  -4.249  0.00  0.00    +0.000 OA
ATOM     19  H   UNL     1       0.760  -4.674  -3.474  0.00  0.00    +0.000 HD
ENDBRANCH  13  18
BRANCH   3  20
ATOM     20  C   UNL     1       4.630 -10.372  -4.574  0.00  0.00    +0.000 C 
ATOM     21  C   UNL     1       6.110 -10.210  -4.214  0.00  0.00    +0.000 C 
BRANCH  21  25
ATOM     22  C   UNL     1       8.130  -8.634  -3.893  0.00  0.00    +0.000 A 
ATOM     23  C   UNL     1       9.660  -8.478  -3.543  0.00  0.00    +0.000 A 
ATOM     24  C   UNL     1       7.221  -7.382  -4.236  0.00  0.00    +0.000 C 
ATOM     25  C   UNL     1       7.500 -10.044  -3.925  0.00  0.00    +0.000 A 
ATOM     26  C   UNL     1      10.485  -7.175  -3.429  0.00  0.00    +0.000 C 
ATOM     27  C   UNL     1       8.120  -6.227  -4.149  0.00  0.00    +0.000 C 
ATOM     28  C   UNL     1       9.578  -6.105  -3.797  0.00  0.00    +0.000 C 
ATOM     29  C   UNL     1      10.266  -9.757  -3.364  0.00  0.00    +0.000 A 
ATOM     30  C   UNL     1       8.285 -11.286  -3.680  0.00  0.00    +0.000 A 
ATOM     31  C   UNL     1       6.104  -7.242  -3.174  0.00  0.00    +0.000 C 
ATOM     32  C   UNL     1       6.685  -7.499  -5.679  0.00  0.00    +0.000 C 
ATOM     33  C   UNL     1       9.539 -11.067  -3.441  0.00  0.00    +0.000 A 
ATOM     34  C   UNL     1      11.079  -7.014  -2.037  0.00  0.00    +0.000 C 
ATOM     35  C   UNL     1       7.731 -12.675  -3.559  0.00  0.00    +0.000 C 
BRANCH  26  36
ATOM     36  O   UNL     1      11.558  -7.217  -4.334  0.00  0.00    +0.000 OA
ATOM     37  H   UNL     1      12.123  -6.504  -3.984  0.00  0.00    +0.000 HD
ENDBRANCH  26  36
ENDBRANCH  21  25
ENDBRANCH   3  20
TORSDOF 5
ENDMDL
MODEL 6
REMARK VINA RESULT:      -4.4      3.820      7.872
REMARK  Name = 44234954_SipholenolL.pdbqt.pdb
REMARK  5 active torsions:
REMARK  status: ('A' for Active; 'I' for Inactive)
REMARK    1  A    between atoms: C_3  and  C_20
REMARK    2  A    between atoms: C_4  and  O_16
REMARK    3  A    between atoms: C_13  and  O_18
REMARK    4  A    between atoms: C_21  and  C_25
REMARK    5  A    between atoms: C_26  and  O_36
REMARK                            x       y       z     vdW  Elec       q    Type
REMARK                         _______ _______ _______ _____ _____    ______ ____
ROOT
ATOM      1  O   UNL     1       0.890 -22.898  12.448  0.00  0.00    +0.000 OA
ATOM      2  C   UNL     1       0.024 -22.155  10.105  0.00  0.00    +0.000 C 
ATOM      3  C   UNL     1      -0.387 -22.683   8.729  0.00  0.00    +0.000 C 
ATOM      4  C   UNL     1      -1.318 -23.879   8.634  0.00  0.00    +0.000 C 
ATOM      5  C   UNL     1       0.312 -23.250  11.224  0.00  0.00    +0.000 C 
ATOM      6  C   UNL     1       1.324 -21.471  10.042  0.00  0.00    +0.000 C 
ATOM      7  C   UNL     1      -1.192 -24.660   9.850  0.00  0.00    +0.000 C 
ATOM      8  C   UNL     1      -0.434 -24.441  11.118  0.00  0.00    +0.000 C 
ATOM      9  C   UNL     1      -1.061 -21.184  10.640  0.00  0.00    +0.000 C 
ATOM     10  C   UNL     1       2.627 -21.357  10.793  0.00  0.00    +0.000 C 
ATOM     11  C   UNL     1       2.337 -23.087  12.652  0.00  0.00    +0.000 C 
ATOM     12  C   UNL     1      -2.748 -23.466   8.299  0.00  0.00    +0.000 C 
ATOM     13  C   UNL     1       3.177 -21.975  11.939  0.00  0.00    +0.000 C 
ATOM     14  C   UNL     1       2.559 -22.980  14.185  0.00  0.00    +0.000 C 
ATOM     15  C   UNL     1       2.801 -24.480  12.125  0.00  0.00    +0.000 C 
ENDROOT
BRANCH   4  16
ATOM     16  O   UNL     1      -0.909 -24.687   7.549  0.00  0.00    +0.000 OA
ATOM     17  H   UNL     1      -1.214 -25.563   7.850  0.00  0.00    +0.000 HD
ENDBRANCH   4  16
BRANCH  13  18
ATOM     18  O   UNL     1       4.510 -21.743  12.256  0.00  0.00    +0.000 OA
ATOM     19  H   UNL     1       4.623 -20.987  12.859  0.00  0.00    +0.000 HD
ENDBRANCH  13  18
BRANCH   3  20
ATOM     20  C   UNL     1       0.046 -22.024   7.527  0.00  0.00    +0.000 C 
ATOM     21  C   UNL     1       0.528 -21.351   6.238  0.00  0.00    +0.000 C 
BRANCH  21  25
ATOM     22  C   UNL     1       2.352 -20.045   4.960  0.00  0.00    +0.000 A 
ATOM     23  C   UNL     1       2.848 -19.436   3.592  0.00  0.00    +0.000 A 
ATOM     24  C   UNL     1       3.206 -19.916   6.289  0.00  0.00    +0.000 C 
ATOM     25  C   UNL     1       0.988 -20.768   5.017  0.00  0.00    +0.000 A 
ATOM     26  C   UNL     1       4.177 -18.701   3.301  0.00  0.00    +0.000 C 
ATOM     27  C   UNL     1       4.401 -19.161   5.898  0.00  0.00    +0.000 C 
ATOM     28  C   UNL     1       4.858 -18.603   4.578  0.00  0.00    +0.000 C 
ATOM     29  C   UNL     1       1.860 -19.611   2.578  0.00  0.00    +0.000 A 
ATOM     30  C   UNL     1       0.086 -20.885   3.838  0.00  0.00    +0.000 A 
ATOM     31  C   UNL     1       3.626 -21.323   6.778  0.00  0.00    +0.000 C 
ATOM     32  C   UNL     1       2.420 -19.109   7.345  0.00  0.00    +0.000 C 
ATOM     33  C   UNL     1       0.554 -20.323   2.769  0.00  0.00    +0.000 A 
ATOM     34  C   UNL     1       4.989 -19.424   2.235  0.00  0.00    +0.000 C 
ATOM     35  C   UNL     1      -1.185 -21.681   3.770  0.00  0.00    +0.000 C 
BRANCH  26  36
ATOM     36  O   UNL     1       3.905 -17.414   2.811  0.00  0.00    +0.000 OA
ATOM     37  H   UNL     1       3.827 -16.911   3.643  0.00  0.00    +0.000 HD
ENDBRANCH  26  36
ENDBRANCH  21  25
ENDBRANCH   3  20
TORSDOF 5
ENDMDL
MODEL 7
REMARK VINA RESULT:      -4.2      4.274     10.170
REMARK  Name = 44234954_SipholenolL.pdbqt.pdb
REMARK  5 active torsions:
REMARK  status: ('A' for Active; 'I' for Inactive)
REMARK    1  A    between atoms: C_3  and  C_20
REMARK    2  A    between atoms: C_4  and  O_16
REMARK    3  A    between atoms: C_13  and  O_18
REMARK    4  A    between atoms: C_21  and  C_25
REMARK    5  A    between atoms: C_26  and  O_36
REMARK                            x       y       z     vdW  Elec       q    Type
REMARK                         _______ _______ _______ _____ _____    ______ ____
ROOT
ATOM      1  O   UNL     1      -2.021 -24.022  -0.717  0.00  0.00    +0.000 OA
ATOM      2  C   UNL     1      -1.806 -22.917   1.634  0.00  0.00    +0.000 C 
ATOM      3  C   UNL     1      -2.091 -21.630   2.411  0.00  0.00    +0.000 C 
ATOM      4  C   UNL     1      -3.448 -20.963   2.282  0.00  0.00    +0.000 C 
ATOM      5  C   UNL     1      -2.390 -22.992   0.155  0.00  0.00    +0.000 C 
ATOM      6  C   UNL     1      -0.366 -23.070   1.374  0.00  0.00    +0.000 C 
ATOM      7  C   UNL     1      -4.029 -21.342   1.008  0.00  0.00    +0.000 C 
ATOM      8  C   UNL     1      -3.590 -22.285  -0.063  0.00  0.00    +0.000 C 
ATOM      9  C   UNL     1      -2.334 -24.139   2.430  0.00  0.00    +0.000 C 
ATOM     10  C   UNL     1       0.592 -23.461   0.278  0.00  0.00    +0.000 C 
ATOM     11  C   UNL     1      -0.969 -23.786  -1.720  0.00  0.00    +0.000 C 
ATOM     12  C   UNL     1      -4.342 -21.243   3.486  0.00  0.00    +0.000 C 
ATOM     13  C   UNL     1       0.461 -23.815  -1.085  0.00  0.00    +0.000 C 
ATOM     14  C   UNL     1      -1.092 -24.953  -2.737  0.00  0.00    +0.000 C 
ATOM     15  C   UNL     1      -1.172 -22.413  -2.433  0.00  0.00    +0.000 C 
ENDROOT
BRANCH   4  16
ATOM     16  O   UNL     1      -3.267 -19.561   2.282  0.00  0.00    +0.000 OA
ATOM     17  H   UNL     1      -3.180 -19.389   1.326  0.00  0.00    +0.000 HD
ENDBRANCH   4  16
BRANCH  13  18
ATOM     18  O   UNL     1       1.607 -23.954  -1.859  0.00  0.00    +0.000 OA
ATOM     19  H   UNL     1       2.324 -24.410  -1.383  0.00  0.00    +0.000 HD
ENDBRANCH  13  18
BRANCH   3  20
ATOM     20  C   UNL     1      -1.113 -21.081   3.310  0.00  0.00    +0.000 C 
ATOM     21  C   UNL     1      -0.053 -20.526   4.267  0.00  0.00    +0.000 C 
BRANCH  21  25
ATOM     22  C   UNL     1       0.970 -20.448   6.636  0.00  0.00    +0.000 A 
ATOM     23  C   UNL     1       2.124 -19.927   7.577  0.00  0.00    +0.000 A 
ATOM     24  C   UNL     1      -0.205 -21.359   7.185  0.00  0.00    +0.000 C 
ATOM     25  C   UNL     1       0.967 -20.045   5.146  0.00  0.00    +0.000 A 
ATOM     26  C   UNL     1       2.338 -20.223   9.079  0.00  0.00    +0.000 C 
ATOM     27  C   UNL     1       0.078 -21.521   8.615  0.00  0.00    +0.000 C 
ATOM     28  C   UNL     1       1.199 -21.023   9.487  0.00  0.00    +0.000 C 
ATOM     29  C   UNL     1       3.000 -19.059   6.861  0.00  0.00    +0.000 A 
ATOM     30  C   UNL     1       1.991 -19.142   4.551  0.00  0.00    +0.000 A 
ATOM     31  C   UNL     1      -0.158 -22.744   6.495  0.00  0.00    +0.000 C 
ATOM     32  C   UNL     1      -1.558 -20.635   7.015  0.00  0.00    +0.000 C 
ATOM     33  C   UNL     1       2.876 -18.730   5.402  0.00  0.00    +0.000 A 
ATOM     34  C   UNL     1       3.676 -20.904   9.326  0.00  0.00    +0.000 C 
ATOM     35  C   UNL     1       2.142 -18.810   3.095  0.00  0.00    +0.000 C 
BRANCH  26  36
ATOM     36  O   UNL     1       2.349 -19.017   9.799  0.00  0.00    +0.000 OA
ATOM     37  H   UNL     1       2.848 -18.442   9.190  0.00  0.00    +0.000 HD
ENDBRANCH  26  36
ENDBRANCH  21  25
ENDBRANCH   3  20
TORSDOF 5
ENDMDL
MODEL 8
REMARK VINA RESULT:      -4.1     13.717     16.280
REMARK  Name = 44234954_SipholenolL.pdbqt.pdb
REMARK  5 active torsions:
REMARK  status: ('A' for Active; 'I' for Inactive)
REMARK    1  A    between atoms: C_3  and  C_20
REMARK    2  A    between atoms: C_4  and  O_16
REMARK    3  A    between atoms: C_13  and  O_18
REMARK    4  A    between atoms: C_21  and  C_25
REMARK    5  A    between atoms: C_26  and  O_36
REMARK                            x       y       z     vdW  Elec       q    Type
REMARK                         _______ _______ _______ _____ _____    ______ ____
ROOT
ATOM      1  O   UNL     1       3.783 -12.268  23.187  0.00  0.00    +0.000 OA
ATOM      2  C   UNL     1       3.066 -13.362  20.933  0.00  0.00    +0.000 C 
ATOM      3  C   UNL     1       2.014 -13.301  19.824  0.00  0.00    +0.000 C 
ATOM      4  C   UNL     1       1.628 -11.958  19.232  0.00  0.00    +0.000 C 
ATOM      5  C   UNL     1       3.012 -12.203  22.022  0.00  0.00    +0.000 C 
ATOM      6  C   UNL     1       2.874 -14.550  21.779  0.00  0.00    +0.000 C 
ATOM      7  C   UNL     1       1.900 -10.925  20.214  0.00  0.00    +0.000 C 
ATOM      8  C   UNL     1       2.540 -10.956  21.562  0.00  0.00    +0.000 C 
ATOM      9  C   UNL     1       4.486 -13.379  20.309  0.00  0.00    +0.000 C 
ATOM     10  C   UNL     1       2.871 -14.970  23.228  0.00  0.00    +0.000 C 
ATOM     11  C   UNL     1       3.171 -12.740  24.441  0.00  0.00    +0.000 C 
ATOM     12  C   UNL     1       2.283 -11.720  17.875  0.00  0.00    +0.000 C 
ATOM     13  C   UNL     1       3.011 -14.297  24.463  0.00  0.00    +0.000 C 
ATOM     14  C   UNL     1       4.152 -12.318  25.568  0.00  0.00    +0.000 C 
ATOM     15  C   UNL     1       1.770 -12.089  24.661  0.00  0.00    +0.000 C 
ENDROOT
BRANCH   4  16
ATOM     16  O   UNL     1       0.239 -11.959  18.970  0.00  0.00    +0.000 OA
ATOM     17  H   UNL     1       0.232 -11.726  18.023  0.00  0.00    +0.000 HD
ENDBRANCH   4  16
BRANCH  13  18
ATOM     18  O   UNL     1       2.780 -14.996  25.642  0.00  0.00    +0.000 OA
ATOM     19  H   UNL     1       2.074 -15.660  25.548  0.00  0.00    +0.000 HD
ENDBRANCH  13  18
BRANCH   3  20
ATOM     20  C   UNL     1       1.432 -14.504  19.293  0.00  0.00    +0.000 C 
ATOM     21  C   UNL     1       0.785 -15.781  18.748  0.00  0.00    +0.000 C 
BRANCH  21  25
ATOM     22  C   UNL     1      -1.313 -17.285  18.680  0.00  0.00    +0.000 A 
ATOM     23  C   UNL     1      -2.015 -18.572  18.099  0.00  0.00    +0.000 A 
ATOM     24  C   UNL     1      -2.046 -16.328  19.710  0.00  0.00    +0.000 C 
ATOM     25  C   UNL     1       0.135 -16.955  18.256  0.00  0.00    +0.000 A 
ATOM     26  C   UNL     1      -3.453 -19.076  18.364  0.00  0.00    +0.000 C 
ATOM     27  C   UNL     1      -3.363 -16.936  19.919  0.00  0.00    +0.000 C 
ATOM     28  C   UNL     1      -4.016 -18.162  19.338  0.00  0.00    +0.000 C 
ATOM     29  C   UNL     1      -1.114 -19.303  17.270  0.00  0.00    +0.000 A 
ATOM     30  C   UNL     1       0.928 -17.826  17.344  0.00  0.00    +0.000 A 
ATOM     31  C   UNL     1      -2.223 -14.925  19.082  0.00  0.00    +0.000 C 
ATOM     32  C   UNL     1      -1.278 -16.308  21.049  0.00  0.00    +0.000 C 
ATOM     33  C   UNL     1       0.289 -18.880  16.948  0.00  0.00    +0.000 A 
ATOM     34  C   UNL     1      -4.258 -19.159  17.075  0.00  0.00    +0.000 C 
ATOM     35  C   UNL     1       2.282 -17.514  16.777  0.00  0.00    +0.000 C 
BRANCH  26  36
ATOM     36  O   UNL     1      -3.405 -20.372  18.905  0.00  0.00    +0.000 OA
ATOM     37  H   UNL     1      -4.275 -20.423  19.340  0.00  0.00    +0.000 HD
ENDBRANCH  26  36
ENDBRANCH  21  25
ENDBRANCH   3  20
TORSDOF 5
ENDMDL
MODEL 9
REMARK VINA RESULT:      -4.1     31.154     33.418
REMARK  Name = 44234954_SipholenolL.pdbqt.pdb
REMARK  5 active torsions:
REMARK  status: ('A' for Active; 'I' for Inactive)
REMARK    1  A    between atoms: C_3  and  C_20
REMARK    2  A    between atoms: C_4  and  O_16
REMARK    3  A    between atoms: C_13  and  O_18
REMARK    4  A    between atoms: C_21  and  C_25
REMARK    5  A    between atoms: C_26  and  O_36
REMARK                            x       y       z     vdW  Elec       q    Type
REMARK                         _______ _______ _______ _____ _____    ______ ____
ROOT
ATOM      1  O   UNL     1      -8.636  13.569  -0.285  0.00  0.00    +0.000 OA
ATOM      2  C   UNL     1     -10.050  11.745   0.926  0.00  0.00    +0.000 C 
ATOM      3  C   UNL     1     -10.893  11.481   2.175  0.00  0.00    +0.000 C 
ATOM      4  C   UNL     1     -11.937  12.496   2.602  0.00  0.00    +0.000 C 
ATOM      5  C   UNL     1      -9.575  13.247   0.700  0.00  0.00    +0.000 C 
ATOM      6  C   UNL     1      -8.755  11.052   1.005  0.00  0.00    +0.000 C 
ATOM      7  C   UNL     1     -11.555  13.796   2.084  0.00  0.00    +0.000 C 
ATOM      8  C   UNL     1     -10.447  14.242   1.189  0.00  0.00    +0.000 C 
ATOM      9  C   UNL     1     -10.823  11.282  -0.337  0.00  0.00    +0.000 C 
ATOM     10  C   UNL     1      -7.288  11.274   0.739  0.00  0.00    +0.000 C 
ATOM     11  C   UNL     1      -7.222  13.745   0.086  0.00  0.00    +0.000 C 
ATOM     12  C   UNL     1     -13.349  12.061   2.221  0.00  0.00    +0.000 C 
ATOM     13  C   UNL     1      -6.504  12.373   0.319  0.00  0.00    +0.000 C 
ATOM     14  C   UNL     1      -6.559  14.461  -1.123  0.00  0.00    +0.000 C 
ATOM     15  C   UNL     1      -7.084  14.608   1.378  0.00  0.00    +0.000 C 
ENDROOT
BRANCH   4  16
ATOM     16  O   UNL     1     -11.948  12.571   4.013  0.00  0.00    +0.000 OA
ATOM     17  H   UNL     1     -11.233  11.945   4.234  0.00  0.00    +0.000 HD
ENDBRANCH   4  16
BRANCH  13  18
ATOM     18  O   UNL     1      -5.119  12.263   0.344  0.00  0.00    +0.000 OA
ATOM     19  H   UNL     1      -4.787  11.600  -0.288  0.00  0.00    +0.000 HD
ENDBRANCH  13  18
BRANCH   3  20
ATOM     20  C   UNL     1     -10.752  10.255   2.913  0.00  0.00    +0.000 C 
ATOM     21  C   UNL     1     -10.595   8.968   3.729  0.00  0.00    +0.000 C 
BRANCH  21  25
ATOM     22  C   UNL     1      -9.058   7.317   4.985  0.00  0.00    +0.000 A 
ATOM     23  C   UNL     1      -8.935   6.034   5.895  0.00  0.00    +0.000 A 
ATOM     24  C   UNL     1      -7.780   8.120   4.500  0.00  0.00    +0.000 C 
ATOM     25  C   UNL     1     -10.455   7.794   4.533  0.00  0.00    +0.000 A 
ATOM     26  C   UNL     1      -7.653   5.398   6.481  0.00  0.00    +0.000 C 
ATOM     27  C   UNL     1      -6.639   7.396   5.069  0.00  0.00    +0.000 C 
ATOM     28  C   UNL     1      -6.551   6.178   5.950  0.00  0.00    +0.000 C 
ATOM     29  C   UNL     1     -10.218   5.451   6.113  0.00  0.00    +0.000 A 
ATOM     30  C   UNL     1     -11.708   7.070   4.883  0.00  0.00    +0.000 A 
ATOM     31  C   UNL     1      -7.816   9.555   5.080  0.00  0.00    +0.000 C 
ATOM     32  C   UNL     1      -7.687   8.083   2.960  0.00  0.00    +0.000 C 
ATOM     33  C   UNL     1     -11.511   6.008   5.597  0.00  0.00    +0.000 A 
ATOM     34  C   UNL     1      -7.694   5.366   8.002  0.00  0.00    +0.000 C 
ATOM     35  C   UNL     1     -13.108   7.534   4.602  0.00  0.00    +0.000 C 
BRANCH  26  36
ATOM     36  O   UNL     1      -7.545   4.069   6.042  0.00  0.00    +0.000 OA
ATOM     37  H   UNL     1      -8.480   3.796   6.044  0.00  0.00    +0.000 HD
ENDBRANCH  26  36
ENDBRANCH  21  25
ENDBRANCH   3  20
TORSDOF 5
ENDMDL
