MODEL 1
REMARK VINA RESULT:      -5.1      0.000      0.000
REMARK  Name = 442793_6gingerol.pdbqt.pdb
REMARK  7 active torsions:
REMARK  status: ('A' for Active; 'I' for Inactive)
REMARK    1  A    between atoms: C_1  and  C_3
REMARK    2  A    between atoms: C_5  and  O_6
REMARK    3  A    between atoms: C_5  and  C_8
REMARK    4  A    between atoms: C_9  and  C_10
REMARK    5  A    between atoms: C_13  and  C_14
REMARK    6  A    between atoms: C_17  and  O_20
REMARK    7  A    between atoms: C_19  and  O_22
REMARK                            x       y       z     vdW  Elec       q    Type
REMARK                         _______ _______ _______ _____ _____    ______ ____
ROOT
ATOM      1  C   UNL     1      -2.987 -15.044  18.306  0.00  0.00    +0.000 C 
ATOM      2  C   UNL     1      -1.874 -14.102  18.783  0.00  0.00    +0.000 C 
ENDROOT
BRANCH   2   3
ATOM      3  C   UNL     1      -0.840 -13.230  19.227  0.00  0.00    +0.000 A 
ATOM      4  C   UNL     1      -0.052 -12.557  18.295  0.00  0.00    +0.000 A 
ATOM      5  C   UNL     1      -0.618 -13.053  20.590  0.00  0.00    +0.000 A 
ATOM      6  C   UNL     1       0.968 -11.698  18.715  0.00  0.00    +0.000 A 
ATOM      7  C   UNL     1       0.394 -12.200  21.022  0.00  0.00    +0.000 A 
ATOM      8  C   UNL     1       1.180 -11.529  20.086  0.00  0.00    +0.000 A 
BRANCH   6   9
ATOM      9  O   UNL     1       1.790 -10.998  17.865  0.00  0.00    +0.000 OA
ATOM     10  C   UNL     1       2.004 -11.585  16.609  0.00  0.00    +0.000 C 
ENDBRANCH   6   9
BRANCH   8  11
ATOM     11  O   UNL     1       2.173 -10.693  20.517  0.00  0.00    +0.000 OA
ATOM     12  H   UNL     1       2.998 -10.922  20.051  0.00  0.00    +0.000 HD
ENDBRANCH   8  11
ENDBRANCH   2   3
BRANCH   1  14
ATOM     13  O   UNL     1      -4.073 -16.293  16.691  0.00  0.00    +0.000 OA
ATOM     14  C   UNL     1      -4.030 -15.931  17.857  0.00  0.00    +0.000 C 
ATOM     15  C   UNL     1      -5.022 -16.384  18.792  0.00  0.00    +0.000 C 
ATOM     16  C   UNL     1      -6.001 -16.831  19.706  0.00  0.00    +0.000 C 
BRANCH  16  17
ATOM     17  O   UNL     1      -5.764 -16.614  21.042  0.00  0.00    +0.000 OA
ATOM     18  H   UNL     1      -5.696 -17.448  21.538  0.00  0.00    +0.000 HD
ENDBRANCH  16  17
BRANCH  16  19
ATOM     19  C   UNL     1      -7.198 -17.482  19.318  0.00  0.00    +0.000 C 
ATOM     20  C   UNL     1      -8.490 -18.193  18.903  0.00  0.00    +0.000 C 
BRANCH  20  21
ATOM     21  C   UNL     1      -9.779 -18.910  18.489  0.00  0.00    +0.000 C 
ATOM     22  C   UNL     1     -11.067 -19.628  18.073  0.00  0.00    +0.000 C 
ATOM     23  C   UNL     1     -12.351 -20.350  17.653  0.00  0.00    +0.000 C 
ENDBRANCH  20  21
ENDBRANCH  16  19
ENDBRANCH   1  14
TORSDOF 7
ENDMDL
MODEL 2
REMARK VINA RESULT:      -5.0      9.603     17.032
REMARK  Name = 442793_6gingerol.pdbqt.pdb
REMARK  7 active torsions:
REMARK  status: ('A' for Active; 'I' for Inactive)
REMARK    1  A    between atoms: C_1  and  C_3
REMARK    2  A    between atoms: C_5  and  O_6
REMARK    3  A    between atoms: C_5  and  C_8
REMARK    4  A    between atoms: C_9  and  C_10
REMARK    5  A    between atoms: C_13  and  C_14
REMARK    6  A    between atoms: C_17  and  O_20
REMARK    7  A    between atoms: C_19  and  O_22
REMARK                            x       y       z     vdW  Elec       q    Type
REMARK                         _______ _______ _______ _____ _____    ______ ____
ROOT
ATOM      1  C   UNL     1       5.819  -8.102  10.294  0.00  0.00    +0.000 C 
ATOM      2  C   UNL     1       5.543  -9.430  11.011  0.00  0.00    +0.000 C 
ENDROOT
BRANCH   2   3
ATOM      3  C   UNL     1       5.285 -10.661  11.678  0.00  0.00    +0.000 A 
ATOM      4  C   UNL     1       4.058 -10.865  12.307  0.00  0.00    +0.000 A 
ATOM      5  C   UNL     1       6.257 -11.657  11.698  0.00  0.00    +0.000 A 
ATOM      6  C   UNL     1       3.789 -12.068  12.966  0.00  0.00    +0.000 A 
ATOM      7  C   UNL     1       6.003 -12.861  12.351  0.00  0.00    +0.000 A 
ATOM      8  C   UNL     1       4.775 -13.060  12.980  0.00  0.00    +0.000 A 
BRANCH   6   9
ATOM      9  O   UNL     1       2.610 -12.351  13.611  0.00  0.00    +0.000 OA
ATOM     10  C   UNL     1       2.448 -11.749  14.868  0.00  0.00    +0.000 C 
ENDBRANCH   6   9
BRANCH   8  11
ATOM     11  O   UNL     1       4.531 -14.244  13.619  0.00  0.00    +0.000 OA
ATOM     12  H   UNL     1       5.293 -14.837  13.478  0.00  0.00    +0.000 HD
ENDBRANCH   8  11
ENDBRANCH   2   3
BRANCH   1  14
ATOM     13  O   UNL     1       6.410  -6.845   8.446  0.00  0.00    +0.000 OA
ATOM     14  C   UNL     1       6.075  -6.854   9.620  0.00  0.00    +0.000 C 
ATOM     15  C   UNL     1       5.935  -5.620  10.342  0.00  0.00    +0.000 C 
ATOM     16  C   UNL     1       5.802  -4.404  11.047  0.00  0.00    +0.000 C 
BRANCH  16  17
ATOM     17  O   UNL     1       5.177  -4.448  12.270  0.00  0.00    +0.000 OA
ATOM     18  H   UNL     1       4.228  -4.647  12.184  0.00  0.00    +0.000 HD
ENDBRANCH  16  17
BRANCH  16  19
ATOM     19  C   UNL     1       6.276  -3.160  10.563  0.00  0.00    +0.000 C 
ATOM     20  C   UNL     1       6.787  -1.810  10.049  0.00  0.00    +0.000 C 
BRANCH  20  21
ATOM     21  C   UNL     1       7.297  -0.458   9.540  0.00  0.00    +0.000 C 
ATOM     22  C   UNL     1       7.808   0.893   9.030  0.00  0.00    +0.000 C 
ATOM     23  C   UNL     1       8.320   2.241   8.513  0.00  0.00    +0.000 C 
ENDBRANCH  20  21
ENDBRANCH  16  19
ENDBRANCH   1  14
TORSDOF 7
ENDMDL
MODEL 3
REMARK VINA RESULT:      -5.0     11.286     17.174
REMARK  Name = 442793_6gingerol.pdbqt.pdb
REMARK  7 active torsions:
REMARK  status: ('A' for Active; 'I' for Inactive)
REMARK    1  A    between atoms: C_1  and  C_3
REMARK    2  A    between atoms: C_5  and  O_6
REMARK    3  A    between atoms: C_5  and  C_8
REMARK    4  A    between atoms: C_9  and  C_10
REMARK    5  A    between atoms: C_13  and  C_14
REMARK    6  A    between atoms: C_17  and  O_20
REMARK    7  A    between atoms: C_19  and  O_22
REMARK                            x       y       z     vdW  Elec       q    Type
REMARK                         _______ _______ _______ _____ _____    ______ ____
ROOT
ATOM      1  C   UNL     1       5.830  -7.197  11.994  0.00  0.00    +0.000 C 
ATOM      2  C   UNL     1       5.298  -8.636  12.002  0.00  0.00    +0.000 C 
ENDROOT
BRANCH   2   3
ATOM      3  C   UNL     1       4.803  -9.971  12.009  0.00  0.00    +0.000 A 
ATOM      4  C   UNL     1       5.689 -11.041  11.900  0.00  0.00    +0.000 A 
ATOM      5  C   UNL     1       3.435 -10.203  12.125  0.00  0.00    +0.000 A 
ATOM      6  C   UNL     1       5.218 -12.357  11.905  0.00  0.00    +0.000 A 
ATOM      7  C   UNL     1       2.951 -11.509  12.132  0.00  0.00    +0.000 A 
ATOM      8  C   UNL     1       3.842 -12.576  12.022  0.00  0.00    +0.000 A 
BRANCH   6   9
ATOM      9  O   UNL     1       6.019 -13.467  11.801  0.00  0.00    +0.000 OA
ATOM     10  C   UNL     1       7.304 -13.241  11.284  0.00  0.00    +0.000 C 
ENDBRANCH   6   9
BRANCH   8  11
ATOM     11  O   UNL     1       3.360 -13.856  12.029  0.00  0.00    +0.000 OA
ATOM     12  H   UNL     1       4.115 -14.474  12.028  0.00  0.00    +0.000 HD
ENDBRANCH   8  11
ENDBRANCH   2   3
BRANCH   1  14
ATOM     13  O   UNL     1       7.052  -5.448  12.884  0.00  0.00    +0.000 OA
ATOM     14  C   UNL     1       6.326  -5.844  11.985  0.00  0.00    +0.000 C 
ATOM     15  C   UNL     1       5.959  -4.964  10.911  0.00  0.00    +0.000 C 
ATOM     16  C   UNL     1       5.599  -4.093   9.859  0.00  0.00    +0.000 C 
BRANCH  16  17
ATOM     17  O   UNL     1       5.007  -4.651   8.752  0.00  0.00    +0.000 OA
ATOM     18  H   UNL     1       5.083  -5.621   8.751  0.00  0.00    +0.000 HD
ENDBRANCH  16  17
BRANCH  16  19
ATOM     19  C   UNL     1       5.813  -2.694   9.891  0.00  0.00    +0.000 C 
ATOM     20  C   UNL     1       6.044  -1.179   9.936  0.00  0.00    +0.000 C 
BRANCH  20  21
ATOM     21  C   UNL     1       6.273   0.334   9.986  0.00  0.00    +0.000 C 
ATOM     22  C   UNL     1       6.503   1.848  10.038  0.00  0.00    +0.000 C 
ATOM     23  C   UNL     1       6.735   3.361  10.098  0.00  0.00    +0.000 C 
ENDBRANCH  20  21
ENDBRANCH  16  19
ENDBRANCH   1  14
TORSDOF 7
ENDMDL
MODEL 4
REMARK VINA RESULT:      -4.9      0.785      2.058
REMARK  Name = 442793_6gingerol.pdbqt.pdb
REMARK  7 active torsions:
REMARK  status: ('A' for Active; 'I' for Inactive)
REMARK    1  A    between atoms: C_1  and  C_3
REMARK    2  A    between atoms: C_5  and  O_6
REMARK    3  A    between atoms: C_5  and  C_8
REMARK    4  A    between atoms: C_9  and  C_10
REMARK    5  A    between atoms: C_13  and  C_14
REMARK    6  A    between atoms: C_17  and  O_20
REMARK    7  A    between atoms: C_19  and  O_22
REMARK                            x       y       z     vdW  Elec       q    Type
REMARK                         _______ _______ _______ _____ _____    ______ ____
ROOT
ATOM      1  C   UNL     1      -3.029 -15.089  18.284  0.00  0.00    +0.000 C 
ATOM      2  C   UNL     1      -1.918 -14.140  18.750  0.00  0.00    +0.000 C 
ENDROOT
BRANCH   2   3
ATOM      3  C   UNL     1      -0.884 -13.261  19.183  0.00  0.00    +0.000 A 
ATOM      4  C   UNL     1      -0.581 -13.161  20.539  0.00  0.00    +0.000 A 
ATOM      5  C   UNL     1      -0.182 -12.504  18.249  0.00  0.00    +0.000 A 
ATOM      6  C   UNL     1       0.430 -12.302  20.979  0.00  0.00    +0.000 A 
ATOM      7  C   UNL     1       0.828 -11.644  18.674  0.00  0.00    +0.000 A 
ATOM      8  C   UNL     1       1.128 -11.547  20.032  0.00  0.00    +0.000 A 
BRANCH   6   9
ATOM      9  O   UNL     1       0.793 -12.142  22.294  0.00  0.00    +0.000 OA
ATOM     10  C   UNL     1       1.261 -13.297  22.938  0.00  0.00    +0.000 C 
ENDBRANCH   6   9
BRANCH   8  11
ATOM     11  O   UNL     1       2.121 -10.701  20.442  0.00  0.00    +0.000 OA
ATOM     12  H   UNL     1       2.213  -9.985  19.785  0.00  0.00    +0.000 HD
ENDBRANCH   8  11
ENDBRANCH   2   3
BRANCH   1  14
ATOM     13  O   UNL     1      -4.106 -16.366  16.686  0.00  0.00    +0.000 OA
ATOM     14  C   UNL     1      -4.071 -15.983  17.845  0.00  0.00    +0.000 C 
ATOM     15  C   UNL     1      -5.069 -16.418  18.781  0.00  0.00    +0.000 C 
ATOM     16  C   UNL     1      -6.055 -16.847  19.697  0.00  0.00    +0.000 C 
BRANCH  16  17
ATOM     17  O   UNL     1      -5.827 -16.606  21.030  0.00  0.00    +0.000 OA
ATOM     18  H   UNL     1      -5.181 -17.229  21.405  0.00  0.00    +0.000 HD
ENDBRANCH  16  17
BRANCH  16  19
ATOM     19  C   UNL     1      -7.250 -17.502  19.313  0.00  0.00    +0.000 C 
ATOM     20  C   UNL     1      -8.539 -18.218  18.893  0.00  0.00    +0.000 C 
BRANCH  20  21
ATOM     21  C   UNL     1      -9.823 -18.937  18.468  0.00  0.00    +0.000 C 
ATOM     22  C   UNL     1     -11.108 -19.656  18.045  0.00  0.00    +0.000 C 
ATOM     23  C   UNL     1     -12.394 -20.377  17.630  0.00  0.00    +0.000 C 
ENDBRANCH  20  21
ENDBRANCH  16  19
ENDBRANCH   1  14
TORSDOF 7
ENDMDL
MODEL 5
REMARK VINA RESULT:      -4.8     12.792     14.994
REMARK  Name = 442793_6gingerol.pdbqt.pdb
REMARK  7 active torsions:
REMARK  status: ('A' for Active; 'I' for Inactive)
REMARK    1  A    between atoms: C_1  and  C_3
REMARK    2  A    between atoms: C_5  and  O_6
REMARK    3  A    between atoms: C_5  and  C_8
REMARK    4  A    between atoms: C_9  and  C_10
REMARK    5  A    between atoms: C_13  and  C_14
REMARK    6  A    between atoms: C_17  and  O_20
REMARK    7  A    between atoms: C_19  and  O_22
REMARK                            x       y       z     vdW  Elec       q    Type
REMARK                         _______ _______ _______ _____ _____    ______ ____
ROOT
ATOM      1  C   UNL     1      -9.662 -15.507   5.340  0.00  0.00    +0.000 C 
ATOM      2  C   UNL     1      -8.454 -15.438   4.398  0.00  0.00    +0.000 C 
ENDROOT
BRANCH   2   3
ATOM      3  C   UNL     1      -7.333 -15.371   3.522  0.00  0.00    +0.000 A 
ATOM      4  C   UNL     1      -6.349 -16.357   3.578  0.00  0.00    +0.000 A 
ATOM      5  C   UNL     1      -7.223 -14.321   2.614  0.00  0.00    +0.000 A 
ATOM      6  C   UNL     1      -5.243 -16.305   2.725  0.00  0.00    +0.000 A 
ATOM      7  C   UNL     1      -6.126 -14.257   1.759  0.00  0.00    +0.000 A 
ATOM      8  C   UNL     1      -5.144 -15.245   1.818  0.00  0.00    +0.000 A 
BRANCH   6   9
ATOM      9  O   UNL     1      -4.229 -17.232   2.714  0.00  0.00    +0.000 OA
ATOM     10  C   UNL     1      -4.613 -18.545   2.402  0.00  0.00    +0.000 C 
ENDBRANCH   6   9
BRANCH   8  11
ATOM     11  O   UNL     1      -4.069 -15.176   0.976  0.00  0.00    +0.000 OA
ATOM     12  H   UNL     1      -3.561 -14.370   1.183  0.00  0.00    +0.000 HD
ENDBRANCH   8  11
ENDBRANCH   2   3
BRANCH   1  14
ATOM     13  O   UNL     1     -11.928 -15.407   5.789  0.00  0.00    +0.000 OA
ATOM     14  C   UNL     1     -10.799 -15.570   6.224  0.00  0.00    +0.000 C 
ATOM     15  C   UNL     1     -10.592 -15.823   7.623  0.00  0.00    +0.000 C 
ATOM     16  C   UNL     1     -10.395 -16.070   8.999  0.00  0.00    +0.000 C 
BRANCH  16  17
ATOM     17  O   UNL     1      -9.152 -16.503   9.391  0.00  0.00    +0.000 OA
ATOM     18  H   UNL     1      -8.552 -16.615   8.634  0.00  0.00    +0.000 HD
ENDBRANCH  16  17
BRANCH  16  19
ATOM     19  C   UNL     1     -11.401 -15.893   9.980  0.00  0.00    +0.000 C 
ATOM     20  C   UNL     1     -12.491 -15.712  11.042  0.00  0.00    +0.000 C 
BRANCH  20  21
ATOM     21  C   UNL     1     -13.581 -15.537  12.103  0.00  0.00    +0.000 C 
ATOM     22  C   UNL     1     -14.671 -15.361  13.166  0.00  0.00    +0.000 C 
ATOM     23  C   UNL     1     -15.756 -15.181  14.233  0.00  0.00    +0.000 C 
ENDBRANCH  20  21
ENDBRANCH  16  19
ENDBRANCH   1  14
TORSDOF 7
ENDMDL
MODEL 6
REMARK VINA RESULT:      -4.8     11.894     13.333
REMARK  Name = 442793_6gingerol.pdbqt.pdb
REMARK  7 active torsions:
REMARK  status: ('A' for Active; 'I' for Inactive)
REMARK    1  A    between atoms: C_1  and  C_3
REMARK    2  A    between atoms: C_5  and  O_6
REMARK    3  A    between atoms: C_5  and  C_8
REMARK    4  A    between atoms: C_9  and  C_10
REMARK    5  A    between atoms: C_13  and  C_14
REMARK    6  A    between atoms: C_17  and  O_20
REMARK    7  A    between atoms: C_19  and  O_22
REMARK                            x       y       z     vdW  Elec       q    Type
REMARK                         _______ _______ _______ _____ _____    ______ ____
ROOT
ATOM      1  C   UNL     1     -13.955 -15.524  12.333  0.00  0.00    +0.000 C 
ATOM      2  C   UNL     1     -12.730 -16.020  11.554  0.00  0.00    +0.000 C 
ENDROOT
BRANCH   2   3
ATOM      3  C   UNL     1     -11.594 -16.484  10.833  0.00  0.00    +0.000 A 
ATOM      4  C   UNL     1     -11.509 -17.824  10.458  0.00  0.00    +0.000 A 
ATOM      5  C   UNL     1     -10.571 -15.598  10.505  0.00  0.00    +0.000 A 
ATOM      6  C   UNL     1     -10.399 -18.294   9.751  0.00  0.00    +0.000 A 
ATOM      7  C   UNL     1      -9.460 -16.053   9.800  0.00  0.00    +0.000 A 
ATOM      8  C   UNL     1      -9.379 -17.395   9.428  0.00  0.00    +0.000 A 
BRANCH   6   9
ATOM      9  O   UNL     1     -10.235 -19.596   9.344  0.00  0.00    +0.000 OA
ATOM     10  C   UNL     1      -9.887 -20.507  10.353  0.00  0.00    +0.000 C 
ENDBRANCH   6   9
BRANCH   8  11
ATOM     11  O   UNL     1      -8.285 -17.835   8.735  0.00  0.00    +0.000 OA
ATOM     12  H   UNL     1      -8.259 -18.809   8.779  0.00  0.00    +0.000 HD
ENDBRANCH   8  11
ENDBRANCH   2   3
BRANCH   1  14
ATOM     13  O   UNL     1     -15.935 -14.344  12.523  0.00  0.00    +0.000 OA
ATOM     14  C   UNL     1     -15.107 -15.060  13.065  0.00  0.00    +0.000 C 
ATOM     15  C   UNL     1     -15.272 -15.444  14.439  0.00  0.00    +0.000 C 
ATOM     16  C   UNL     1     -15.438 -15.816  15.791  0.00  0.00    +0.000 C 
BRANCH  16  17
ATOM     17  O   UNL     1     -14.633 -16.820  16.273  0.00  0.00    +0.000 OA
ATOM     18  H   UNL     1     -14.381 -17.449  15.574  0.00  0.00    +0.000 HD
ENDBRANCH  16  17
BRANCH  16  19
ATOM     19  C   UNL     1     -16.377 -15.213  16.662  0.00  0.00    +0.000 C 
ATOM     20  C   UNL     1     -17.400 -14.557  17.596  0.00  0.00    +0.000 C 
BRANCH  20  21
ATOM     21  C   UNL     1     -18.426 -13.900  18.525  0.00  0.00    +0.000 C 
ATOM     22  C   UNL     1     -19.452 -13.241  19.453  0.00  0.00    +0.000 C 
ATOM     23  C   UNL     1     -20.480 -12.579  20.375  0.00  0.00    +0.000 C 
ENDBRANCH  20  21
ENDBRANCH  16  19
ENDBRANCH   1  14
TORSDOF 7
ENDMDL
MODEL 7
REMARK VINA RESULT:      -4.8     12.729     13.552
REMARK  Name = 442793_6gingerol.pdbqt.pdb
REMARK  7 active torsions:
REMARK  status: ('A' for Active; 'I' for Inactive)
REMARK    1  A    between atoms: C_1  and  C_3
REMARK    2  A    between atoms: C_5  and  O_6
REMARK    3  A    between atoms: C_5  and  C_8
REMARK    4  A    between atoms: C_9  and  C_10
REMARK    5  A    between atoms: C_13  and  C_14
REMARK    6  A    between atoms: C_17  and  O_20
REMARK    7  A    between atoms: C_19  and  O_22
REMARK                            x       y       z     vdW  Elec       q    Type
REMARK                         _______ _______ _______ _____ _____    ______ ____
ROOT
ATOM      1  C   UNL     1      -9.736  -7.382  26.664  0.00  0.00    +0.000 C 
ATOM      2  C   UNL     1      -9.025  -6.023  26.653  0.00  0.00    +0.000 C 
ENDROOT
BRANCH   2   3
ATOM      3  C   UNL     1      -8.362  -4.763  26.643  0.00  0.00    +0.000 A 
ATOM      4  C   UNL     1      -8.249  -4.030  27.823  0.00  0.00    +0.000 A 
ATOM      5  C   UNL     1      -7.830  -4.267  25.456  0.00  0.00    +0.000 A 
ATOM      6  C   UNL     1      -7.602  -2.791  27.830  0.00  0.00    +0.000 A 
ATOM      7  C   UNL     1      -7.183  -3.034  25.449  0.00  0.00    +0.000 A 
ATOM      8  C   UNL     1      -7.072  -2.304  26.631  0.00  0.00    +0.000 A 
BRANCH   6   9
ATOM      9  O   UNL     1      -7.447  -2.004  28.945  0.00  0.00    +0.000 OA
ATOM     10  C   UNL     1      -6.588  -2.513  29.931  0.00  0.00    +0.000 C 
ENDBRANCH   6   9
BRANCH   8  11
ATOM     11  O   UNL     1      -6.435  -1.094  26.617  0.00  0.00    +0.000 OA
ATOM     12  H   UNL     1      -6.934  -0.485  26.041  0.00  0.00    +0.000 HD
ENDBRANCH   8  11
ENDBRANCH   2   3
BRANCH   1  14
ATOM     13  O   UNL     1      -9.751  -9.694  26.684  0.00  0.00    +0.000 OA
ATOM     14  C   UNL     1     -10.402  -8.660  26.675  0.00  0.00    +0.000 C 
ATOM     15  C   UNL     1     -11.837  -8.709  26.672  0.00  0.00    +0.000 C 
ATOM     16  C   UNL     1     -13.248  -8.763  26.668  0.00  0.00    +0.000 C 
BRANCH  16  17
ATOM     17  O   UNL     1     -13.926  -7.595  26.921  0.00  0.00    +0.000 OA
ATOM     18  H   UNL     1     -13.805  -6.945  26.207  0.00  0.00    +0.000 HD
ENDBRANCH  16  17
BRANCH  16  19
ATOM     19  C   UNL     1     -13.988  -9.945  26.417  0.00  0.00    +0.000 C 
ATOM     20  C   UNL     1     -14.794 -11.221  26.152  0.00  0.00    +0.000 C 
BRANCH  20  21
ATOM     21  C   UNL     1     -15.603 -12.495  25.893  0.00  0.00    +0.000 C 
ATOM     22  C   UNL     1     -16.412 -13.770  25.632  0.00  0.00    +0.000 C 
ATOM     23  C   UNL     1     -17.218 -15.045  25.364  0.00  0.00    +0.000 C 
ENDBRANCH  20  21
ENDBRANCH  16  19
ENDBRANCH   1  14
TORSDOF 7
ENDMDL
MODEL 8
REMARK VINA RESULT:      -4.7     11.562     14.998
REMARK  Name = 442793_6gingerol.pdbqt.pdb
REMARK  7 active torsions:
REMARK  status: ('A' for Active; 'I' for Inactive)
REMARK    1  A    between atoms: C_1  and  C_3
REMARK    2  A    between atoms: C_5  and  O_6
REMARK    3  A    between atoms: C_5  and  C_8
REMARK    4  A    between atoms: C_9  and  C_10
REMARK    5  A    between atoms: C_13  and  C_14
REMARK    6  A    between atoms: C_17  and  O_20
REMARK    7  A    between atoms: C_19  and  O_22
REMARK                            x       y       z     vdW  Elec       q    Type
REMARK                         _______ _______ _______ _____ _____    ______ ____
ROOT
ATOM      1  C   UNL     1     -10.890 -16.382  10.624  0.00  0.00    +0.000 C 
ATOM      2  C   UNL     1     -11.839 -16.439  11.828  0.00  0.00    +0.000 C 
ENDROOT
BRANCH   2   3
ATOM      3  C   UNL     1     -12.721 -16.490  12.945  0.00  0.00    +0.000 A 
ATOM      4  C   UNL     1     -12.531 -17.452  13.936  0.00  0.00    +0.000 A 
ATOM      5  C   UNL     1     -13.770 -15.580  13.044  0.00  0.00    +0.000 A 
ATOM      6  C   UNL     1     -13.389 -17.516  15.037  0.00  0.00    +0.000 A 
ATOM      7  C   UNL     1     -14.632 -15.632  14.136  0.00  0.00    +0.000 A 
ATOM      8  C   UNL     1     -14.438 -16.596  15.125  0.00  0.00    +0.000 A 
BRANCH   6   9
ATOM      9  O   UNL     1     -13.275 -18.430  16.056  0.00  0.00    +0.000 OA
ATOM     10  C   UNL     1     -13.063 -19.759  15.657  0.00  0.00    +0.000 C 
ENDBRANCH   6   9
BRANCH   8  11
ATOM     11  O   UNL     1     -15.288 -16.641  16.195  0.00  0.00    +0.000 OA
ATOM     12  H   UNL     1     -15.034 -15.942  16.825  0.00  0.00    +0.000 HD
ENDBRANCH   8  11
ENDBRANCH   2   3
BRANCH   1  14
ATOM     13  O   UNL     1      -8.849 -16.720   9.592  0.00  0.00    +0.000 OA
ATOM     14  C   UNL     1     -10.001 -16.326   9.492  0.00  0.00    +0.000 C 
ATOM     15  C   UNL     1     -10.479 -15.800   8.243  0.00  0.00    +0.000 C 
ATOM     16  C   UNL     1     -10.943 -15.282   7.015  0.00  0.00    +0.000 C 
BRANCH  16  17
ATOM     17  O   UNL     1     -12.298 -15.100   6.877  0.00  0.00    +0.000 OA
ATOM     18  H   UNL     1     -12.760 -15.939   6.707  0.00  0.00    +0.000 HD
ENDBRANCH  16  17
BRANCH  16  19
ATOM     19  C   UNL     1     -10.092 -14.944   5.934  0.00  0.00    +0.000 C 
ATOM     20  C   UNL     1      -9.164 -14.582   4.770  0.00  0.00    +0.000 C 
BRANCH  20  21
ATOM     21  C   UNL     1      -8.230 -14.220   3.611  0.00  0.00    +0.000 C 
ATOM     22  C   UNL     1      -7.299 -13.858   2.450  0.00  0.00    +0.000 C 
ATOM     23  C   UNL     1      -6.373 -13.495   1.284  0.00  0.00    +0.000 C 
ENDBRANCH  20  21
ENDBRANCH  16  19
ENDBRANCH   1  14
TORSDOF 7
ENDMDL
MODEL 9
REMARK VINA RESULT:      -4.5     24.944     25.868
REMARK  Name = 442793_6gingerol.pdbqt.pdb
REMARK  7 active torsions:
REMARK  status: ('A' for Active; 'I' for Inactive)
REMARK    1  A    between atoms: C_1  and  C_3
REMARK    2  A    between atoms: C_5  and  O_6
REMARK    3  A    between atoms: C_5  and  C_8
REMARK    4  A    between atoms: C_9  and  C_10
REMARK    5  A    between atoms: C_13  and  C_14
REMARK    6  A    between atoms: C_17  and  O_20
REMARK    7  A    between atoms: C_19  and  O_22
REMARK                            x       y       z     vdW  Elec       q    Type
REMARK                         _______ _______ _______ _____ _____    ______ ____
ROOT
ATOM      1  C   UNL     1      -7.757   6.357   6.916  0.00  0.00    +0.000 C 
ATOM      2  C   UNL     1      -7.212   7.323   7.976  0.00  0.00    +0.000 C 
ENDROOT
BRANCH   2   3
ATOM      3  C   UNL     1      -6.707   8.217   8.962  0.00  0.00    +0.000 A 
ATOM      4  C   UNL     1      -7.474   8.515  10.086  0.00  0.00    +0.000 A 
ATOM      5  C   UNL     1      -5.449   8.791   8.799  0.00  0.00    +0.000 A 
ATOM      6  C   UNL     1      -6.993   9.392  11.062  0.00  0.00    +0.000 A 
ATOM      7  C   UNL     1      -4.957   9.666   9.764  0.00  0.00    +0.000 A 
ATOM      8  C   UNL     1      -5.728   9.962  10.887  0.00  0.00    +0.000 A 
BRANCH   6   9
ATOM      9  O   UNL     1      -7.682   9.740  12.199  0.00  0.00    +0.000 OA
ATOM     10  C   UNL     1      -7.898   8.703  13.118  0.00  0.00    +0.000 C 
ENDBRANCH   6   9
BRANCH   8  11
ATOM     11  O   UNL     1      -5.239  10.822  11.831  0.00  0.00    +0.000 OA
ATOM     12  H   UNL     1      -5.851  11.576  11.914  0.00  0.00    +0.000 HD
ENDBRANCH   8  11
ENDBRANCH   2   3
BRANCH   1  14
ATOM     13  O   UNL     1      -7.596   4.498   5.550  0.00  0.00    +0.000 OA
ATOM     14  C   UNL     1      -8.269   5.447   5.922  0.00  0.00    +0.000 C 
ATOM     15  C   UNL     1      -9.577   5.667   5.370  0.00  0.00    +0.000 C 
ATOM     16  C   UNL     1     -10.861   5.880   4.823  0.00  0.00    +0.000 C 
BRANCH  16  17
ATOM     17  O   UNL     1     -11.673   6.791   5.453  0.00  0.00    +0.000 OA
ATOM     18  H   UNL     1     -11.916   6.500   6.349  0.00  0.00    +0.000 HD
ENDBRANCH  16  17
BRANCH  16  19
ATOM     19  C   UNL     1     -11.343   5.211   3.671  0.00  0.00    +0.000 C 
ATOM     20  C   UNL     1     -11.859   4.480   2.426  0.00  0.00    +0.000 C 
BRANCH  20  21
ATOM     21  C   UNL     1     -12.368   3.747   1.182  0.00  0.00    +0.000 C 
ATOM     22  C   UNL     1     -12.876   3.012  -0.062  0.00  0.00    +0.000 C 
ATOM     23  C   UNL     1     -13.383   2.270  -1.303  0.00  0.00    +0.000 C 
ENDBRANCH  20  21
ENDBRANCH  16  19
ENDBRANCH   1  14
TORSDOF 7
ENDMDL
