MODEL 1
REMARK VINA RESULT:      -5.9      0.000      0.000
REMARK  Name = 44423609_SipholenoneA.pdbqt.pdb
REMARK  4 active torsions:
REMARK  status: ('A' for Active; 'I' for Inactive)
REMARK    1  A    between atoms: C_3  and  C_19
REMARK    2  A    between atoms: C_5  and  O_17
REMARK    3  A    between atoms: C_20  and  C_24
REMARK    4  A    between atoms: C_25  and  O_35
REMARK                            x       y       z     vdW  Elec       q    Type
REMARK                         _______ _______ _______ _____ _____    ______ ____
ROOT
ATOM      1  O   UNL     1     -20.844  -2.570  21.547  0.00  0.00    +0.000 OA
ATOM      2  O   UNL     1     -19.643  -4.085  18.392  0.00  0.00    +0.000 OA
ATOM      3  C   UNL     1     -18.693   0.707  22.043  0.00  0.00    +0.000 C 
ATOM      4  C   UNL     1     -19.718  -0.229  21.405  0.00  0.00    +0.000 C 
ATOM      5  C   UNL     1     -18.555   0.771  23.555  0.00  0.00    +0.000 C 
ATOM      6  C   UNL     1     -20.062  -1.582  22.155  0.00  0.00    +0.000 C 
ATOM      7  C   UNL     1     -19.210  -0.385  24.136  0.00  0.00    +0.000 C 
ATOM      8  C   UNL     1     -19.936  -1.554  23.558  0.00  0.00    +0.000 C 
ATOM      9  C   UNL     1     -19.222  -0.742  20.117  0.00  0.00    +0.000 C 
ATOM     10  C   UNL     1     -21.050   0.540  21.178  0.00  0.00    +0.000 C 
ATOM     11  C   UNL     1     -17.081   0.850  23.968  0.00  0.00    +0.000 C 
ATOM     12  C   UNL     1     -19.237  -2.002  19.278  0.00  0.00    +0.000 C 
ATOM     13  C   UNL     1     -20.200  -3.702  20.872  0.00  0.00    +0.000 C 
ATOM     14  C   UNL     1     -19.707  -3.364  19.379  0.00  0.00    +0.000 C 
ATOM     15  C   UNL     1     -21.295  -4.818  20.833  0.00  0.00    +0.000 C 
ATOM     16  C   UNL     1     -18.975  -4.220  21.714  0.00  0.00    +0.000 C 
ENDROOT
BRANCH   5  17
ATOM     17  O   UNL     1     -19.153   1.948  24.036  0.00  0.00    +0.000 OA
ATOM     18  H   UNL     1     -18.859   1.943  24.965  0.00  0.00    +0.000 HD
ENDBRANCH   5  17
BRANCH   3  19
ATOM     19  C   UNL     1     -18.048   1.705  21.229  0.00  0.00    +0.000 C 
ATOM     20  C   UNL     1     -17.375   2.771  20.360  0.00  0.00    +0.000 C 
BRANCH  20  24
ATOM     21  C   UNL     1     -14.229   4.464  19.719  0.00  0.00    +0.000 C 
ATOM     22  C   UNL     1     -15.702   4.760  20.097  0.00  0.00    +0.000 C 
ATOM     23  C   UNL     1     -13.654   4.501  18.326  0.00  0.00    +0.000 C 
ATOM     24  C   UNL     1     -16.749   3.766  19.537  0.00  0.00    +0.000 C 
ATOM     25  C   UNL     1     -12.154   4.201  18.321  0.00  0.00    +0.000 C 
ATOM     26  C   UNL     1     -13.147   4.173  20.598  0.00  0.00    +0.000 C 
ATOM     27  C   UNL     1     -11.915   4.030  19.749  0.00  0.00    +0.000 C 
ATOM     28  C   UNL     1     -14.583   4.263  17.293  0.00  0.00    +0.000 C 
ATOM     29  C   UNL     1     -17.056   3.764  18.106  0.00  0.00    +0.000 C 
ATOM     30  C   UNL     1     -15.805   4.774  21.671  0.00  0.00    +0.000 C 
ATOM     31  C   UNL     1     -16.050   6.214  19.631  0.00  0.00    +0.000 C 
ATOM     32  C   UNL     1     -16.058   3.959  17.303  0.00  0.00    +0.000 C 
ATOM     33  C   UNL     1     -11.355   5.295  17.634  0.00  0.00    +0.000 C 
ATOM     34  C   UNL     1     -18.295   3.145  17.513  0.00  0.00    +0.000 C 
BRANCH  25  35
ATOM     35  O   UNL     1     -11.895   3.002  17.633  0.00  0.00    +0.000 OA
ATOM     36  H   UNL     1     -11.161   2.645  18.162  0.00  0.00    +0.000 HD
ENDBRANCH  25  35
ENDBRANCH  20  24
ENDBRANCH   3  19
TORSDOF 4
ENDMDL
MODEL 2
REMARK VINA RESULT:      -5.6     10.570     14.980
REMARK  Name = 44423609_SipholenoneA.pdbqt.pdb
REMARK  4 active torsions:
REMARK  status: ('A' for Active; 'I' for Inactive)
REMARK    1  A    between atoms: C_3  and  C_19
REMARK    2  A    between atoms: C_5  and  O_17
REMARK    3  A    between atoms: C_20  and  C_24
REMARK    4  A    between atoms: C_25  and  O_35
REMARK                            x       y       z     vdW  Elec       q    Type
REMARK                         _______ _______ _______ _____ _____    ______ ____
ROOT
ATOM      1  O   UNL     1      -6.530   1.840  28.737  0.00  0.00    +0.000 OA
ATOM      2  O   UNL     1      -3.175   0.731  27.638  0.00  0.00    +0.000 OA
ATOM      3  C   UNL     1      -8.971  -1.151  27.895  0.00  0.00    +0.000 C 
ATOM      4  C   UNL     1      -7.838  -0.405  28.598  0.00  0.00    +0.000 C 
ATOM      5  C   UNL     1     -10.252  -0.422  27.527  0.00  0.00    +0.000 C 
ATOM      6  C   UNL     1      -7.650   1.136  28.280  0.00  0.00    +0.000 C 
ATOM      7  C   UNL     1     -10.016   1.007  27.596  0.00  0.00    +0.000 C 
ATOM      8  C   UNL     1      -8.821   1.837  27.929  0.00  0.00    +0.000 C 
ATOM      9  C   UNL     1      -6.529  -0.937  28.183  0.00  0.00    +0.000 C 
ATOM     10  C   UNL     1      -7.995  -0.557  30.138  0.00  0.00    +0.000 C 
ATOM     11  C   UNL     1     -10.743  -0.845  26.138  0.00  0.00    +0.000 C 
ATOM     12  C   UNL     1      -5.122  -0.470  27.880  0.00  0.00    +0.000 C 
ATOM     13  C   UNL     1      -5.378   2.039  27.851  0.00  0.00    +0.000 C 
ATOM     14  C   UNL     1      -4.390   0.772  27.788  0.00  0.00    +0.000 C 
ATOM     15  C   UNL     1      -4.627   3.274  28.445  0.00  0.00    +0.000 C 
ATOM     16  C   UNL     1      -5.859   2.388  26.393  0.00  0.00    +0.000 C 
ENDROOT
BRANCH   5  17
ATOM     17  O   UNL     1     -11.275  -0.779  28.422  0.00  0.00    +0.000 OA
ATOM     18  H   UNL     1     -12.050  -0.780  27.832  0.00  0.00    +0.000 HD
ENDBRANCH   5  17
BRANCH   3  19
ATOM     19  C   UNL     1      -8.925  -2.589  27.819  0.00  0.00    +0.000 C 
ATOM     20  C   UNL     1      -8.880  -4.116  27.725  0.00  0.00    +0.000 C 
BRANCH  20  24
ATOM     21  C   UNL     1     -10.855  -7.115  28.255  0.00  0.00    +0.000 C 
ATOM     22  C   UNL     1      -9.523  -6.457  28.691  0.00  0.00    +0.000 C 
ATOM     23  C   UNL     1     -11.016  -8.127  27.149  0.00  0.00    +0.000 C 
ATOM     24  C   UNL     1      -8.848  -5.548  27.635  0.00  0.00    +0.000 C 
ATOM     25  C   UNL     1     -12.464  -8.601  27.017  0.00  0.00    +0.000 C 
ATOM     26  C   UNL     1     -12.142  -6.948  28.842  0.00  0.00    +0.000 C 
ATOM     27  C   UNL     1     -13.088  -7.849  28.098  0.00  0.00    +0.000 C 
ATOM     28  C   UNL     1     -10.035  -8.063  26.138  0.00  0.00    +0.000 C 
ATOM     29  C   UNL     1      -8.231  -6.147  26.450  0.00  0.00    +0.000 C 
ATOM     30  C   UNL     1      -9.805  -5.606  29.989  0.00  0.00    +0.000 C 
ATOM     31  C   UNL     1      -8.531  -7.589  29.128  0.00  0.00    +0.000 C 
ATOM     32  C   UNL     1      -8.848  -7.161  25.931  0.00  0.00    +0.000 C 
ATOM     33  C   UNL     1     -12.579 -10.114  27.099  0.00  0.00    +0.000 C 
ATOM     34  C   UNL     1      -7.230  -5.438  25.575  0.00  0.00    +0.000 C 
BRANCH  25  35
ATOM     35  O   UNL     1     -12.998  -8.211  25.775  0.00  0.00    +0.000 OA
ATOM     36  H   UNL     1     -12.651  -8.915  25.200  0.00  0.00    +0.000 HD
ENDBRANCH  25  35
ENDBRANCH  20  24
ENDBRANCH   3  19
TORSDOF 4
ENDMDL
MODEL 3
REMARK VINA RESULT:      -5.5     26.165     29.356
REMARK  Name = 44423609_SipholenoneA.pdbqt.pdb
REMARK  4 active torsions:
REMARK  status: ('A' for Active; 'I' for Inactive)
REMARK    1  A    between atoms: C_3  and  C_19
REMARK    2  A    between atoms: C_5  and  O_17
REMARK    3  A    between atoms: C_20  and  C_24
REMARK    4  A    between atoms: C_25  and  O_35
REMARK                            x       y       z     vdW  Elec       q    Type
REMARK                         _______ _______ _______ _____ _____    ______ ____
ROOT
ATOM      1  O   UNL     1      -4.054  -7.456  -3.127  0.00  0.00    +0.000 OA
ATOM      2  O   UNL     1      -0.936  -9.279  -3.934  0.00  0.00    +0.000 OA
ATOM      3  C   UNL     1      -3.083  -3.626  -3.135  0.00  0.00    +0.000 C 
ATOM      4  C   UNL     1      -3.340  -5.021  -3.702  0.00  0.00    +0.000 C 
ATOM      5  C   UNL     1      -3.982  -3.068  -2.044  0.00  0.00    +0.000 C 
ATOM      6  C   UNL     1      -3.963  -6.115  -2.739  0.00  0.00    +0.000 C 
ATOM      7  C   UNL     1      -4.746  -4.156  -1.463  0.00  0.00    +0.000 C 
ATOM      8  C   UNL     1      -4.797  -5.625  -1.714  0.00  0.00    +0.000 C 
ATOM      9  C   UNL     1      -2.072  -5.671  -4.077  0.00  0.00    +0.000 C 
ATOM     10  C   UNL     1      -4.256  -4.911  -4.953  0.00  0.00    +0.000 C 
ATOM     11  C   UNL     1      -3.162  -2.326  -0.984  0.00  0.00    +0.000 C 
ATOM     12  C   UNL     1      -1.412  -7.033  -4.075  0.00  0.00    +0.000 C 
ATOM     13  C   UNL     1      -3.022  -8.412  -2.708  0.00  0.00    +0.000 C 
ATOM     14  C   UNL     1      -1.702  -8.375  -3.625  0.00  0.00    +0.000 C 
ATOM     15  C   UNL     1      -3.709  -9.812  -2.815  0.00  0.00    +0.000 C 
ATOM     16  C   UNL     1      -2.614  -8.158  -1.209  0.00  0.00    +0.000 C 
ENDROOT
BRANCH   5  17
ATOM     17  O   UNL     1      -4.856  -2.114  -2.594  0.00  0.00    +0.000 OA
ATOM     18  H   UNL     1      -4.625  -1.325  -2.072  0.00  0.00    +0.000 HD
ENDBRANCH   5  17
BRANCH   3  19
ATOM     19  C   UNL     1      -2.159  -2.751  -3.810  0.00  0.00    +0.000 C 
ATOM     20  C   UNL     1      -1.186  -1.819  -4.535  0.00  0.00    +0.000 C 
BRANCH  20  24
ATOM     21  C   UNL     1      -0.616   1.634  -5.498  0.00  0.00    +0.000 C 
ATOM     22  C   UNL     1      -0.763   0.220  -6.113  0.00  0.00    +0.000 C 
ATOM     23  C   UNL     1       0.685   2.315  -5.159  0.00  0.00    +0.000 C 
ATOM     24  C   UNL     1      -0.275  -0.950  -5.224  0.00  0.00    +0.000 C 
ATOM     25  C   UNL     1       0.464   3.725  -4.609  0.00  0.00    +0.000 C 
ATOM     26  C   UNL     1      -1.652   2.568  -5.205  0.00  0.00    +0.000 C 
ATOM     27  C   UNL     1      -0.989   3.813  -4.685  0.00  0.00    +0.000 C 
ATOM     28  C   UNL     1       1.759   1.443  -4.885  0.00  0.00    +0.000 C 
ATOM     29  C   UNL     1       1.158  -1.136  -4.992  0.00  0.00    +0.000 C 
ATOM     30  C   UNL     1      -2.286  -0.003  -6.456  0.00  0.00    +0.000 C 
ATOM     31  C   UNL     1      -0.006   0.195  -7.484  0.00  0.00    +0.000 C 
ATOM     32  C   UNL     1       1.863  -0.058  -4.848  0.00  0.00    +0.000 C 
ATOM     33  C   UNL     1       1.240   4.771  -5.389  0.00  0.00    +0.000 C 
ATOM     34  C   UNL     1       1.768  -2.420  -4.492  0.00  0.00    +0.000 C 
BRANCH  25  35
ATOM     35  O   UNL     1       0.891   3.804  -3.271  0.00  0.00    +0.000 OA
ATOM     36  H   UNL     1       0.284   4.482  -2.927  0.00  0.00    +0.000 HD
ENDBRANCH  25  35
ENDBRANCH  20  24
ENDBRANCH   3  19
TORSDOF 4
ENDMDL
MODEL 4
REMARK VINA RESULT:      -5.1     26.861     30.507
REMARK  Name = 44423609_SipholenoneA.pdbqt.pdb
REMARK  4 active torsions:
REMARK  status: ('A' for Active; 'I' for Inactive)
REMARK    1  A    between atoms: C_3  and  C_19
REMARK    2  A    between atoms: C_5  and  O_17
REMARK    3  A    between atoms: C_20  and  C_24
REMARK    4  A    between atoms: C_25  and  O_35
REMARK                            x       y       z     vdW  Elec       q    Type
REMARK                         _______ _______ _______ _____ _____    ______ ____
ROOT
ATOM      1  O   UNL     1      -1.667 -10.397  -8.251  0.00  0.00    +0.000 OA
ATOM      2  O   UNL     1       0.925  -8.345  -9.914  0.00  0.00    +0.000 OA
ATOM      3  C   UNL     1      -2.658  -8.416  -4.979  0.00  0.00    +0.000 C 
ATOM      4  C   UNL     1      -2.538  -8.708  -6.474  0.00  0.00    +0.000 C 
ATOM      5  C   UNL     1      -2.954  -9.543  -4.003  0.00  0.00    +0.000 C 
ATOM      6  C   UNL     1      -1.980 -10.125  -6.915  0.00  0.00    +0.000 C 
ATOM      7  C   UNL     1      -2.706 -10.811  -4.661  0.00  0.00    +0.000 C 
ATOM      8  C   UNL     1      -2.234 -11.187  -6.025  0.00  0.00    +0.000 C 
ATOM      9  C   UNL     1      -1.551  -7.813  -7.100  0.00  0.00    +0.000 C 
ATOM     10  C   UNL     1      -3.922  -8.510  -7.154  0.00  0.00    +0.000 C 
ATOM     11  C   UNL     1      -2.117  -9.396  -2.728  0.00  0.00    +0.000 C 
ATOM     12  C   UNL     1      -0.479  -7.821  -8.169  0.00  0.00    +0.000 C 
ATOM     13  C   UNL     1      -0.281 -10.275  -8.719  0.00  0.00    +0.000 C 
ATOM     14  C   UNL     1       0.148  -8.764  -9.066  0.00  0.00    +0.000 C 
ATOM     15  C   UNL     1      -0.216 -11.159 -10.007  0.00  0.00    +0.000 C 
ATOM     16  C   UNL     1       0.714 -10.859  -7.648  0.00  0.00    +0.000 C 
ENDROOT
BRANCH   5  17
ATOM     17  O   UNL     1      -4.297  -9.474  -3.593  0.00  0.00    +0.000 OA
ATOM     18  H   UNL     1      -4.662 -10.276  -4.008  0.00  0.00    +0.000 HD
ENDBRANCH   5  17
BRANCH   3  19
ATOM     19  C   UNL     1      -2.749  -7.049  -4.534  0.00  0.00    +0.000 C 
ATOM     20  C   UNL     1      -2.839  -5.599  -4.051  0.00  0.00    +0.000 C 
BRANCH  20  24
ATOM     21  C   UNL     1      -5.054  -3.199  -2.468  0.00  0.00    +0.000 C 
ATOM     22  C   UNL     1      -4.215  -3.399  -3.754  0.00  0.00    +0.000 C 
ATOM     23  C   UNL     1      -4.611  -2.451  -1.236  0.00  0.00    +0.000 C 
ATOM     24  C   UNL     1      -2.928  -4.244  -3.590  0.00  0.00    +0.000 C 
ATOM     25  C   UNL     1      -5.707  -2.411  -0.170  0.00  0.00    +0.000 C 
ATOM     26  C   UNL     1      -6.395  -3.615  -2.230  0.00  0.00    +0.000 C 
ATOM     27  C   UNL     1      -6.773  -3.127  -0.859  0.00  0.00    +0.000 C 
ATOM     28  C   UNL     1      -3.216  -2.404  -1.039  0.00  0.00    +0.000 C 
ATOM     29  C   UNL     1      -1.785  -3.691  -2.861  0.00  0.00    +0.000 C 
ATOM     30  C   UNL     1      -5.139  -4.084  -4.833  0.00  0.00    +0.000 C 
ATOM     31  C   UNL     1      -3.853  -1.989  -4.333  0.00  0.00    +0.000 C 
ATOM     32  C   UNL     1      -2.060  -2.973  -1.818  0.00  0.00    +0.000 C 
ATOM     33  C   UNL     1      -6.027  -0.992   0.267  0.00  0.00    +0.000 C 
ATOM     34  C   UNL     1      -0.382  -4.230  -2.965  0.00  0.00    +0.000 C 
BRANCH  25  35
ATOM     35  O   UNL     1      -5.303  -3.118   0.978  0.00  0.00    +0.000 OA
ATOM     36  H   UNL     1      -4.361  -2.875   1.017  0.00  0.00    +0.000 HD
ENDBRANCH  25  35
ENDBRANCH  20  24
ENDBRANCH   3  19
TORSDOF 4
ENDMDL
MODEL 5
REMARK VINA RESULT:      -5.1     13.764     17.142
REMARK  Name = 44423609_SipholenoneA.pdbqt.pdb
REMARK  4 active torsions:
REMARK  status: ('A' for Active; 'I' for Inactive)
REMARK    1  A    between atoms: C_3  and  C_19
REMARK    2  A    between atoms: C_5  and  O_17
REMARK    3  A    between atoms: C_20  and  C_24
REMARK    4  A    between atoms: C_25  and  O_35
REMARK                            x       y       z     vdW  Elec       q    Type
REMARK                         _______ _______ _______ _____ _____    ______ ____
ROOT
ATOM      1  O   UNL     1      -7.496   8.207   6.422  0.00  0.00    +0.000 OA
ATOM      2  O   UNL     1      -7.945   4.643   7.310  0.00  0.00    +0.000 OA
ATOM      3  C   UNL     1      -7.538  10.173   9.849  0.00  0.00    +0.000 C 
ATOM      4  C   UNL     1      -7.022   9.222   8.771  0.00  0.00    +0.000 C 
ATOM      5  C   UNL     1      -8.209  11.479   9.458  0.00  0.00    +0.000 C 
ATOM      6  C   UNL     1      -7.791   9.178   7.385  0.00  0.00    +0.000 C 
ATOM      7  C   UNL     1      -8.572  11.419   8.055  0.00  0.00    +0.000 C 
ATOM      8  C   UNL     1      -8.428  10.374   7.000  0.00  0.00    +0.000 C 
ATOM      9  C   UNL     1      -7.154   7.822   9.207  0.00  0.00    +0.000 C 
ATOM     10  C   UNL     1      -5.528   9.535   8.476  0.00  0.00    +0.000 C 
ATOM     11  C   UNL     1      -9.428  11.756  10.344  0.00  0.00    +0.000 C 
ATOM     12  C   UNL     1      -7.484   6.452   8.653  0.00  0.00    +0.000 C 
ATOM     13  C   UNL     1      -8.313   6.991   6.333  0.00  0.00    +0.000 C 
ATOM     14  C   UNL     1      -7.905   5.863   7.404  0.00  0.00    +0.000 C 
ATOM     15  C   UNL     1      -8.081   6.461   4.881  0.00  0.00    +0.000 C 
ATOM     16  C   UNL     1      -9.838   7.340   6.511  0.00  0.00    +0.000 C 
ENDROOT
BRANCH   5  17
ATOM     17  O   UNL     1      -7.324  12.549   9.675  0.00  0.00    +0.000 OA
ATOM     18  H   UNL     1      -6.582  12.095  10.112  0.00  0.00    +0.000 HD
ENDBRANCH   5  17
BRANCH   3  19
ATOM     19  C   UNL     1      -7.158   9.953  11.221  0.00  0.00    +0.000 C 
ATOM     20  C   UNL     1      -6.750   9.731  12.680  0.00  0.00    +0.000 C 
BRANCH  20  24
ATOM     21  C   UNL     1      -5.377  11.393  15.600  0.00  0.00    +0.000 C 
ATOM     22  C   UNL     1      -5.103  10.198  14.653  0.00  0.00    +0.000 C 
ATOM     23  C   UNL     1      -6.092  11.319  16.925  0.00  0.00    +0.000 C 
ATOM     24  C   UNL     1      -6.358   9.525  14.045  0.00  0.00    +0.000 C 
ATOM     25  C   UNL     1      -6.147  12.681  17.619  0.00  0.00    +0.000 C 
ATOM     26  C   UNL     1      -4.959  12.745  15.439  0.00  0.00    +0.000 C 
ATOM     27  C   UNL     1      -5.417  13.497  16.657  0.00  0.00    +0.000 C 
ATOM     28  C   UNL     1      -7.005  10.252  17.050  0.00  0.00    +0.000 C 
ATOM     29  C   UNL     1      -7.237   8.723  14.897  0.00  0.00    +0.000 C 
ATOM     30  C   UNL     1      -4.182  10.711  13.481  0.00  0.00    +0.000 C 
ATOM     31  C   UNL     1      -4.256   9.134  15.431  0.00  0.00    +0.000 C 
ATOM     32  C   UNL     1      -7.427   9.161  16.102  0.00  0.00    +0.000 C 
ATOM     33  C   UNL     1      -5.575  12.630  19.025  0.00  0.00    +0.000 C 
ATOM     34  C   UNL     1      -8.235   7.724  14.371  0.00  0.00    +0.000 C 
BRANCH  25  35
ATOM     35  O   UNL     1      -7.478  13.124  17.728  0.00  0.00    +0.000 OA
ATOM     36  H   UNL     1      -7.776  12.611  18.500  0.00  0.00    +0.000 HD
ENDBRANCH  25  35
ENDBRANCH  20  24
ENDBRANCH   3  19
TORSDOF 4
ENDMDL
MODEL 6
REMARK VINA RESULT:      -5.1     15.748     19.467
REMARK  Name = 44423609_SipholenoneA.pdbqt.pdb
REMARK  4 active torsions:
REMARK  status: ('A' for Active; 'I' for Inactive)
REMARK    1  A    between atoms: C_3  and  C_19
REMARK    2  A    between atoms: C_5  and  O_17
REMARK    3  A    between atoms: C_20  and  C_24
REMARK    4  A    between atoms: C_25  and  O_35
REMARK                            x       y       z     vdW  Elec       q    Type
REMARK                         _______ _______ _______ _____ _____    ______ ____
ROOT
ATOM      1  O   UNL     1     -11.579   7.451   6.709  0.00  0.00    +0.000 OA
ATOM      2  O   UNL     1      -9.538   6.073   3.947  0.00  0.00    +0.000 OA
ATOM      3  C   UNL     1     -15.130   8.193   5.143  0.00  0.00    +0.000 C 
ATOM      4  C   UNL     1     -13.948   7.360   5.636  0.00  0.00    +0.000 C 
ATOM      5  C   UNL     1     -15.562   9.433   5.907  0.00  0.00    +0.000 C 
ATOM      6  C   UNL     1     -12.774   8.108   6.394  0.00  0.00    +0.000 C 
ATOM      7  C   UNL     1     -14.498   9.819   6.815  0.00  0.00    +0.000 C 
ATOM      8  C   UNL     1     -13.144   9.265   7.107  0.00  0.00    +0.000 C 
ATOM      9  C   UNL     1     -13.217   6.773   4.501  0.00  0.00    +0.000 C 
ATOM     10  C   UNL     1     -14.465   6.224   6.563  0.00  0.00    +0.000 C 
ATOM     11  C   UNL     1     -15.923  10.571   4.947  0.00  0.00    +0.000 C 
ATOM     12  C   UNL     1     -11.805   6.443   4.065  0.00  0.00    +0.000 C 
ATOM     13  C   UNL     1     -10.413   7.589   5.829  0.00  0.00    +0.000 C 
ATOM     14  C   UNL     1     -10.455   6.616   4.550  0.00  0.00    +0.000 C 
ATOM     15  C   UNL     1      -9.188   7.232   6.733  0.00  0.00    +0.000 C 
ATOM     16  C   UNL     1     -10.268   9.077   5.338  0.00  0.00    +0.000 C 
ENDROOT
BRANCH   5  17
ATOM     17  O   UNL     1     -16.732   9.158   6.636  0.00  0.00    +0.000 OA
ATOM     18  H   UNL     1     -17.130   8.453   6.093  0.00  0.00    +0.000 HD
ENDBRANCH   5  17
BRANCH   3  19
ATOM     19  C   UNL     1     -15.986   7.660   4.114  0.00  0.00    +0.000 C 
ATOM     20  C   UNL     1     -16.904   7.099   3.025  0.00  0.00    +0.000 C 
BRANCH  20  24
ATOM     21  C   UNL     1     -16.959   5.146  -0.034  0.00  0.00    +0.000 C 
ATOM     22  C   UNL     1     -17.370   6.534   0.518  0.00  0.00    +0.000 C 
ATOM     23  C   UNL     1     -17.862   3.946  -0.155  0.00  0.00    +0.000 C 
ATOM     24  C   UNL     1     -17.771   6.569   2.012  0.00  0.00    +0.000 C 
ATOM     25  C   UNL     1     -17.142   2.751  -0.783  0.00  0.00    +0.000 C 
ATOM     26  C   UNL     1     -15.701   4.764  -0.581  0.00  0.00    +0.000 C 
ATOM     27  C   UNL     1     -15.830   3.337  -1.032  0.00  0.00    +0.000 C 
ATOM     28  C   UNL     1     -18.942   3.920   0.752  0.00  0.00    +0.000 C 
ATOM     29  C   UNL     1     -19.033   5.961   2.440  0.00  0.00    +0.000 C 
ATOM     30  C   UNL     1     -16.161   7.522   0.293  0.00  0.00    +0.000 C 
ATOM     31  C   UNL     1     -18.544   7.088  -0.359  0.00  0.00    +0.000 C 
ATOM     32  C   UNL     1     -19.372   4.860   1.845  0.00  0.00    +0.000 C 
ATOM     33  C   UNL     1     -17.878   2.214  -1.998  0.00  0.00    +0.000 C 
ATOM     34  C   UNL     1     -19.708   6.262   3.753  0.00  0.00    +0.000 C 
BRANCH  25  35
ATOM     35  O   UNL     1     -17.040   1.696   0.142  0.00  0.00    +0.000 OA
ATOM     36  H   UNL     1     -16.354   2.044   0.738  0.00  0.00    +0.000 HD
ENDBRANCH  25  35
ENDBRANCH  20  24
ENDBRANCH   3  19
TORSDOF 4
ENDMDL
MODEL 7
REMARK VINA RESULT:      -4.9      6.181      9.175
REMARK  Name = 44423609_SipholenoneA.pdbqt.pdb
REMARK  4 active torsions:
REMARK  status: ('A' for Active; 'I' for Inactive)
REMARK    1  A    between atoms: C_3  and  C_19
REMARK    2  A    between atoms: C_5  and  O_17
REMARK    3  A    between atoms: C_20  and  C_24
REMARK    4  A    between atoms: C_25  and  O_35
REMARK                            x       y       z     vdW  Elec       q    Type
REMARK                         _______ _______ _______ _____ _____    ______ ____
ROOT
ATOM      1  O   UNL     1     -20.093  -4.831  20.114  0.00  0.00    +0.000 OA
ATOM      2  O   UNL     1     -18.847  -1.409  20.768  0.00  0.00    +0.000 OA
ATOM      3  C   UNL     1     -23.121  -4.403  17.611  0.00  0.00    +0.000 C 
ATOM      4  C   UNL     1     -21.672  -4.381  18.095  0.00  0.00    +0.000 C 
ATOM      5  C   UNL     1     -24.054  -5.520  18.048  0.00  0.00    +0.000 C 
ATOM      6  C   UNL     1     -21.354  -4.983  19.527  0.00  0.00    +0.000 C 
ATOM      7  C   UNL     1     -23.468  -6.204  19.185  0.00  0.00    +0.000 C 
ATOM      8  C   UNL     1     -22.207  -6.017  19.960  0.00  0.00    +0.000 C 
ATOM      9  C   UNL     1     -21.203  -2.995  18.265  0.00  0.00    +0.000 C 
ATOM     10  C   UNL     1     -20.769  -5.111  17.061  0.00  0.00    +0.000 C 
ATOM     11  C   UNL     1     -25.447  -4.974  18.375  0.00  0.00    +0.000 C 
ATOM     12  C   UNL     1     -20.326  -2.163  19.176  0.00  0.00    +0.000 C 
ATOM     13  C   UNL     1     -19.859  -3.751  21.079  0.00  0.00    +0.000 C 
ATOM     14  C   UNL     1     -19.562  -2.328  20.390  0.00  0.00    +0.000 C 
ATOM     15  C   UNL     1     -18.615  -4.216  21.904  0.00  0.00    +0.000 C 
ATOM     16  C   UNL     1     -21.089  -3.605  22.050  0.00  0.00    +0.000 C 
ENDROOT
BRANCH   5  17
ATOM     17  O   UNL     1     -24.235  -6.427  16.989  0.00  0.00    +0.000 OA
ATOM     18  H   UNL     1     -23.819  -7.229  17.354  0.00  0.00    +0.000 HD
ENDBRANCH   5  17
BRANCH   3  19
ATOM     19  C   UNL     1     -23.521  -3.519  16.547  0.00  0.00    +0.000 C 
ATOM     20  C   UNL     1     -23.952  -2.572  15.424  0.00  0.00    +0.000 C 
BRANCH  20  24
ATOM     21  C   UNL     1     -23.690   0.840  14.215  0.00  0.00    +0.000 C 
ATOM     22  C   UNL     1     -24.746  -0.210  14.640  0.00  0.00    +0.000 C 
ATOM     23  C   UNL     1     -23.243   1.115  12.802  0.00  0.00    +0.000 C 
ATOM     24  C   UNL     1     -24.367  -1.687  14.374  0.00  0.00    +0.000 C 
ATOM     25  C   UNL     1     -22.218   2.249  12.739  0.00  0.00    +0.000 C 
ATOM     26  C   UNL     1     -23.003   1.771  15.047  0.00  0.00    +0.000 C 
ATOM     27  C   UNL     1     -22.137   2.610  14.149  0.00  0.00    +0.000 C 
ATOM     28  C   UNL     1     -23.381   0.030  11.912  0.00  0.00    +0.000 C 
ATOM     29  C   UNL     1     -24.334  -2.191  12.999  0.00  0.00    +0.000 C 
ATOM     30  C   UNL     1     -25.018  -0.025  16.183  0.00  0.00    +0.000 C 
ATOM     31  C   UNL     1     -26.097   0.128  13.923  0.00  0.00    +0.000 C 
ATOM     32  C   UNL     1     -23.882  -1.377  12.098  0.00  0.00    +0.000 C 
ATOM     33  C   UNL     1     -22.644   3.353  11.788  0.00  0.00    +0.000 C 
ATOM     34  C   UNL     1     -24.368  -3.654  12.641  0.00  0.00    +0.000 C 
BRANCH  25  35
ATOM     35  O   UNL     1     -20.977   1.766  12.285  0.00  0.00    +0.000 OA
ATOM     36  H   UNL     1     -20.842   2.324  11.500  0.00  0.00    +0.000 HD
ENDBRANCH  25  35
ENDBRANCH  20  24
ENDBRANCH   3  19
TORSDOF 4
ENDMDL
MODEL 8
REMARK VINA RESULT:      -4.8     34.917     37.705
REMARK  Name = 44423609_SipholenoneA.pdbqt.pdb
REMARK  4 active torsions:
REMARK  status: ('A' for Active; 'I' for Inactive)
REMARK    1  A    between atoms: C_3  and  C_19
REMARK    2  A    between atoms: C_5  and  O_17
REMARK    3  A    between atoms: C_20  and  C_24
REMARK    4  A    between atoms: C_25  and  O_35
REMARK                            x       y       z     vdW  Elec       q    Type
REMARK                         _______ _______ _______ _____ _____    ______ ____
ROOT
ATOM      1  O   UNL     1       5.296 -20.038  -0.322  0.00  0.00    +0.000 OA
ATOM      2  O   UNL     1       7.261 -23.016  -1.304  0.00  0.00    +0.000 OA
ATOM      3  C   UNL     1       7.208 -18.466   2.758  0.00  0.00    +0.000 C 
ATOM      4  C   UNL     1       6.965 -18.888   1.310  0.00  0.00    +0.000 C 
ATOM      5  C   UNL     1       6.064 -17.918   3.596  0.00  0.00    +0.000 C 
ATOM      6  C   UNL     1       5.536 -19.461   0.930  0.00  0.00    +0.000 C 
ATOM      7  C   UNL     1       4.809 -18.241   2.945  0.00  0.00    +0.000 C 
ATOM      8  C   UNL     1       4.458 -18.974   1.694  0.00  0.00    +0.000 C 
ATOM      9  C   UNL     1       7.826 -20.026   0.949  0.00  0.00    +0.000 C 
ATOM     10  C   UNL     1       7.264 -17.691   0.365  0.00  0.00    +0.000 C 
ATOM     11  C   UNL     1       6.118 -18.471   5.024  0.00  0.00    +0.000 C 
ATOM     12  C   UNL     1       7.798 -21.299   0.130  0.00  0.00    +0.000 C 
ATOM     13  C   UNL     1       5.359 -21.495  -0.482  0.00  0.00    +0.000 C 
ATOM     14  C   UNL     1       6.855 -22.057  -0.659  0.00  0.00    +0.000 C 
ATOM     15  C   UNL     1       4.520 -21.792  -1.768  0.00  0.00    +0.000 C 
ATOM     16  C   UNL     1       4.682 -22.212   0.745  0.00  0.00    +0.000 C 
ENDROOT
BRANCH   5  17
ATOM     17  O   UNL     1       6.192 -16.524   3.717  0.00  0.00    +0.000 OA
ATOM     18  H   UNL     1       5.258 -16.254   3.782  0.00  0.00    +0.000 HD
ENDBRANCH   5  17
BRANCH   3  19
ATOM     19  C   UNL     1       8.561 -18.347   3.239  0.00  0.00    +0.000 C 
ATOM     20  C   UNL     1      10.000 -18.210   3.742  0.00  0.00    +0.000 C 
BRANCH  20  24
ATOM     21  C   UNL     1      13.086 -16.363   3.249  0.00  0.00    +0.000 C 
ATOM     22  C   UNL     1      12.532 -17.810   3.239  0.00  0.00    +0.000 C 
ATOM     23  C   UNL     1      13.765 -15.690   4.414  0.00  0.00    +0.000 C 
ATOM     24  C   UNL     1      11.352 -18.082   4.204  0.00  0.00    +0.000 C 
ATOM     25  C   UNL     1      14.227 -14.274   4.064  0.00  0.00    +0.000 C 
ATOM     26  C   UNL     1      13.120 -15.436   2.168  0.00  0.00    +0.000 C 
ATOM     27  C   UNL     1      13.814 -14.200   2.668  0.00  0.00    +0.000 C 
ATOM     28  C   UNL     1      13.402 -16.187   5.683  0.00  0.00    +0.000 C 
ATOM     29  C   UNL     1      11.590 -18.121   5.648  0.00  0.00    +0.000 C 
ATOM     30  C   UNL     1      12.072 -18.141   1.767  0.00  0.00    +0.000 C 
ATOM     31  C   UNL     1      13.710 -18.793   3.552  0.00  0.00    +0.000 C 
ATOM     32  C   UNL     1      12.443 -17.265   6.114  0.00  0.00    +0.000 C 
ATOM     33  C   UNL     1      15.708 -14.074   4.336  0.00  0.00    +0.000 C 
ATOM     34  C   UNL     1      10.642 -18.746   6.638  0.00  0.00    +0.000 C 
BRANCH  25  35
ATOM     35  O   UNL     1      13.531 -13.325   4.833  0.00  0.00    +0.000 OA
ATOM     36  H   UNL     1      13.047 -12.847   4.136  0.00  0.00    +0.000 HD
ENDBRANCH  25  35
ENDBRANCH  20  24
ENDBRANCH   3  19
TORSDOF 4
ENDMDL
MODEL 9
REMARK VINA RESULT:      -4.7     17.666     22.751
REMARK  Name = 44423609_SipholenoneA.pdbqt.pdb
REMARK  4 active torsions:
REMARK  status: ('A' for Active; 'I' for Inactive)
REMARK    1  A    between atoms: C_3  and  C_19
REMARK    2  A    between atoms: C_5  and  O_17
REMARK    3  A    between atoms: C_20  and  C_24
REMARK    4  A    between atoms: C_25  and  O_35
REMARK                            x       y       z     vdW  Elec       q    Type
REMARK                         _______ _______ _______ _____ _____    ______ ____
ROOT
ATOM      1  O   UNL     1      -0.119   9.980  19.913  0.00  0.00    +0.000 OA
ATOM      2  O   UNL     1      -1.520   6.641  19.150  0.00  0.00    +0.000 OA
ATOM      3  C   UNL     1       3.418  10.080  18.155  0.00  0.00    +0.000 C 
ATOM      4  C   UNL     1       1.895  10.035  18.267  0.00  0.00    +0.000 C 
ATOM      5  C   UNL     1       4.229  10.927  19.121  0.00  0.00    +0.000 C 
ATOM      6  C   UNL     1       1.248  10.195  19.705  0.00  0.00    +0.000 C 
ATOM      7  C   UNL     1       3.394  11.278  20.254  0.00  0.00    +0.000 C 
ATOM      8  C   UNL     1       1.982  10.971  20.624  0.00  0.00    +0.000 C 
ATOM      9  C   UNL     1       1.385   8.709  17.878  0.00  0.00    +0.000 C 
ATOM     10  C   UNL     1       1.275  11.120  17.342  0.00  0.00    +0.000 C 
ATOM     11  C   UNL     1       5.498  10.189  19.564  0.00  0.00    +0.000 C 
ATOM     12  C   UNL     1       0.307   7.716  18.256  0.00  0.00    +0.000 C 
ATOM     13  C   UNL     1      -0.589   8.680  20.407  0.00  0.00    +0.000 C 
ATOM     14  C   UNL     1      -0.725   7.567  19.254  0.00  0.00    +0.000 C 
ATOM     15  C   UNL     1      -1.990   8.976  21.034  0.00  0.00    +0.000 C 
ATOM     16  C   UNL     1       0.370   8.140  21.532  0.00  0.00    +0.000 C 
ENDROOT
BRANCH   5  17
ATOM     17  O   UNL     1       4.669  12.094  18.474  0.00  0.00    +0.000 OA
ATOM     18  H   UNL     1       5.616  11.898  18.353  0.00  0.00    +0.000 HD
ENDBRANCH   5  17
BRANCH   3  19
ATOM     19  C   UNL     1       4.054   9.533  16.984  0.00  0.00    +0.000 C 
ATOM     20  C   UNL     1       4.718   8.951  15.733  0.00  0.00    +0.000 C 
BRANCH  20  24
ATOM     21  C   UNL     1       5.899   5.858  14.245  0.00  0.00    +0.000 C 
ATOM     22  C   UNL     1       6.394   7.272  14.640  0.00  0.00    +0.000 C 
ATOM     23  C   UNL     1       5.426   5.443  12.876  0.00  0.00    +0.000 C 
ATOM     24  C   UNL     1       5.335   8.398  14.562  0.00  0.00    +0.000 C 
ATOM     25  C   UNL     1       5.051   3.960  12.828  0.00  0.00    +0.000 C 
ATOM     26  C   UNL     1       5.858   4.691  15.060  0.00  0.00    +0.000 C 
ATOM     27  C   UNL     1       5.361   3.566  14.196  0.00  0.00    +0.000 C 
ATOM     28  C   UNL     1       4.908   6.487  12.083  0.00  0.00    +0.000 C 
ATOM     29  C   UNL     1       4.866   8.864  13.255  0.00  0.00    +0.000 C 
ATOM     30  C   UNL     1       6.948   7.196  16.114  0.00  0.00    +0.000 C 
ATOM     31  C   UNL     1       7.622   7.636  13.738  0.00  0.00    +0.000 C 
ATOM     32  C   UNL     1       4.715   7.958  12.341  0.00  0.00    +0.000 C 
ATOM     33  C   UNL     1       5.795   3.218  11.731  0.00  0.00    +0.000 C 
ATOM     34  C   UNL     1       4.159  10.177  13.036  0.00  0.00    +0.000 C 
BRANCH  25  35
ATOM     35  O   UNL     1       3.676   3.809  12.572  0.00  0.00    +0.000 OA
ATOM     36  H   UNL     1       3.428   4.727  12.368  0.00  0.00    +0.000 HD
ENDBRANCH  25  35
ENDBRANCH  20  24
ENDBRANCH   3  19
TORSDOF 4
ENDMDL
