MODEL 1
REMARK VINA RESULT:      -5.0      0.000      0.000
REMARK  Name = 445154_Resveratrol.pdbqt.pdb
REMARK  5 active torsions:
REMARK  status: ('A' for Active; 'I' for Inactive)
REMARK    1  A    between atoms: C_1  and  C_11
REMARK    2  A    between atoms: C_4  and  O_7
REMARK    3  A    between atoms: C_5  and  O_9
REMARK    4  A    between atoms: C_12  and  C_13
REMARK    5  A    between atoms: C_18  and  O_19
REMARK                            x       y       z     vdW  Elec       q    Type
REMARK                         _______ _______ _______ _____ _____    ______ ____
ROOT
ATOM      1  C   UNL     1      -7.074   6.833   3.866  0.00  0.00    +0.000 A 
ATOM      2  C   UNL     1      -6.402   6.611   5.066  0.00  0.00    +0.000 A 
ATOM      3  C   UNL     1      -8.380   6.372   3.697  0.00  0.00    +0.000 A 
ATOM      4  C   UNL     1      -9.005   5.690   4.738  0.00  0.00    +0.000 A 
ATOM      5  C   UNL     1      -7.044   5.927   6.094  0.00  0.00    +0.000 A 
ATOM      6  C   UNL     1      -8.346   5.462   5.942  0.00  0.00    +0.000 A 
ENDROOT
BRANCH   4   7
ATOM      7  O   UNL     1     -10.282   5.229   4.602  0.00  0.00    +0.000 OA
ATOM      8  H   UNL     1     -10.335   4.722   3.772  0.00  0.00    +0.000 HD
ENDBRANCH   4   7
BRANCH   5   9
ATOM      9  O   UNL     1      -6.365   5.722   7.261  0.00  0.00    +0.000 OA
ATOM     10  H   UNL     1      -6.999   5.391   7.922  0.00  0.00    +0.000 HD
ENDBRANCH   5   9
BRANCH   1  11
ATOM     11  C   UNL     1      -6.427   7.531   2.805  0.00  0.00    +0.000 C 
ATOM     12  C   UNL     1      -5.881   8.121   1.911  0.00  0.00    +0.000 C 
BRANCH  12  13
ATOM     13  C   UNL     1      -5.232   8.819   0.851  0.00  0.00    +0.000 A 
ATOM     14  C   UNL     1      -5.310   8.330  -0.453  0.00  0.00    +0.000 A 
ATOM     15  C   UNL     1      -4.522   9.989   1.120  0.00  0.00    +0.000 A 
ATOM     16  C   UNL     1      -4.678   9.011  -1.490  0.00  0.00    +0.000 A 
ATOM     17  C   UNL     1      -3.888  10.672   0.086  0.00  0.00    +0.000 A 
ATOM     18  C   UNL     1      -3.971  10.177  -1.212  0.00  0.00    +0.000 A 
BRANCH  18  19
ATOM     19  O   UNL     1      -3.342  10.864  -2.209  0.00  0.00    +0.000 OA
ATOM     20  H   UNL     1      -2.410  10.986  -1.955  0.00  0.00    +0.000 HD
ENDBRANCH  18  19
ENDBRANCH  12  13
ENDBRANCH   1  11
TORSDOF 5
ENDMDL
MODEL 2
REMARK VINA RESULT:      -5.0     24.835     28.189
REMARK  Name = 445154_Resveratrol.pdbqt.pdb
REMARK  5 active torsions:
REMARK  status: ('A' for Active; 'I' for Inactive)
REMARK    1  A    between atoms: C_1  and  C_11
REMARK    2  A    between atoms: C_4  and  O_7
REMARK    3  A    between atoms: C_5  and  O_9
REMARK    4  A    between atoms: C_12  and  C_13
REMARK    5  A    between atoms: C_18  and  O_19
REMARK                            x       y       z     vdW  Elec       q    Type
REMARK                         _______ _______ _______ _____ _____    ______ ____
ROOT
ATOM      1  C   UNL     1     -11.961 -16.281  10.954  0.00  0.00    +0.000 A 
ATOM      2  C   UNL     1     -10.604 -16.290  10.633  0.00  0.00    +0.000 A 
ATOM      3  C   UNL     1     -12.907 -15.925   9.992  0.00  0.00    +0.000 A 
ATOM      4  C   UNL     1     -12.484 -15.580   8.711  0.00  0.00    +0.000 A 
ATOM      5  C   UNL     1     -10.203 -15.941   9.347  0.00  0.00    +0.000 A 
ATOM      6  C   UNL     1     -11.134 -15.585   8.377  0.00  0.00    +0.000 A 
ENDROOT
BRANCH   4   7
ATOM      7  O   UNL     1     -13.387 -15.228   7.751  0.00  0.00    +0.000 OA
ATOM      8  H   UNL     1     -13.516 -15.992   7.161  0.00  0.00    +0.000 HD
ENDBRANCH   4   7
BRANCH   5   9
ATOM      9  O   UNL     1      -8.869 -15.958   9.056  0.00  0.00    +0.000 OA
ATOM     10  H   UNL     1      -8.379 -16.022   9.896  0.00  0.00    +0.000 HD
ENDBRANCH   5   9
BRANCH   1  11
ATOM     11  C   UNL     1     -12.385 -16.635  12.268  0.00  0.00    +0.000 C 
ATOM     12  C   UNL     1     -12.742 -16.934  13.376  0.00  0.00    +0.000 C 
BRANCH  12  13
ATOM     13  C   UNL     1     -13.166 -17.290  14.690  0.00  0.00    +0.000 A 
ATOM     14  C   UNL     1     -12.521 -18.320  15.373  0.00  0.00    +0.000 A 
ATOM     15  C   UNL     1     -14.224 -16.606  15.289  0.00  0.00    +0.000 A 
ATOM     16  C   UNL     1     -12.932 -18.669  16.656  0.00  0.00    +0.000 A 
ATOM     17  C   UNL     1     -14.638 -16.952  16.572  0.00  0.00    +0.000 A 
ATOM     18  C   UNL     1     -13.989 -17.981  17.246  0.00  0.00    +0.000 A 
BRANCH  18  19
ATOM     19  O   UNL     1     -14.413 -18.302  18.503  0.00  0.00    +0.000 OA
ATOM     20  H   UNL     1     -13.702 -18.795  18.948  0.00  0.00    +0.000 HD
ENDBRANCH  18  19
ENDBRANCH  12  13
ENDBRANCH   1  11
TORSDOF 5
ENDMDL
MODEL 3
REMARK VINA RESULT:      -5.0     25.785     28.508
REMARK  Name = 445154_Resveratrol.pdbqt.pdb
REMARK  5 active torsions:
REMARK  status: ('A' for Active; 'I' for Inactive)
REMARK    1  A    between atoms: C_1  and  C_11
REMARK    2  A    between atoms: C_4  and  O_7
REMARK    3  A    between atoms: C_5  and  O_9
REMARK    4  A    between atoms: C_12  and  C_13
REMARK    5  A    between atoms: C_18  and  O_19
REMARK                            x       y       z     vdW  Elec       q    Type
REMARK                         _______ _______ _______ _____ _____    ______ ____
ROOT
ATOM      1  C   UNL     1     -10.585  -7.953  26.740  0.00  0.00    +0.000 A 
ATOM      2  C   UNL     1     -11.964  -7.937  26.533  0.00  0.00    +0.000 A 
ATOM      3  C   UNL     1      -9.920  -9.162  26.941  0.00  0.00    +0.000 A 
ATOM      4  C   UNL     1     -10.644 -10.351  26.932  0.00  0.00    +0.000 A 
ATOM      5  C   UNL     1     -12.669  -9.136  26.528  0.00  0.00    +0.000 A 
ATOM      6  C   UNL     1     -12.019 -10.350  26.726  0.00  0.00    +0.000 A 
ENDROOT
BRANCH   4   7
ATOM      7  O   UNL     1     -10.019 -11.549  27.125  0.00  0.00    +0.000 OA
ATOM      8  H   UNL     1      -9.687 -11.575  28.040  0.00  0.00    +0.000 HD
ENDBRANCH   4   7
BRANCH   5   9
ATOM      9  O   UNL     1     -14.018  -9.096  26.324  0.00  0.00    +0.000 OA
ATOM     10  H   UNL     1     -14.381  -8.369  26.859  0.00  0.00    +0.000 HD
ENDBRANCH   5   9
BRANCH   1  11
ATOM     11  C   UNL     1      -9.851  -6.730  26.748  0.00  0.00    +0.000 C 
ATOM     12  C   UNL     1      -9.234  -5.700  26.754  0.00  0.00    +0.000 C 
BRANCH  12  13
ATOM     13  C   UNL     1      -8.501  -4.476  26.763  0.00  0.00    +0.000 A 
ATOM     14  C   UNL     1      -8.439  -3.711  27.927  0.00  0.00    +0.000 A 
ATOM     15  C   UNL     1      -7.847  -4.048  25.607  0.00  0.00    +0.000 A 
ATOM     16  C   UNL     1      -7.724  -2.517  27.938  0.00  0.00    +0.000 A 
ATOM     17  C   UNL     1      -7.131  -2.855  25.614  0.00  0.00    +0.000 A 
ATOM     18  C   UNL     1      -7.076  -2.098  26.780  0.00  0.00    +0.000 A 
BRANCH  18  19
ATOM     19  O   UNL     1      -6.368  -0.932  26.763  0.00  0.00    +0.000 OA
ATOM     20  H   UNL     1      -5.528  -1.091  26.297  0.00  0.00    +0.000 HD
ENDBRANCH  18  19
ENDBRANCH  12  13
ENDBRANCH   1  11
TORSDOF 5
ENDMDL
MODEL 4
REMARK VINA RESULT:      -4.7      1.513      7.684
REMARK  Name = 445154_Resveratrol.pdbqt.pdb
REMARK  5 active torsions:
REMARK  status: ('A' for Active; 'I' for Inactive)
REMARK    1  A    between atoms: C_1  and  C_11
REMARK    2  A    between atoms: C_4  and  O_7
REMARK    3  A    between atoms: C_5  and  O_9
REMARK    4  A    between atoms: C_12  and  C_13
REMARK    5  A    between atoms: C_18  and  O_19
REMARK                            x       y       z     vdW  Elec       q    Type
REMARK                         _______ _______ _______ _____ _____    ______ ____
ROOT
ATOM      1  C   UNL     1      -5.408   8.813   1.435  0.00  0.00    +0.000 A 
ATOM      2  C   UNL     1      -5.480   8.293   0.144  0.00  0.00    +0.000 A 
ATOM      3  C   UNL     1      -4.615   9.929   1.699  0.00  0.00    +0.000 A 
ATOM      4  C   UNL     1      -3.897  10.519   0.663  0.00  0.00    +0.000 A 
ATOM      5  C   UNL     1      -4.754   8.897  -0.878  0.00  0.00    +0.000 A 
ATOM      6  C   UNL     1      -3.959  10.012  -0.631  0.00  0.00    +0.000 A 
ENDROOT
BRANCH   4   7
ATOM      7  O   UNL     1      -3.113  11.613   0.892  0.00  0.00    +0.000 OA
ATOM      8  H   UNL     1      -3.680  12.404   0.864  0.00  0.00    +0.000 HD
ENDBRANCH   4   7
BRANCH   5   9
ATOM      9  O   UNL     1      -4.840   8.371  -2.135  0.00  0.00    +0.000 OA
ATOM     10  H   UNL     1      -5.706   8.619  -2.505  0.00  0.00    +0.000 HD
ENDBRANCH   5   9
BRANCH   1  11
ATOM     11  C   UNL     1      -6.146   8.202   2.491  0.00  0.00    +0.000 C 
ATOM     12  C   UNL     1      -6.767   7.687   3.381  0.00  0.00    +0.000 C 
BRANCH  12  13
ATOM     13  C   UNL     1      -7.505   7.076   4.438  0.00  0.00    +0.000 A 
ATOM     14  C   UNL     1      -8.213   5.898   4.201  0.00  0.00    +0.000 A 
ATOM     15  C   UNL     1      -7.517   7.658   5.705  0.00  0.00    +0.000 A 
ATOM     16  C   UNL     1      -8.933   5.300   5.231  0.00  0.00    +0.000 A 
ATOM     17  C   UNL     1      -8.237   7.063   6.738  0.00  0.00    +0.000 A 
ATOM     18  C   UNL     1      -8.940   5.888   6.492  0.00  0.00    +0.000 A 
BRANCH  18  19
ATOM     19  O   UNL     1      -9.637   5.324   7.520  0.00  0.00    +0.000 OA
ATOM     20  H   UNL     1      -9.236   5.615   8.357  0.00  0.00    +0.000 HD
ENDBRANCH  18  19
ENDBRANCH  12  13
ENDBRANCH   1  11
TORSDOF 5
ENDMDL
MODEL 5
REMARK VINA RESULT:      -4.6     23.856     26.128
REMARK  Name = 445154_Resveratrol.pdbqt.pdb
REMARK  5 active torsions:
REMARK  status: ('A' for Active; 'I' for Inactive)
REMARK    1  A    between atoms: C_1  and  C_11
REMARK    2  A    between atoms: C_4  and  O_7
REMARK    3  A    between atoms: C_5  and  O_9
REMARK    4  A    between atoms: C_12  and  C_13
REMARK    5  A    between atoms: C_18  and  O_19
REMARK                            x       y       z     vdW  Elec       q    Type
REMARK                         _______ _______ _______ _____ _____    ______ ____
ROOT
ATOM      1  C   UNL     1       3.325 -15.250  12.839  0.00  0.00    +0.000 A 
ATOM      2  C   UNL     1       2.895 -16.197  11.910  0.00  0.00    +0.000 A 
ATOM      3  C   UNL     1       2.957 -15.363  14.179  0.00  0.00    +0.000 A 
ATOM      4  C   UNL     1       2.156 -16.429  14.581  0.00  0.00    +0.000 A 
ATOM      5  C   UNL     1       2.095 -17.254  12.333  0.00  0.00    +0.000 A 
ATOM      6  C   UNL     1       1.720 -17.381  13.666  0.00  0.00    +0.000 A 
ENDROOT
BRANCH   4   7
ATOM      7  O   UNL     1       1.781 -16.565  15.886  0.00  0.00    +0.000 OA
ATOM      8  H   UNL     1       1.755 -17.515  16.097  0.00  0.00    +0.000 HD
ENDBRANCH   4   7
BRANCH   5   9
ATOM      9  O   UNL     1       1.685 -18.170  11.406  0.00  0.00    +0.000 OA
ATOM     10  H   UNL     1       1.811 -19.058  11.785  0.00  0.00    +0.000 HD
ENDBRANCH   5   9
BRANCH   1  11
ATOM     11  C   UNL     1       4.145 -14.162  12.418  0.00  0.00    +0.000 C 
ATOM     12  C   UNL     1       4.834 -13.244  12.064  0.00  0.00    +0.000 C 
BRANCH  12  13
ATOM     13  C   UNL     1       5.653 -12.155  11.644  0.00  0.00    +0.000 A 
ATOM     14  C   UNL     1       5.225 -10.843  11.849  0.00  0.00    +0.000 A 
ATOM     15  C   UNL     1       6.880 -12.403  11.029  0.00  0.00    +0.000 A 
ATOM     16  C   UNL     1       6.023  -9.779  11.441  0.00  0.00    +0.000 A 
ATOM     17  C   UNL     1       7.681 -11.341  10.619  0.00  0.00    +0.000 A 
ATOM     18  C   UNL     1       7.245 -10.036  10.828  0.00  0.00    +0.000 A 
BRANCH  18  19
ATOM     19  O   UNL     1       8.047  -9.012  10.417  0.00  0.00    +0.000 OA
ATOM     20  H   UNL     1       7.540  -8.455   9.800  0.00  0.00    +0.000 HD
ENDBRANCH  18  19
ENDBRANCH  12  13
ENDBRANCH   1  11
TORSDOF 5
ENDMDL
MODEL 6
REMARK VINA RESULT:      -4.5      1.356      7.583
REMARK  Name = 445154_Resveratrol.pdbqt.pdb
REMARK  5 active torsions:
REMARK  status: ('A' for Active; 'I' for Inactive)
REMARK    1  A    between atoms: C_1  and  C_11
REMARK    2  A    between atoms: C_4  and  O_7
REMARK    3  A    between atoms: C_5  and  O_9
REMARK    4  A    between atoms: C_12  and  C_13
REMARK    5  A    between atoms: C_18  and  O_19
REMARK                            x       y       z     vdW  Elec       q    Type
REMARK                         _______ _______ _______ _____ _____    ______ ____
ROOT
ATOM      1  C   UNL     1      -4.924   8.849   0.064  0.00  0.00    +0.000 A 
ATOM      2  C   UNL     1      -4.174   9.973   0.404  0.00  0.00    +0.000 A 
ATOM      3  C   UNL     1      -4.900   8.358  -1.241  0.00  0.00    +0.000 A 
ATOM      4  C   UNL     1      -4.120   8.999  -2.200  0.00  0.00    +0.000 A 
ATOM      5  C   UNL     1      -3.401  10.600  -0.568  0.00  0.00    +0.000 A 
ATOM      6  C   UNL     1      -3.366  10.121  -1.874  0.00  0.00    +0.000 A 
ENDROOT
BRANCH   4   7
ATOM      7  O   UNL     1      -4.077   8.540  -3.484  0.00  0.00    +0.000 OA
ATOM      8  H   UNL     1      -4.004   9.308  -4.079  0.00  0.00    +0.000 HD
ENDBRANCH   4   7
BRANCH   5   9
ATOM      9  O   UNL     1      -2.674  11.699  -0.212  0.00  0.00    +0.000 OA
ATOM     10  H   UNL     1      -3.285  12.351   0.176  0.00  0.00    +0.000 HD
ENDBRANCH   5   9
BRANCH   1  11
ATOM     11  C   UNL     1      -5.721   8.198   1.052  0.00  0.00    +0.000 C 
ATOM     12  C   UNL     1      -6.393   7.651   1.884  0.00  0.00    +0.000 C 
BRANCH  12  13
ATOM     13  C   UNL     1      -7.190   7.000   2.871  0.00  0.00    +0.000 A 
ATOM     14  C   UNL     1      -8.191   6.111   2.480  0.00  0.00    +0.000 A 
ATOM     15  C   UNL     1      -6.968   7.254   4.224  0.00  0.00    +0.000 A 
ATOM     16  C   UNL     1      -8.971   5.474   3.441  0.00  0.00    +0.000 A 
ATOM     17  C   UNL     1      -7.745   6.619   5.188  0.00  0.00    +0.000 A 
ATOM     18  C   UNL     1      -8.741   5.734   4.789  0.00  0.00    +0.000 A 
BRANCH  18  19
ATOM     19  O   UNL     1      -9.490   5.124   5.753  0.00  0.00    +0.000 OA
ATOM     20  H   UNL     1      -9.614   4.193   5.499  0.00  0.00    +0.000 HD
ENDBRANCH  18  19
ENDBRANCH  12  13
ENDBRANCH   1  11
TORSDOF 5
ENDMDL
MODEL 7
REMARK VINA RESULT:      -4.5     24.702     27.085
REMARK  Name = 445154_Resveratrol.pdbqt.pdb
REMARK  5 active torsions:
REMARK  status: ('A' for Active; 'I' for Inactive)
REMARK    1  A    between atoms: C_1  and  C_11
REMARK    2  A    between atoms: C_4  and  O_7
REMARK    3  A    between atoms: C_5  and  O_9
REMARK    4  A    between atoms: C_12  and  C_13
REMARK    5  A    between atoms: C_18  and  O_19
REMARK                            x       y       z     vdW  Elec       q    Type
REMARK                         _______ _______ _______ _____ _____    ______ ____
ROOT
ATOM      1  C   UNL     1       5.808 -12.072  11.747  0.00  0.00    +0.000 A 
ATOM      2  C   UNL     1       4.505 -12.448  12.074  0.00  0.00    +0.000 A 
ATOM      3  C   UNL     1       6.122 -10.727  11.552  0.00  0.00    +0.000 A 
ATOM      4  C   UNL     1       5.125  -9.765  11.686  0.00  0.00    +0.000 A 
ATOM      5  C   UNL     1       3.524 -11.470  12.202  0.00  0.00    +0.000 A 
ATOM      6  C   UNL     1       3.821 -10.125  12.011  0.00  0.00    +0.000 A 
ENDROOT
BRANCH   4   7
ATOM      7  O   UNL     1       5.403  -8.441  11.500  0.00  0.00    +0.000 OA
ATOM      8  H   UNL     1       5.213  -7.972  12.332  0.00  0.00    +0.000 HD
ENDBRANCH   4   7
BRANCH   5   9
ATOM      9  O   UNL     1       2.255 -11.862  12.523  0.00  0.00    +0.000 OA
ATOM     10  H   UNL     1       1.671 -11.088  12.435  0.00  0.00    +0.000 HD
ENDBRANCH   5   9
BRANCH   1  11
ATOM     11  C   UNL     1       6.823 -13.064  11.612  0.00  0.00    +0.000 C 
ATOM     12  C   UNL     1       7.679 -13.900  11.498  0.00  0.00    +0.000 C 
BRANCH  12  13
ATOM     13  C   UNL     1       8.694 -14.892  11.363  0.00  0.00    +0.000 A 
ATOM     14  C   UNL     1       8.443 -16.046  10.621  0.00  0.00    +0.000 A 
ATOM     15  C   UNL     1       9.934 -14.706  11.973  0.00  0.00    +0.000 A 
ATOM     16  C   UNL     1       9.433 -17.016  10.488  0.00  0.00    +0.000 A 
ATOM     17  C   UNL     1      10.926 -15.674  11.843  0.00  0.00    +0.000 A 
ATOM     18  C   UNL     1      10.667 -16.822  11.101  0.00  0.00    +0.000 A 
BRANCH  18  19
ATOM     19  O   UNL     1      11.655 -17.756  10.987  0.00  0.00    +0.000 OA
ATOM     20  H   UNL     1      11.818 -17.914  10.041  0.00  0.00    +0.000 HD
ENDBRANCH  18  19
ENDBRANCH  12  13
ENDBRANCH   1  11
TORSDOF 5
ENDMDL
MODEL 8
REMARK VINA RESULT:      -4.4     27.289     30.578
REMARK  Name = 445154_Resveratrol.pdbqt.pdb
REMARK  5 active torsions:
REMARK  status: ('A' for Active; 'I' for Inactive)
REMARK    1  A    between atoms: C_1  and  C_11
REMARK    2  A    between atoms: C_4  and  O_7
REMARK    3  A    between atoms: C_5  and  O_9
REMARK    4  A    between atoms: C_12  and  C_13
REMARK    5  A    between atoms: C_18  and  O_19
REMARK                            x       y       z     vdW  Elec       q    Type
REMARK                         _______ _______ _______ _____ _____    ______ ____
ROOT
ATOM      1  C   UNL     1      -8.886  -7.957  26.827  0.00  0.00    +0.000 A 
ATOM      2  C   UNL     1      -8.599  -7.104  25.763  0.00  0.00    +0.000 A 
ATOM      3  C   UNL     1      -8.069  -7.970  27.957  0.00  0.00    +0.000 A 
ATOM      4  C   UNL     1      -6.965  -7.123  28.013  0.00  0.00    +0.000 A 
ATOM      5  C   UNL     1      -7.491  -6.265  25.839  0.00  0.00    +0.000 A 
ATOM      6  C   UNL     1      -6.667  -6.265  26.960  0.00  0.00    +0.000 A 
ENDROOT
BRANCH   4   7
ATOM      7  O   UNL     1      -6.148  -7.113  29.107  0.00  0.00    +0.000 OA
ATOM      8  H   UNL     1      -6.707  -7.060  29.903  0.00  0.00    +0.000 HD
ENDBRANCH   4   7
BRANCH   5   9
ATOM      9  O   UNL     1      -7.230  -5.437  24.785  0.00  0.00    +0.000 OA
ATOM     10  H   UNL     1      -7.578  -5.858  23.979  0.00  0.00    +0.000 HD
ENDBRANCH   5   9
BRANCH   1  11
ATOM     11  C   UNL     1     -10.018  -8.822  26.761  0.00  0.00    +0.000 C 
ATOM     12  C   UNL     1     -10.972  -9.551  26.707  0.00  0.00    +0.000 C 
BRANCH  12  13
ATOM     13  C   UNL     1     -12.104 -10.415  26.641  0.00  0.00    +0.000 A 
ATOM     14  C   UNL     1     -12.163 -11.546  27.454  0.00  0.00    +0.000 A 
ATOM     15  C   UNL     1     -13.149 -10.127  25.763  0.00  0.00    +0.000 A 
ATOM     16  C   UNL     1     -13.268 -12.391  27.392  0.00  0.00    +0.000 A 
ATOM     17  C   UNL     1     -14.255 -10.970  25.698  0.00  0.00    +0.000 A 
ATOM     18  C   UNL     1     -14.306 -12.096  26.513  0.00  0.00    +0.000 A 
BRANCH  18  19
ATOM     19  O   UNL     1     -15.400 -12.907  26.431  0.00  0.00    +0.000 OA
ATOM     20  H   UNL     1     -16.168 -12.359  26.193  0.00  0.00    +0.000 HD
ENDBRANCH  18  19
ENDBRANCH  12  13
ENDBRANCH   1  11
TORSDOF 5
ENDMDL
MODEL 9
REMARK VINA RESULT:      -4.4     25.509     27.891
REMARK  Name = 445154_Resveratrol.pdbqt.pdb
REMARK  5 active torsions:
REMARK  status: ('A' for Active; 'I' for Inactive)
REMARK    1  A    between atoms: C_1  and  C_11
REMARK    2  A    between atoms: C_4  and  O_7
REMARK    3  A    between atoms: C_5  and  O_9
REMARK    4  A    between atoms: C_12  and  C_13
REMARK    5  A    between atoms: C_18  and  O_19
REMARK                            x       y       z     vdW  Elec       q    Type
REMARK                         _______ _______ _______ _____ _____    ______ ____
ROOT
ATOM      1  C   UNL     1      -6.848 -19.555   7.296  0.00  0.00    +0.000 A 
ATOM      2  C   UNL     1      -5.622 -19.898   7.864  0.00  0.00    +0.000 A 
ATOM      3  C   UNL     1      -7.115 -19.865   5.963  0.00  0.00    +0.000 A 
ATOM      4  C   UNL     1      -6.147 -20.519   5.205  0.00  0.00    +0.000 A 
ATOM      5  C   UNL     1      -4.668 -20.551   7.090  0.00  0.00    +0.000 A 
ATOM      6  C   UNL     1      -4.920 -20.868   5.759  0.00  0.00    +0.000 A 
ENDROOT
BRANCH   4   7
ATOM      7  O   UNL     1      -6.381 -20.836   3.898  0.00  0.00    +0.000 OA
ATOM      8  H   UNL     1      -6.721 -21.747   3.863  0.00  0.00    +0.000 HD
ENDBRANCH   4   7
BRANCH   5   9
ATOM      9  O   UNL     1      -3.475 -20.877   7.667  0.00  0.00    +0.000 OA
ATOM     10  H   UNL     1      -3.649 -21.139   8.589  0.00  0.00    +0.000 HD
ENDBRANCH   5   9
BRANCH   1  11
ATOM     11  C   UNL     1      -7.833 -18.885   8.079  0.00  0.00    +0.000 C 
ATOM     12  C   UNL     1      -8.663 -18.320   8.739  0.00  0.00    +0.000 C 
BRANCH  12  13
ATOM     13  C   UNL     1      -9.648 -17.649   9.523  0.00  0.00    +0.000 A 
ATOM     14  C   UNL     1      -9.526 -16.281   9.769  0.00  0.00    +0.000 A 
ATOM     15  C   UNL     1     -10.729 -18.361  10.041  0.00  0.00    +0.000 A 
ATOM     16  C   UNL     1     -10.486 -15.624  10.533  0.00  0.00    +0.000 A 
ATOM     17  C   UNL     1     -11.691 -17.707  10.805  0.00  0.00    +0.000 A 
ATOM     18  C   UNL     1     -11.561 -16.343  11.046  0.00  0.00    +0.000 A 
BRANCH  18  19
ATOM     19  O   UNL     1     -12.517 -15.724  11.798  0.00  0.00    +0.000 OA
ATOM     20  H   UNL     1     -13.263 -16.339  11.911  0.00  0.00    +0.000 HD
ENDBRANCH  18  19
ENDBRANCH  12  13
ENDBRANCH   1  11
TORSDOF 5
ENDMDL
