MODEL 1
REMARK VINA RESULT:      -7.7      0.000      0.000
REMARK  Name = 448438_Violaxanthin.pdbqt.pdb
REMARK  16 active torsions:
REMARK  status: ('A' for Active; 'I' for Inactive)
REMARK    1  A    between atoms: C_1  and  C_5
REMARK    2  A    between atoms: C_2  and  C_27
REMARK    3  A    between atoms: C_3  and  C_5
REMARK    4  A    between atoms: C_3  and  C_7
REMARK    5  A    between atoms: C_6  and  C_10
REMARK    6  A    between atoms: C_8  and  C_10
REMARK    7  A    between atoms: C_8  and  C_12
REMARK    8  A    between atoms: C_11  and  C_14
REMARK    9  A    between atoms: C_19  and  O_23
REMARK   10  A    between atoms: C_25  and  C_27
REMARK   11  A    between atoms: C_25  and  C_29
REMARK   12  A    between atoms: C_28  and  C_32
REMARK   13  A    between atoms: C_30  and  C_32
REMARK   14  A    between atoms: C_30  and  C_34
REMARK   15  A    between atoms: C_33  and  C_36
REMARK   16  A    between atoms: C_41  and  O_45
REMARK                            x       y       z     vdW  Elec       q    Type
REMARK                         _______ _______ _______ _____ _____    ______ ____
ROOT
ATOM      1  C   UNL     1      -2.949   5.919  -3.802  0.00  0.00    +0.000 C 
ATOM      2  C   UNL     1      -2.314   4.957  -4.133  0.00  0.00    +0.000 C 
ENDROOT
BRANCH   2   3
ATOM      3  C   UNL     1      -1.504   3.727  -4.560  0.00  0.00    +0.000 C 
BRANCH   3   4
ATOM      4  C   UNL     1      -0.819   2.688  -4.923  0.00  0.00    +0.000 C 
ATOM      5  C   UNL     1       0.612   2.847  -5.341  0.00  0.00    +0.000 C 
BRANCH   4   7
ATOM      6  C   UNL     1      -1.970   0.342  -5.047  0.00  0.00    +0.000 C 
ATOM      7  C   UNL     1      -1.441   1.420  -4.990  0.00  0.00    +0.000 C 
BRANCH   6   8
ATOM      8  C   UNL     1      -2.646  -1.032  -5.120  0.00  0.00    +0.000 C 
BRANCH   8   9
ATOM      9  C   UNL     1      -3.218  -2.195  -5.184  0.00  0.00    +0.000 C 
ATOM     10  C   UNL     1      -3.449  -2.840  -6.516  0.00  0.00    +0.000 C 
BRANCH   9  12
ATOM     11  C   UNL     1      -3.749  -3.512  -2.984  0.00  0.00    +0.000 C 
ATOM     12  C   UNL     1      -3.509  -2.904  -3.993  0.00  0.00    +0.000 C 
BRANCH  11  14
ATOM     13  O   UNL     1      -3.082  -3.874  -0.731  0.00  0.00    +0.000 OA
ATOM     14  C   UNL     1      -4.024  -4.265  -1.769  0.00  0.00    +0.000 C 
ATOM     15  C   UNL     1      -4.441  -3.514  -0.486  0.00  0.00    +0.000 C 
ATOM     16  C   UNL     1      -4.358  -5.792  -1.867  0.00  0.00    +0.000 C 
ATOM     17  C   UNL     1      -5.023  -4.293   0.557  0.00  0.00    +0.000 C 
ATOM     18  C   UNL     1      -4.853  -6.220  -0.551  0.00  0.00    +0.000 C 
ATOM     19  C   UNL     1      -5.266  -5.671   0.679  0.00  0.00    +0.000 C 
ATOM     20  C   UNL     1      -4.672  -2.001  -0.443  0.00  0.00    +0.000 C 
ATOM     21  C   UNL     1      -5.479  -5.915  -2.927  0.00  0.00    +0.000 C 
ATOM     22  C   UNL     1      -3.053  -6.503  -2.284  0.00  0.00    +0.000 C 
BRANCH  19  23
ATOM     23  O   UNL     1      -5.106  -6.322   1.865  0.00  0.00    +0.000 OA
ATOM     24  H   UNL     1      -5.703  -5.990   2.560  0.00  0.00    +0.000 HD
ENDBRANCH  19  23
ENDBRANCH  11  14
ENDBRANCH   9  12
ENDBRANCH   8   9
ENDBRANCH   6   8
ENDBRANCH   4   7
ENDBRANCH   3   4
ENDBRANCH   2   3
BRANCH   1  25
ATOM     25  C   UNL     1      -3.760   7.149  -3.376  0.00  0.00    +0.000 C 
BRANCH  25  26
ATOM     26  C   UNL     1      -4.446   8.188  -3.016  0.00  0.00    +0.000 C 
ATOM     27  C   UNL     1      -4.958   9.140  -4.055  0.00  0.00    +0.000 C 
BRANCH  26  29
ATOM     28  C   UNL     1      -4.972   8.595  -0.487  0.00  0.00    +0.000 C 
ATOM     29  C   UNL     1      -4.733   8.408  -1.649  0.00  0.00    +0.000 C 
BRANCH  28  30
ATOM     30  C   UNL     1      -5.272   8.832   0.999  0.00  0.00    +0.000 C 
BRANCH  30  31
ATOM     31  C   UNL     1      -5.529   9.031   2.253  0.00  0.00    +0.000 C 
ATOM     32  C   UNL     1      -4.917  10.198   2.965  0.00  0.00    +0.000 C 
BRANCH  31  34
ATOM     33  C   UNL     1      -7.186   7.445   3.520  0.00  0.00    +0.000 C 
ATOM     34  C   UNL     1      -6.427   8.174   2.936  0.00  0.00    +0.000 C 
BRANCH  33  36
ATOM     35  O   UNL     1      -7.349   5.549   4.951  0.00  0.00    +0.000 OA
ATOM     36  C   UNL     1      -8.102   6.567   4.232  0.00  0.00    +0.000 C 
ATOM     37  C   UNL     1      -8.041   6.487   5.772  0.00  0.00    +0.000 C 
ATOM     38  C   UNL     1      -9.417   6.086   3.520  0.00  0.00    +0.000 C 
ATOM     39  C   UNL     1      -9.158   5.901   6.439  0.00  0.00    +0.000 C 
ATOM     40  C   UNL     1     -10.268   5.486   4.550  0.00  0.00    +0.000 C 
ATOM     41  C   UNL     1     -10.342   5.328   5.948  0.00  0.00    +0.000 C 
ATOM     42  C   UNL     1      -7.106   7.346   6.628  0.00  0.00    +0.000 C 
ATOM     43  C   UNL     1      -8.972   5.093   2.423  0.00  0.00    +0.000 C 
ATOM     44  C   UNL     1     -10.068   7.367   2.938  0.00  0.00    +0.000 C 
BRANCH  41  45
ATOM     45  O   UNL     1     -11.530   5.409   6.608  0.00  0.00    +0.000 OA
ATOM     46  H   UNL     1     -12.030   4.573   6.579  0.00  0.00    +0.000 HD
ENDBRANCH  41  45
ENDBRANCH  33  36
ENDBRANCH  31  34
ENDBRANCH  30  31
ENDBRANCH  28  30
ENDBRANCH  26  29
ENDBRANCH  25  26
ENDBRANCH   1  25
TORSDOF 16
ENDMDL
MODEL 2
REMARK VINA RESULT:      -7.4      1.069     12.146
REMARK  Name = 448438_Violaxanthin.pdbqt.pdb
REMARK  16 active torsions:
REMARK  status: ('A' for Active; 'I' for Inactive)
REMARK    1  A    between atoms: C_1  and  C_5
REMARK    2  A    between atoms: C_2  and  C_27
REMARK    3  A    between atoms: C_3  and  C_5
REMARK    4  A    between atoms: C_3  and  C_7
REMARK    5  A    between atoms: C_6  and  C_10
REMARK    6  A    between atoms: C_8  and  C_10
REMARK    7  A    between atoms: C_8  and  C_12
REMARK    8  A    between atoms: C_11  and  C_14
REMARK    9  A    between atoms: C_19  and  O_23
REMARK   10  A    between atoms: C_25  and  C_27
REMARK   11  A    between atoms: C_25  and  C_29
REMARK   12  A    between atoms: C_28  and  C_32
REMARK   13  A    between atoms: C_30  and  C_32
REMARK   14  A    between atoms: C_30  and  C_34
REMARK   15  A    between atoms: C_33  and  C_36
REMARK   16  A    between atoms: C_41  and  O_45
REMARK                            x       y       z     vdW  Elec       q    Type
REMARK                         _______ _______ _______ _____ _____    ______ ____
ROOT
ATOM      1  C   UNL     1      -2.465   5.525  -3.701  0.00  0.00    +0.000 C 
ATOM      2  C   UNL     1      -3.128   6.430  -3.277  0.00  0.00    +0.000 C 
ENDROOT
BRANCH   2   3
ATOM      3  C   UNL     1      -3.978   7.586  -2.737  0.00  0.00    +0.000 C 
BRANCH   3   4
ATOM      4  C   UNL     1      -4.698   8.562  -2.282  0.00  0.00    +0.000 C 
ATOM      5  C   UNL     1      -5.153   9.648  -3.210  0.00  0.00    +0.000 C 
BRANCH   4   7
ATOM      6  C   UNL     1      -5.248   8.704   0.271  0.00  0.00    +0.000 C 
ATOM      7  C   UNL     1      -4.996   8.639  -0.902  0.00  0.00    +0.000 C 
BRANCH   6   8
ATOM      8  C   UNL     1      -5.570   8.784   1.769  0.00  0.00    +0.000 C 
BRANCH   8   9
ATOM      9  C   UNL     1      -5.844   8.849   3.035  0.00  0.00    +0.000 C 
ATOM     10  C   UNL     1      -5.138   9.846   3.901  0.00  0.00    +0.000 C 
BRANCH   9  12
ATOM     11  C   UNL     1      -7.793   7.399   4.016  0.00  0.00    +0.000 C 
ATOM     12  C   UNL     1      -6.896   8.064   3.569  0.00  0.00    +0.000 C 
BRANCH  11  14
ATOM     13  O   UNL     1      -8.368   5.561   5.408  0.00  0.00    +0.000 OA
ATOM     14  C   UNL     1      -8.893   6.601   4.536  0.00  0.00    +0.000 C 
ATOM     15  C   UNL     1      -9.150   6.562   6.058  0.00  0.00    +0.000 C 
ATOM     16  C   UNL     1     -10.064   6.186   3.583  0.00  0.00    +0.000 C 
ATOM     17  C   UNL     1     -10.416   6.062   6.486  0.00  0.00    +0.000 C 
ATOM     18  C   UNL     1     -11.141   5.641   4.421  0.00  0.00    +0.000 C 
ATOM     19  C   UNL     1     -11.507   5.533   5.777  0.00  0.00    +0.000 C 
ATOM     20  C   UNL     1      -8.354   7.402   7.061  0.00  0.00    +0.000 C 
ATOM     21  C   UNL     1     -10.531   7.489   2.890  0.00  0.00    +0.000 C 
ATOM     22  C   UNL     1      -9.483   5.153   2.595  0.00  0.00    +0.000 C 
BRANCH  19  23
ATOM     23  O   UNL     1     -12.235   4.490   6.261  0.00  0.00    +0.000 OA
ATOM     24  H   UNL     1     -11.835   4.086   7.052  0.00  0.00    +0.000 HD
ENDBRANCH  19  23
ENDBRANCH  11  14
ENDBRANCH   9  12
ENDBRANCH   8   9
ENDBRANCH   6   8
ENDBRANCH   4   7
ENDBRANCH   3   4
ENDBRANCH   2   3
BRANCH   1  25
ATOM     25  C   UNL     1      -1.615   4.368  -4.243  0.00  0.00    +0.000 C 
BRANCH  25  26
ATOM     26  C   UNL     1      -0.897   3.391  -4.700  0.00  0.00    +0.000 C 
ATOM     27  C   UNL     1       0.559   3.606  -4.987  0.00  0.00    +0.000 C 
BRANCH  26  29
ATOM     28  C   UNL     1      -1.978   1.040  -5.079  0.00  0.00    +0.000 C 
ATOM     29  C   UNL     1      -1.480   2.119  -4.904  0.00  0.00    +0.000 C 
BRANCH  28  30
ATOM     30  C   UNL     1      -2.619  -0.334  -5.306  0.00  0.00    +0.000 C 
BRANCH  30  31
ATOM     31  C   UNL     1      -3.166  -1.494  -5.498  0.00  0.00    +0.000 C 
ATOM     32  C   UNL     1      -3.177  -2.097  -6.869  0.00  0.00    +0.000 C 
BRANCH  31  34
ATOM     33  C   UNL     1      -4.176  -2.817  -3.475  0.00  0.00    +0.000 C 
ATOM     34  C   UNL     1      -3.709  -2.210  -4.403  0.00  0.00    +0.000 C 
BRANCH  33  36
ATOM     35  O   UNL     1      -6.151  -3.834  -2.616  0.00  0.00    +0.000 OA
ATOM     36  C   UNL     1      -4.745  -3.554  -2.356  0.00  0.00    +0.000 C 
ATOM     37  C   UNL     1      -5.298  -4.977  -2.582  0.00  0.00    +0.000 C 
ATOM     38  C   UNL     1      -4.381  -3.128  -0.889  0.00  0.00    +0.000 C 
ATOM     39  C   UNL     1      -5.519  -5.781  -1.425  0.00  0.00    +0.000 C 
ATOM     40  C   UNL     1      -4.836  -4.203  -0.005  0.00  0.00    +0.000 C 
ATOM     41  C   UNL     1      -5.355  -5.512  -0.056  0.00  0.00    +0.000 C 
ATOM     42  C   UNL     1      -5.220  -5.714  -3.922  0.00  0.00    +0.000 C 
ATOM     43  C   UNL     1      -5.093  -1.778  -0.646  0.00  0.00    +0.000 C 
ATOM     44  C   UNL     1      -2.836  -3.002  -0.862  0.00  0.00    +0.000 C 
BRANCH  41  45
ATOM     45  O   UNL     1      -4.974  -6.461   0.843  0.00  0.00    +0.000 OA
ATOM     46  H   UNL     1      -4.974  -6.128   1.759  0.00  0.00    +0.000 HD
ENDBRANCH  41  45
ENDBRANCH  33  36
ENDBRANCH  31  34
ENDBRANCH  30  31
ENDBRANCH  28  30
ENDBRANCH  26  29
ENDBRANCH  25  26
ENDBRANCH   1  25
TORSDOF 16
ENDMDL
MODEL 3
REMARK VINA RESULT:      -7.3      0.984     12.438
REMARK  Name = 448438_Violaxanthin.pdbqt.pdb
REMARK  16 active torsions:
REMARK  status: ('A' for Active; 'I' for Inactive)
REMARK    1  A    between atoms: C_1  and  C_5
REMARK    2  A    between atoms: C_2  and  C_27
REMARK    3  A    between atoms: C_3  and  C_5
REMARK    4  A    between atoms: C_3  and  C_7
REMARK    5  A    between atoms: C_6  and  C_10
REMARK    6  A    between atoms: C_8  and  C_10
REMARK    7  A    between atoms: C_8  and  C_12
REMARK    8  A    between atoms: C_11  and  C_14
REMARK    9  A    between atoms: C_19  and  O_23
REMARK   10  A    between atoms: C_25  and  C_27
REMARK   11  A    between atoms: C_25  and  C_29
REMARK   12  A    between atoms: C_28  and  C_32
REMARK   13  A    between atoms: C_30  and  C_32
REMARK   14  A    between atoms: C_30  and  C_34
REMARK   15  A    between atoms: C_33  and  C_36
REMARK   16  A    between atoms: C_41  and  O_45
REMARK                            x       y       z     vdW  Elec       q    Type
REMARK                         _______ _______ _______ _____ _____    ______ ____
ROOT
ATOM      1  C   UNL     1      -2.359   5.482  -3.707  0.00  0.00    +0.000 C 
ATOM      2  C   UNL     1      -3.079   6.359  -3.316  0.00  0.00    +0.000 C 
ENDROOT
BRANCH   2   3
ATOM      3  C   UNL     1      -3.996   7.481  -2.815  0.00  0.00    +0.000 C 
BRANCH   3   4
ATOM      4  C   UNL     1      -4.770   8.430  -2.392  0.00  0.00    +0.000 C 
ATOM      5  C   UNL     1      -5.397   9.374  -3.375  0.00  0.00    +0.000 C 
BRANCH   4   7
ATOM      6  C   UNL     1      -5.133   8.778   0.175  0.00  0.00    +0.000 C 
ATOM      7  C   UNL     1      -4.966   8.618  -1.004  0.00  0.00    +0.000 C 
BRANCH   6   8
ATOM      8  C   UNL     1      -5.345   8.983   1.680  0.00  0.00    +0.000 C 
BRANCH   8   9
ATOM      9  C   UNL     1      -5.527   9.156   2.952  0.00  0.00    +0.000 C 
ATOM     10  C   UNL     1      -4.663  10.119   3.707  0.00  0.00    +0.000 C 
BRANCH   9  12
ATOM     11  C   UNL     1      -7.546   7.986   4.143  0.00  0.00    +0.000 C 
ATOM     12  C   UNL     1      -6.620   8.527   3.599  0.00  0.00    +0.000 C 
BRANCH  11  14
ATOM     13  O   UNL     1      -9.911   7.949   4.372  0.00  0.00    +0.000 OA
ATOM     14  C   UNL     1      -8.667   7.315   4.782  0.00  0.00    +0.000 C 
ATOM     15  C   UNL     1      -9.730   6.610   3.912  0.00  0.00    +0.000 C 
ATOM     16  C   UNL     1      -8.561   6.900   6.289  0.00  0.00    +0.000 C 
ATOM     17  C   UNL     1     -10.600   5.692   4.571  0.00  0.00    +0.000 C 
ATOM     18  C   UNL     1      -9.697   6.016   6.583  0.00  0.00    +0.000 C 
ATOM     19  C   UNL     1     -10.721   5.314   5.918  0.00  0.00    +0.000 C 
ATOM     20  C   UNL     1      -9.621   6.501   2.388  0.00  0.00    +0.000 C 
ATOM     21  C   UNL     1      -7.228   6.123   6.423  0.00  0.00    +0.000 C 
ATOM     22  C   UNL     1      -8.581   8.207   7.109  0.00  0.00    +0.000 C 
BRANCH  19  23
ATOM     23  O   UNL     1     -11.936   5.074   6.485  0.00  0.00    +0.000 OA
ATOM     24  H   UNL     1     -11.905   4.370   7.158  0.00  0.00    +0.000 HD
ENDBRANCH  19  23
ENDBRANCH  11  14
ENDBRANCH   9  12
ENDBRANCH   8   9
ENDBRANCH   6   8
ENDBRANCH   4   7
ENDBRANCH   3   4
ENDBRANCH   2   3
BRANCH   1  25
ATOM     25  C   UNL     1      -1.441   4.361  -4.208  0.00  0.00    +0.000 C 
BRANCH  25  26
ATOM     26  C   UNL     1      -0.665   3.413  -4.631  0.00  0.00    +0.000 C 
ATOM     27  C   UNL     1       0.790   3.688  -4.862  0.00  0.00    +0.000 C 
BRANCH  26  29
ATOM     28  C   UNL     1      -1.624   1.013  -5.033  0.00  0.00    +0.000 C 
ATOM     29  C   UNL     1      -1.185   2.116  -4.848  0.00  0.00    +0.000 C 
BRANCH  28  30
ATOM     30  C   UNL     1      -2.177  -0.398  -5.271  0.00  0.00    +0.000 C 
BRANCH  30  31
ATOM     31  C   UNL     1      -2.647  -1.590  -5.468  0.00  0.00    +0.000 C 
ATOM     32  C   UNL     1      -2.803  -2.110  -6.864  0.00  0.00    +0.000 C 
BRANCH  31  34
ATOM     33  C   UNL     1      -3.239  -3.121  -3.426  0.00  0.00    +0.000 C 
ATOM     34  C   UNL     1      -2.966  -2.416  -4.362  0.00  0.00    +0.000 C 
BRANCH  33  36
ATOM     35  O   UNL     1      -2.696  -3.668  -1.173  0.00  0.00    +0.000 OA
ATOM     36  C   UNL     1      -3.567  -3.980  -2.298  0.00  0.00    +0.000 C 
ATOM     37  C   UNL     1      -4.073  -3.351  -0.983  0.00  0.00    +0.000 C 
ATOM     38  C   UNL     1      -3.860  -5.502  -2.549  0.00  0.00    +0.000 C 
ATOM     39  C   UNL     1      -4.703  -4.222  -0.044  0.00  0.00    +0.000 C 
ATOM     40  C   UNL     1      -4.445  -6.035  -1.317  0.00  0.00    +0.000 C 
ATOM     41  C   UNL     1      -4.936  -5.608  -0.068  0.00  0.00    +0.000 C 
ATOM     42  C   UNL     1      -4.330  -1.853  -0.803  0.00  0.00    +0.000 C 
ATOM     43  C   UNL     1      -2.505  -6.143  -2.924  0.00  0.00    +0.000 C 
ATOM     44  C   UNL     1      -4.883  -5.543  -3.713  0.00  0.00    +0.000 C 
BRANCH  41  45
ATOM     45  O   UNL     1      -6.036  -6.180   0.495  0.00  0.00    +0.000 OA
ATOM     46  H   UNL     1      -5.817  -6.714   1.280  0.00  0.00    +0.000 HD
ENDBRANCH  41  45
ENDBRANCH  33  36
ENDBRANCH  31  34
ENDBRANCH  30  31
ENDBRANCH  28  30
ENDBRANCH  26  29
ENDBRANCH  25  26
ENDBRANCH   1  25
TORSDOF 16
ENDMDL
MODEL 4
REMARK VINA RESULT:      -6.4      5.502     12.643
REMARK  Name = 448438_Violaxanthin.pdbqt.pdb
REMARK  16 active torsions:
REMARK  status: ('A' for Active; 'I' for Inactive)
REMARK    1  A    between atoms: C_1  and  C_5
REMARK    2  A    between atoms: C_2  and  C_27
REMARK    3  A    between atoms: C_3  and  C_5
REMARK    4  A    between atoms: C_3  and  C_7
REMARK    5  A    between atoms: C_6  and  C_10
REMARK    6  A    between atoms: C_8  and  C_10
REMARK    7  A    between atoms: C_8  and  C_12
REMARK    8  A    between atoms: C_11  and  C_14
REMARK    9  A    between atoms: C_19  and  O_23
REMARK   10  A    between atoms: C_25  and  C_27
REMARK   11  A    between atoms: C_25  and  C_29
REMARK   12  A    between atoms: C_28  and  C_32
REMARK   13  A    between atoms: C_30  and  C_32
REMARK   14  A    between atoms: C_30  and  C_34
REMARK   15  A    between atoms: C_33  and  C_36
REMARK   16  A    between atoms: C_41  and  O_45
REMARK                            x       y       z     vdW  Elec       q    Type
REMARK                         _______ _______ _______ _____ _____    ______ ____
ROOT
ATOM      1  C   UNL     1      -2.317   5.444  -3.912  0.00  0.00    +0.000 C 
ATOM      2  C   UNL     1      -3.039   6.317  -3.516  0.00  0.00    +0.000 C 
ENDROOT
BRANCH   2   3
ATOM      3  C   UNL     1      -3.963   7.431  -3.013  0.00  0.00    +0.000 C 
BRANCH   3   4
ATOM      4  C   UNL     1      -4.746   8.373  -2.589  0.00  0.00    +0.000 C 
ATOM      5  C   UNL     1      -5.352   9.335  -3.566  0.00  0.00    +0.000 C 
BRANCH   4   7
ATOM      6  C   UNL     1      -5.163   8.674  -0.024  0.00  0.00    +0.000 C 
ATOM      7  C   UNL     1      -4.971   8.535  -1.202  0.00  0.00    +0.000 C 
BRANCH   6   8
ATOM      8  C   UNL     1      -5.405   8.849   1.480  0.00  0.00    +0.000 C 
BRANCH   8   9
ATOM      9  C   UNL     1      -5.611   8.995   2.752  0.00  0.00    +0.000 C 
ATOM     10  C   UNL     1      -4.852  10.034   3.518  0.00  0.00    +0.000 C 
BRANCH   9  12
ATOM     11  C   UNL     1      -7.510   7.622   3.924  0.00  0.00    +0.000 C 
ATOM     12  C   UNL     1      -6.640   8.256   3.388  0.00  0.00    +0.000 C 
BRANCH  11  14
ATOM     13  O   UNL     1      -8.015   6.156   5.725  0.00  0.00    +0.000 OA
ATOM     14  C   UNL     1      -8.557   6.835   4.558  0.00  0.00    +0.000 C 
ATOM     15  C   UNL     1      -8.986   7.164   6.004  0.00  0.00    +0.000 C 
ATOM     16  C   UNL     1      -9.547   6.010   3.669  0.00  0.00    +0.000 C 
ATOM     17  C   UNL     1     -10.222   6.611   6.453  0.00  0.00    +0.000 C 
ATOM     18  C   UNL     1     -10.640   5.551   4.537  0.00  0.00    +0.000 C 
ATOM     19  C   UNL     1     -11.148   5.754   5.835  0.00  0.00    +0.000 C 
ATOM     20  C   UNL     1      -8.423   8.350   6.792  0.00  0.00    +0.000 C 
ATOM     21  C   UNL     1     -10.086   6.995   2.604  0.00  0.00    +0.000 C 
ATOM     22  C   UNL     1      -8.730   4.850   3.059  0.00  0.00    +0.000 C 
BRANCH  19  23
ATOM     23  O   UNL     1     -11.794   4.780   6.533  0.00  0.00    +0.000 OA
ATOM     24  H   UNL     1     -11.598   3.885   6.201  0.00  0.00    +0.000 HD
ENDBRANCH  19  23
ENDBRANCH  11  14
ENDBRANCH   9  12
ENDBRANCH   8   9
ENDBRANCH   6   8
ENDBRANCH   4   7
ENDBRANCH   3   4
ENDBRANCH   2   3
BRANCH   1  25
ATOM     25  C   UNL     1      -1.393   4.328  -4.417  0.00  0.00    +0.000 C 
BRANCH  25  26
ATOM     26  C   UNL     1      -0.613   3.386  -4.844  0.00  0.00    +0.000 C 
ATOM     27  C   UNL     1      -1.123   2.390  -5.842  0.00  0.00    +0.000 C 
BRANCH  26  29
ATOM     28  C   UNL     1       1.859   3.256  -4.002  0.00  0.00    +0.000 C 
ATOM     29  C   UNL     1       0.724   3.314  -4.389  0.00  0.00    +0.000 C 
BRANCH  28  30
ATOM     30  C   UNL     1       3.310   3.189  -3.508  0.00  0.00    +0.000 C 
BRANCH  30  31
ATOM     31  C   UNL     1       4.537   3.132  -3.095  0.00  0.00    +0.000 C 
ATOM     32  C   UNL     1       5.662   3.209  -4.082  0.00  0.00    +0.000 C 
BRANCH  31  34
ATOM     33  C   UNL     1       5.043   2.975  -0.529  0.00  0.00    +0.000 C 
ATOM     34  C   UNL     1       4.814   3.046  -1.708  0.00  0.00    +0.000 C 
BRANCH  33  36
ATOM     35  O   UNL     1       6.562   3.577   1.204  0.00  0.00    +0.000 OA
ATOM     36  C   UNL     1       5.315   2.890   0.899  0.00  0.00    +0.000 C 
ATOM     37  C   UNL     1       5.386   4.182   1.740  0.00  0.00    +0.000 C 
ATOM     38  C   UNL     1       5.067   1.533   1.649  0.00  0.00    +0.000 C 
ATOM     39  C   UNL     1       5.305   4.041   3.157  0.00  0.00    +0.000 C 
ATOM     40  C   UNL     1       5.128   1.820   3.084  0.00  0.00    +0.000 C 
ATOM     41  C   UNL     1       5.200   2.906   3.978  0.00  0.00    +0.000 C 
ATOM     42  C   UNL     1       5.112   5.578   1.175  0.00  0.00    +0.000 C 
ATOM     43  C   UNL     1       6.169   0.565   1.160  0.00  0.00    +0.000 C 
ATOM     44  C   UNL     1       3.645   1.079   1.232  0.00  0.00    +0.000 C 
BRANCH  41  45
ATOM     45  O   UNL     1       4.509   2.905   5.152  0.00  0.00    +0.000 OA
ATOM     46  H   UNL     1       5.064   2.646   5.910  0.00  0.00    +0.000 HD
ENDBRANCH  41  45
ENDBRANCH  33  36
ENDBRANCH  31  34
ENDBRANCH  30  31
ENDBRANCH  28  30
ENDBRANCH  26  29
ENDBRANCH  25  26
ENDBRANCH   1  25
TORSDOF 16
ENDMDL
MODEL 5
REMARK VINA RESULT:      -6.3      1.640     13.022
REMARK  Name = 448438_Violaxanthin.pdbqt.pdb
REMARK  16 active torsions:
REMARK  status: ('A' for Active; 'I' for Inactive)
REMARK    1  A    between atoms: C_1  and  C_5
REMARK    2  A    between atoms: C_2  and  C_27
REMARK    3  A    between atoms: C_3  and  C_5
REMARK    4  A    between atoms: C_3  and  C_7
REMARK    5  A    between atoms: C_6  and  C_10
REMARK    6  A    between atoms: C_8  and  C_10
REMARK    7  A    between atoms: C_8  and  C_12
REMARK    8  A    between atoms: C_11  and  C_14
REMARK    9  A    between atoms: C_19  and  O_23
REMARK   10  A    between atoms: C_25  and  C_27
REMARK   11  A    between atoms: C_25  and  C_29
REMARK   12  A    between atoms: C_28  and  C_32
REMARK   13  A    between atoms: C_30  and  C_32
REMARK   14  A    between atoms: C_30  and  C_34
REMARK   15  A    between atoms: C_33  and  C_36
REMARK   16  A    between atoms: C_41  and  O_45
REMARK                            x       y       z     vdW  Elec       q    Type
REMARK                         _______ _______ _______ _____ _____    ______ ____
ROOT
ATOM      1  C   UNL     1      -1.510   3.620  -4.656  0.00  0.00    +0.000 C 
ATOM      2  C   UNL     1      -2.249   4.563  -4.578  0.00  0.00    +0.000 C 
ENDROOT
BRANCH   2   3
ATOM      3  C   UNL     1      -3.195   5.765  -4.479  0.00  0.00    +0.000 C 
BRANCH   3   4
ATOM      4  C   UNL     1      -3.996   6.780  -4.397  0.00  0.00    +0.000 C 
ATOM      5  C   UNL     1      -4.559   7.389  -5.646  0.00  0.00    +0.000 C 
BRANCH   4   7
ATOM      6  C   UNL     1      -4.528   7.843  -2.066  0.00  0.00    +0.000 C 
ATOM      7  C   UNL     1      -4.283   7.354  -3.136  0.00  0.00    +0.000 C 
BRANCH   6   8
ATOM      8  C   UNL     1      -4.837   8.466  -0.700  0.00  0.00    +0.000 C 
BRANCH   8   9
ATOM      9  C   UNL     1      -5.100   8.997   0.454  0.00  0.00    +0.000 C 
ATOM     10  C   UNL     1      -4.498  10.318   0.823  0.00  0.00    +0.000 C 
BRANCH   9  12
ATOM     11  C   UNL     1      -6.861   7.877   2.037  0.00  0.00    +0.000 C 
ATOM     12  C   UNL     1      -6.050   8.387   1.311  0.00  0.00    +0.000 C 
BRANCH  11  14
ATOM     13  O   UNL     1      -9.027   6.903   2.139  0.00  0.00    +0.000 OA
ATOM     14  C   UNL     1      -7.855   7.280   2.916  0.00  0.00    +0.000 C 
ATOM     15  C   UNL     1      -8.287   5.815   2.692  0.00  0.00    +0.000 C 
ATOM     16  C   UNL     1      -8.127   7.919   4.319  0.00  0.00    +0.000 C 
ATOM     17  C   UNL     1      -8.987   5.178   3.760  0.00  0.00    +0.000 C 
ATOM     18  C   UNL     1      -8.953   6.973   5.082  0.00  0.00    +0.000 C 
ATOM     19  C   UNL     1      -9.420   5.645   5.012  0.00  0.00    +0.000 C 
ATOM     20  C   UNL     1      -7.651   4.910   1.634  0.00  0.00    +0.000 C 
ATOM     21  C   UNL     1      -6.741   8.081   4.989  0.00  0.00    +0.000 C 
ATOM     22  C   UNL     1      -8.833   9.268   4.061  0.00  0.00    +0.000 C 
BRANCH  19  23
ATOM     23  O   UNL     1     -10.610   5.256   5.546  0.00  0.00    +0.000 OA
ATOM     24  H   UNL     1     -10.886   5.812   6.297  0.00  0.00    +0.000 HD
ENDBRANCH  19  23
ENDBRANCH  11  14
ENDBRANCH   9  12
ENDBRANCH   8   9
ENDBRANCH   6   8
ENDBRANCH   4   7
ENDBRANCH   3   4
ENDBRANCH   2   3
BRANCH   1  25
ATOM     25  C   UNL     1      -0.565   2.417  -4.755  0.00  0.00    +0.000 C 
BRANCH  25  26
ATOM     26  C   UNL     1       0.234   1.400  -4.839  0.00  0.00    +0.000 C 
ATOM     27  C   UNL     1       1.711   1.596  -4.672  0.00  0.00    +0.000 C 
BRANCH  26  29
ATOM     28  C   UNL     1      -0.729  -0.996  -5.252  0.00  0.00    +0.000 C 
ATOM     29  C   UNL     1      -0.289   0.105  -5.063  0.00  0.00    +0.000 C 
BRANCH  28  30
ATOM     30  C   UNL     1      -1.285  -2.405  -5.494  0.00  0.00    +0.000 C 
BRANCH  30  31
ATOM     31  C   UNL     1      -1.757  -3.596  -5.694  0.00  0.00    +0.000 C 
ATOM     32  C   UNL     1      -1.895  -4.119  -7.091  0.00  0.00    +0.000 C 
BRANCH  31  34
ATOM     33  C   UNL     1      -2.391  -5.114  -3.655  0.00  0.00    +0.000 C 
ATOM     34  C   UNL     1      -2.097  -4.416  -4.590  0.00  0.00    +0.000 C 
BRANCH  33  36
ATOM     35  O   UNL     1      -2.786  -5.168  -1.307  0.00  0.00    +0.000 OA
ATOM     36  C   UNL     1      -2.751  -5.962  -2.528  0.00  0.00    +0.000 C 
ATOM     37  C   UNL     1      -4.047  -5.675  -1.741  0.00  0.00    +0.000 C 
ATOM     38  C   UNL     1      -2.116  -7.393  -2.408  0.00  0.00    +0.000 C 
ATOM     39  C   UNL     1      -4.534  -6.710  -0.889  0.00  0.00    +0.000 C 
ATOM     40  C   UNL     1      -2.872  -8.112  -1.380  0.00  0.00    +0.000 C 
ATOM     41  C   UNL     1      -4.028  -7.985  -0.586  0.00  0.00    +0.000 C 
ATOM     42  C   UNL     1      -5.043  -4.576  -2.119  0.00  0.00    +0.000 C 
ATOM     43  C   UNL     1      -0.629  -7.174  -2.050  0.00  0.00    +0.000 C 
ATOM     44  C   UNL     1      -2.305  -8.051  -3.799  0.00  0.00    +0.000 C 
BRANCH  41  45
ATOM     45  O   UNL     1      -4.831  -9.055  -0.326  0.00  0.00    +0.000 OA
ATOM     46  H   UNL     1      -4.595  -9.835  -0.861  0.00  0.00    +0.000 HD
ENDBRANCH  41  45
ENDBRANCH  33  36
ENDBRANCH  31  34
ENDBRANCH  30  31
ENDBRANCH  28  30
ENDBRANCH  26  29
ENDBRANCH  25  26
ENDBRANCH   1  25
TORSDOF 16
ENDMDL
MODEL 6
REMARK VINA RESULT:      -6.1      6.551      9.148
REMARK  Name = 448438_Violaxanthin.pdbqt.pdb
REMARK  16 active torsions:
REMARK  status: ('A' for Active; 'I' for Inactive)
REMARK    1  A    between atoms: C_1  and  C_5
REMARK    2  A    between atoms: C_2  and  C_27
REMARK    3  A    between atoms: C_3  and  C_5
REMARK    4  A    between atoms: C_3  and  C_7
REMARK    5  A    between atoms: C_6  and  C_10
REMARK    6  A    between atoms: C_8  and  C_10
REMARK    7  A    between atoms: C_8  and  C_12
REMARK    8  A    between atoms: C_11  and  C_14
REMARK    9  A    between atoms: C_19  and  O_23
REMARK   10  A    between atoms: C_25  and  C_27
REMARK   11  A    between atoms: C_25  and  C_29
REMARK   12  A    between atoms: C_28  and  C_32
REMARK   13  A    between atoms: C_30  and  C_32
REMARK   14  A    between atoms: C_30  and  C_34
REMARK   15  A    between atoms: C_33  and  C_36
REMARK   16  A    between atoms: C_41  and  O_45
REMARK                            x       y       z     vdW  Elec       q    Type
REMARK                         _______ _______ _______ _____ _____    ______ ____
ROOT
ATOM      1  C   UNL     1      -1.352   5.803  -3.597  0.00  0.00    +0.000 C 
ATOM      2  C   UNL     1      -0.304   5.220  -3.611  0.00  0.00    +0.000 C 
ENDROOT
BRANCH   2   3
ATOM      3  C   UNL     1       1.035   4.474  -3.632  0.00  0.00    +0.000 C 
BRANCH   3   4
ATOM      4  C   UNL     1       2.166   3.842  -3.649  0.00  0.00    +0.000 C 
ATOM      5  C   UNL     1       2.363   2.690  -4.587  0.00  0.00    +0.000 C 
BRANCH   4   7
ATOM      6  C   UNL     1       4.055   4.495  -1.961  0.00  0.00    +0.000 C 
ATOM      7  C   UNL     1       3.188   4.195  -2.736  0.00  0.00    +0.000 C 
BRANCH   6   8
ATOM      8  C   UNL     1       5.160   4.878  -0.969  0.00  0.00    +0.000 C 
BRANCH   8   9
ATOM      9  C   UNL     1       6.098   5.201  -0.133  0.00  0.00    +0.000 C 
ATOM     10  C   UNL     1       7.422   5.680  -0.644  0.00  0.00    +0.000 C 
BRANCH   9  12
ATOM     11  C   UNL     1       5.599   5.222   2.439  0.00  0.00    +0.000 C 
ATOM     12  C   UNL     1       5.827   5.217   1.258  0.00  0.00    +0.000 C 
BRANCH  11  14
ATOM     13  O   UNL     1       3.914   4.958   4.094  0.00  0.00    +0.000 OA
ATOM     14  C   UNL     1       5.331   5.205   3.868  0.00  0.00    +0.000 C 
ATOM     15  C   UNL     1       4.790   3.916   4.525  0.00  0.00    +0.000 C 
ATOM     16  C   UNL     1       6.007   6.271   4.794  0.00  0.00    +0.000 C 
ATOM     17  C   UNL     1       4.867   3.835   5.947  0.00  0.00    +0.000 C 
ATOM     18  C   UNL     1       5.784   5.853   6.185  0.00  0.00    +0.000 C 
ATOM     19  C   UNL     1       5.316   4.745   6.919  0.00  0.00    +0.000 C 
ATOM     20  C   UNL     1       4.600   2.605   3.758  0.00  0.00    +0.000 C 
ATOM     21  C   UNL     1       7.518   6.230   4.457  0.00  0.00    +0.000 C 
ATOM     22  C   UNL     1       5.352   7.628   4.457  0.00  0.00    +0.000 C 
BRANCH  19  23
ATOM     23  O   UNL     1       4.690   4.872   8.121  0.00  0.00    +0.000 OA
ATOM     24  H   UNL     1       3.919   5.466   8.084  0.00  0.00    +0.000 HD
ENDBRANCH  19  23
ENDBRANCH  11  14
ENDBRANCH   9  12
ENDBRANCH   8   9
ENDBRANCH   6   8
ENDBRANCH   4   7
ENDBRANCH   3   4
ENDBRANCH   2   3
BRANCH   1  25
ATOM     25  C   UNL     1      -2.693   6.549  -3.576  0.00  0.00    +0.000 C 
BRANCH  25  26
ATOM     26  C   UNL     1      -3.825   7.179  -3.559  0.00  0.00    +0.000 C 
ATOM     27  C   UNL     1      -4.612   7.333  -4.826  0.00  0.00    +0.000 C 
BRANCH  26  29
ATOM     28  C   UNL     1      -4.758   8.140  -1.313  0.00  0.00    +0.000 C 
ATOM     29  C   UNL     1      -4.329   7.697  -2.344  0.00  0.00    +0.000 C 
BRANCH  28  30
ATOM     30  C   UNL     1      -5.307   8.712   0.000  0.00  0.00    +0.000 C 
BRANCH  30  31
ATOM     31  C   UNL     1      -5.775   9.195   1.108  0.00  0.00    +0.000 C 
ATOM     32  C   UNL     1      -5.677  10.664   1.382  0.00  0.00    +0.000 C 
BRANCH  31  34
ATOM     33  C   UNL     1      -6.965   7.613   2.824  0.00  0.00    +0.000 C 
ATOM     34  C   UNL     1      -6.422   8.340   2.035  0.00  0.00    +0.000 C 
BRANCH  33  36
ATOM     35  O   UNL     1      -6.614   6.002   4.542  0.00  0.00    +0.000 OA
ATOM     36  C   UNL     1      -7.618   6.734   3.783  0.00  0.00    +0.000 C 
ATOM     37  C   UNL     1      -7.380   6.942   5.294  0.00  0.00    +0.000 C 
ATOM     38  C   UNL     1      -8.887   5.920   3.342  0.00  0.00    +0.000 C 
ATOM     39  C   UNL     1      -8.288   6.305   6.191  0.00  0.00    +0.000 C 
ATOM     40  C   UNL     1      -9.494   5.379   4.560  0.00  0.00    +0.000 C 
ATOM     41  C   UNL     1      -9.388   5.462   5.961  0.00  0.00    +0.000 C 
ATOM     42  C   UNL     1      -6.539   8.084   5.870  0.00  0.00    +0.000 C 
ATOM     43  C   UNL     1      -8.381   4.836   2.363  0.00  0.00    +0.000 C 
ATOM     44  C   UNL     1      -9.826   6.948   2.661  0.00  0.00    +0.000 C 
BRANCH  41  45
ATOM     45  O   UNL     1     -10.494   5.459   6.757  0.00  0.00    +0.000 OA
ATOM     46  H   UNL     1     -10.825   4.559   6.930  0.00  0.00    +0.000 HD
ENDBRANCH  41  45
ENDBRANCH  33  36
ENDBRANCH  31  34
ENDBRANCH  30  31
ENDBRANCH  28  30
ENDBRANCH  26  29
ENDBRANCH  25  26
ENDBRANCH   1  25
TORSDOF 16
ENDMDL
MODEL 7
REMARK VINA RESULT:      -5.7     14.490     15.927
REMARK  Name = 448438_Violaxanthin.pdbqt.pdb
REMARK  16 active torsions:
REMARK  status: ('A' for Active; 'I' for Inactive)
REMARK    1  A    between atoms: C_1  and  C_5
REMARK    2  A    between atoms: C_2  and  C_27
REMARK    3  A    between atoms: C_3  and  C_5
REMARK    4  A    between atoms: C_3  and  C_7
REMARK    5  A    between atoms: C_6  and  C_10
REMARK    6  A    between atoms: C_8  and  C_10
REMARK    7  A    between atoms: C_8  and  C_12
REMARK    8  A    between atoms: C_11  and  C_14
REMARK    9  A    between atoms: C_19  and  O_23
REMARK   10  A    between atoms: C_25  and  C_27
REMARK   11  A    between atoms: C_25  and  C_29
REMARK   12  A    between atoms: C_28  and  C_32
REMARK   13  A    between atoms: C_30  and  C_32
REMARK   14  A    between atoms: C_30  and  C_34
REMARK   15  A    between atoms: C_33  and  C_36
REMARK   16  A    between atoms: C_41  and  O_45
REMARK                            x       y       z     vdW  Elec       q    Type
REMARK                         _______ _______ _______ _____ _____    ______ ____
ROOT
ATOM      1  C   UNL     1       6.977  -0.612   2.267  0.00  0.00    +0.000 C 
ATOM      2  C   UNL     1       7.749  -1.527   2.346  0.00  0.00    +0.000 C 
ENDROOT
BRANCH   2   3
ATOM      3  C   UNL     1       8.735  -2.696   2.450  0.00  0.00    +0.000 C 
BRANCH   3   4
ATOM      4  C   UNL     1       9.571  -3.682   2.537  0.00  0.00    +0.000 C 
ATOM      5  C   UNL     1      10.004  -4.404   1.296  0.00  0.00    +0.000 C 
BRANCH   4   7
ATOM      6  C   UNL     1      10.401  -4.493   4.881  0.00  0.00    +0.000 C 
ATOM      7  C   UNL     1      10.020  -4.120   3.805  0.00  0.00    +0.000 C 
BRANCH   6   8
ATOM      8  C   UNL     1      10.887  -4.970   6.256  0.00  0.00    +0.000 C 
BRANCH   8   9
ATOM      9  C   UNL     1      11.295  -5.372   7.419  0.00  0.00    +0.000 C 
ATOM     10  C   UNL     1      12.730  -5.756   7.616  0.00  0.00    +0.000 C 
BRANCH   9  12
ATOM     11  C   UNL     1       9.663  -5.287   9.466  0.00  0.00    +0.000 C 
ATOM     12  C   UNL     1      10.414  -5.330   8.528  0.00  0.00    +0.000 C 
BRANCH  11  14
ATOM     13  O   UNL     1       8.901  -3.932  11.264  0.00  0.00    +0.000 OA
ATOM     14  C   UNL     1       8.744  -5.213  10.592  0.00  0.00    +0.000 C 
ATOM     15  C   UNL     1       7.648  -4.127  10.610  0.00  0.00    +0.000 C 
ATOM     16  C   UNL     1       8.553  -6.464  11.515  0.00  0.00    +0.000 C 
ATOM     17  C   UNL     1       6.579  -4.303  11.538  0.00  0.00    +0.000 C 
ATOM     18  C   UNL     1       7.391  -6.202  12.376  0.00  0.00    +0.000 C 
ATOM     19  C   UNL     1       6.331  -5.284  12.512  0.00  0.00    +0.000 C 
ATOM     20  C   UNL     1       7.411  -3.160   9.446  0.00  0.00    +0.000 C 
ATOM     21  C   UNL     1       8.259  -7.651  10.566  0.00  0.00    +0.000 C 
ATOM     22  C   UNL     1       9.868  -6.635  12.305  0.00  0.00    +0.000 C 
BRANCH  19  23
ATOM     23  O   UNL     1       5.782  -4.970  13.718  0.00  0.00    +0.000 OA
ATOM     24  H   UNL     1       6.430  -4.596  14.342  0.00  0.00    +0.000 HD
ENDBRANCH  19  23
ENDBRANCH  11  14
ENDBRANCH   9  12
ENDBRANCH   8   9
ENDBRANCH   6   8
ENDBRANCH   4   7
ENDBRANCH   3   4
ENDBRANCH   2   3
BRANCH   1  25
ATOM     25  C   UNL     1       5.990   0.557   2.164  0.00  0.00    +0.000 C 
BRANCH  25  26
ATOM     26  C   UNL     1       5.156   1.546   2.076  0.00  0.00    +0.000 C 
ATOM     27  C   UNL     1       4.395   1.769   0.804  0.00  0.00    +0.000 C 
BRANCH  26  29
ATOM     28  C   UNL     1       4.770   3.120   4.128  0.00  0.00    +0.000 C 
ATOM     29  C   UNL     1       4.947   2.395   3.187  0.00  0.00    +0.000 C 
BRANCH  28  30
ATOM     30  C   UNL     1       4.549   4.050   5.328  0.00  0.00    +0.000 C 
BRANCH  30  31
ATOM     31  C   UNL     1       4.358   4.836   6.341  0.00  0.00    +0.000 C 
ATOM     32  C   UNL     1       3.645   6.140   6.150  0.00  0.00    +0.000 C 
BRANCH  31  34
ATOM     33  C   UNL     1       5.138   4.095   8.730  0.00  0.00    +0.000 C 
ATOM     34  C   UNL     1       4.780   4.438   7.634  0.00  0.00    +0.000 C 
BRANCH  33  36
ATOM     35  O   UNL     1       6.663   4.530  10.507  0.00  0.00    +0.000 OA
ATOM     36  C   UNL     1       5.574   3.675  10.053  0.00  0.00    +0.000 C 
ATOM     37  C   UNL     1       5.447   4.649  11.244  0.00  0.00    +0.000 C 
ATOM     38  C   UNL     1       5.717   2.143  10.366  0.00  0.00    +0.000 C 
ATOM     39  C   UNL     1       5.553   4.094  12.554  0.00  0.00    +0.000 C 
ATOM     40  C   UNL     1       5.867   2.013  11.817  0.00  0.00    +0.000 C 
ATOM     41  C   UNL     1       5.792   2.782  12.995  0.00  0.00    +0.000 C 
ATOM     42  C   UNL     1       4.810   6.037  11.139  0.00  0.00    +0.000 C 
ATOM     43  C   UNL     1       6.947   1.655   9.566  0.00  0.00    +0.000 C 
ATOM     44  C   UNL     1       4.395   1.493   9.883  0.00  0.00    +0.000 C 
BRANCH  41  45
ATOM     45  O   UNL     1       5.250   2.277  14.137  0.00  0.00    +0.000 OA
ATOM     46  H   UNL     1       5.927   2.025  14.791  0.00  0.00    +0.000 HD
ENDBRANCH  41  45
ENDBRANCH  33  36
ENDBRANCH  31  34
ENDBRANCH  30  31
ENDBRANCH  28  30
ENDBRANCH  26  29
ENDBRANCH  25  26
ENDBRANCH   1  25
TORSDOF 16
ENDMDL
MODEL 8
REMARK VINA RESULT:      -5.4     25.411     30.949
REMARK  Name = 448438_Violaxanthin.pdbqt.pdb
REMARK  16 active torsions:
REMARK  status: ('A' for Active; 'I' for Inactive)
REMARK    1  A    between atoms: C_1  and  C_5
REMARK    2  A    between atoms: C_2  and  C_27
REMARK    3  A    between atoms: C_3  and  C_5
REMARK    4  A    between atoms: C_3  and  C_7
REMARK    5  A    between atoms: C_6  and  C_10
REMARK    6  A    between atoms: C_8  and  C_10
REMARK    7  A    between atoms: C_8  and  C_12
REMARK    8  A    between atoms: C_11  and  C_14
REMARK    9  A    between atoms: C_19  and  O_23
REMARK   10  A    between atoms: C_25  and  C_27
REMARK   11  A    between atoms: C_25  and  C_29
REMARK   12  A    between atoms: C_28  and  C_32
REMARK   13  A    between atoms: C_30  and  C_32
REMARK   14  A    between atoms: C_30  and  C_34
REMARK   15  A    between atoms: C_33  and  C_36
REMARK   16  A    between atoms: C_41  and  O_45
REMARK                            x       y       z     vdW  Elec       q    Type
REMARK                         _______ _______ _______ _____ _____    ______ ____
ROOT
ATOM      1  C   UNL     1     -17.543 -11.742  25.536  0.00  0.00    +0.000 C 
ATOM      2  C   UNL     1     -18.636 -11.845  25.052  0.00  0.00    +0.000 C 
ENDROOT
BRANCH   2   3
ATOM      3  C   UNL     1     -20.033 -11.974  24.434  0.00  0.00    +0.000 C 
BRANCH   3   4
ATOM      4  C   UNL     1     -21.215 -12.084  23.914  0.00  0.00    +0.000 C 
ATOM      5  C   UNL     1     -21.915 -13.410  23.927  0.00  0.00    +0.000 C 
BRANCH   4   7
ATOM      6  C   UNL     1     -22.320 -10.029  22.731  0.00  0.00    +0.000 C 
ATOM      7  C   UNL     1     -21.812 -10.973  23.274  0.00  0.00    +0.000 C 
BRANCH   6   8
ATOM      8  C   UNL     1     -22.967  -8.825  22.036  0.00  0.00    +0.000 C 
BRANCH   8   9
ATOM      9  C   UNL     1     -23.515  -7.805  21.451  0.00  0.00    +0.000 C 
ATOM     10  C   UNL     1     -25.004  -7.738  21.308  0.00  0.00    +0.000 C 
BRANCH   9  12
ATOM     11  C   UNL     1     -22.030  -5.773  20.725  0.00  0.00    +0.000 C 
ATOM     12  C   UNL     1     -22.714  -6.703  21.060  0.00  0.00    +0.000 C 
BRANCH  11  14
ATOM     13  O   UNL     1     -19.812  -5.125  20.169  0.00  0.00    +0.000 OA
ATOM     14  C   UNL     1     -21.184  -4.664  20.310  0.00  0.00    +0.000 C 
ATOM     15  C   UNL     1     -20.450  -4.733  18.954  0.00  0.00    +0.000 C 
ATOM     16  C   UNL     1     -21.382  -3.256  20.967  0.00  0.00    +0.000 C 
ATOM     17  C   UNL     1     -19.924  -3.510  18.442  0.00  0.00    +0.000 C 
ATOM     18  C   UNL     1     -20.604  -2.289  20.179  0.00  0.00    +0.000 C 
ATOM     19  C   UNL     1     -19.898  -2.205  18.962  0.00  0.00    +0.000 C 
ATOM     20  C   UNL     1     -20.634  -5.885  17.963  0.00  0.00    +0.000 C 
ATOM     21  C   UNL     1     -22.894  -2.943  20.858  0.00  0.00    +0.000 C 
ATOM     22  C   UNL     1     -20.895  -3.378  22.427  0.00  0.00    +0.000 C 
BRANCH  19  23
ATOM     23  O   UNL     1     -18.822  -1.389  18.793  0.00  0.00    +0.000 OA
ATOM     24  H   UNL     1     -19.015  -0.624  18.223  0.00  0.00    +0.000 HD
ENDBRANCH  19  23
ENDBRANCH  11  14
ENDBRANCH   9  12
ENDBRANCH   8   9
ENDBRANCH   6   8
ENDBRANCH   4   7
ENDBRANCH   3   4
ENDBRANCH   2   3
BRANCH   1  25
ATOM     25  C   UNL     1     -16.146 -11.611  26.155  0.00  0.00    +0.000 C 
BRANCH  25  26
ATOM     26  C   UNL     1     -14.965 -11.501  26.678  0.00  0.00    +0.000 C 
ATOM     27  C   UNL     1     -14.141 -12.729  26.924  0.00  0.00    +0.000 C 
BRANCH  26  29
ATOM     28  C   UNL     1     -14.002  -9.140  27.256  0.00  0.00    +0.000 C 
ATOM     29  C   UNL     1     -14.446 -10.224  26.991  0.00  0.00    +0.000 C 
BRANCH  28  30
ATOM     30  C   UNL     1     -13.427  -7.758  27.594  0.00  0.00    +0.000 C 
BRANCH  30  31
ATOM     31  C   UNL     1     -12.947  -6.588  27.879  0.00  0.00    +0.000 C 
ATOM     32  C   UNL     1     -13.871  -5.476  28.268  0.00  0.00    +0.000 C 
BRANCH  31  34
ATOM     33  C   UNL     1     -10.357  -6.193  27.859  0.00  0.00    +0.000 C 
ATOM     34  C   UNL     1     -11.546  -6.378  27.869  0.00  0.00    +0.000 C 
BRANCH  33  36
ATOM     35  O   UNL     1      -8.642  -4.601  27.416  0.00  0.00    +0.000 OA
ATOM     36  C   UNL     1      -8.920  -5.964  27.849  0.00  0.00    +0.000 C 
ATOM     37  C   UNL     1      -8.313  -4.888  28.774  0.00  0.00    +0.000 C 
ATOM     38  C   UNL     1      -7.966  -7.079  27.289  0.00  0.00    +0.000 C 
ATOM     39  C   UNL     1      -6.903  -4.935  28.990  0.00  0.00    +0.000 C 
ATOM     40  C   UNL     1      -6.603  -6.713  27.678  0.00  0.00    +0.000 C 
ATOM     41  C   UNL     1      -5.908  -5.785  28.479  0.00  0.00    +0.000 C 
ATOM     42  C   UNL     1      -9.131  -4.075  29.780  0.00  0.00    +0.000 C 
ATOM     43  C   UNL     1      -8.193  -7.109  25.761  0.00  0.00    +0.000 C 
ATOM     44  C   UNL     1      -8.408  -8.393  27.984  0.00  0.00    +0.000 C 
BRANCH  41  45
ATOM     45  O   UNL     1      -4.810  -6.151  29.197  0.00  0.00    +0.000 OA
ATOM     46  H   UNL     1      -4.361  -5.387  29.603  0.00  0.00    +0.000 HD
ENDBRANCH  41  45
ENDBRANCH  33  36
ENDBRANCH  31  34
ENDBRANCH  30  31
ENDBRANCH  28  30
ENDBRANCH  26  29
ENDBRANCH  25  26
ENDBRANCH   1  25
TORSDOF 16
ENDMDL
MODEL 9
REMARK VINA RESULT:      -5.3     23.975     29.324
REMARK  Name = 448438_Violaxanthin.pdbqt.pdb
REMARK  16 active torsions:
REMARK  status: ('A' for Active; 'I' for Inactive)
REMARK    1  A    between atoms: C_1  and  C_5
REMARK    2  A    between atoms: C_2  and  C_27
REMARK    3  A    between atoms: C_3  and  C_5
REMARK    4  A    between atoms: C_3  and  C_7
REMARK    5  A    between atoms: C_6  and  C_10
REMARK    6  A    between atoms: C_8  and  C_10
REMARK    7  A    between atoms: C_8  and  C_12
REMARK    8  A    between atoms: C_11  and  C_14
REMARK    9  A    between atoms: C_19  and  O_23
REMARK   10  A    between atoms: C_25  and  C_27
REMARK   11  A    between atoms: C_25  and  C_29
REMARK   12  A    between atoms: C_28  and  C_32
REMARK   13  A    between atoms: C_30  and  C_32
REMARK   14  A    between atoms: C_30  and  C_34
REMARK   15  A    between atoms: C_33  and  C_36
REMARK   16  A    between atoms: C_41  and  O_45
REMARK                            x       y       z     vdW  Elec       q    Type
REMARK                         _______ _______ _______ _____ _____    ______ ____
ROOT
ATOM      1  C   UNL     1     -19.764  -2.140  22.544  0.00  0.00    +0.000 C 
ATOM      2  C   UNL     1     -19.642  -2.119  23.738  0.00  0.00    +0.000 C 
ENDROOT
BRANCH   2   3
ATOM      3  C   UNL     1     -19.486  -2.094  25.263  0.00  0.00    +0.000 C 
BRANCH   3   4
ATOM      4  C   UNL     1     -19.352  -2.071  26.551  0.00  0.00    +0.000 C 
ATOM      5  C   UNL     1     -20.475  -1.570  27.408  0.00  0.00    +0.000 C 
BRANCH   4   7
ATOM      6  C   UNL     1     -17.083  -2.778  27.644  0.00  0.00    +0.000 C 
ATOM      7  C   UNL     1     -18.125  -2.453  27.143  0.00  0.00    +0.000 C 
BRANCH   6   8
ATOM      8  C   UNL     1     -15.752  -3.193  28.283  0.00  0.00    +0.000 C 
BRANCH   8   9
ATOM      9  C   UNL     1     -14.625  -3.541  28.824  0.00  0.00    +0.000 C 
ATOM     10  C   UNL     1     -14.015  -2.687  29.893  0.00  0.00    +0.000 C 
BRANCH   9  12
ATOM     11  C   UNL     1     -13.549  -5.847  28.204  0.00  0.00    +0.000 C 
ATOM     12  C   UNL     1     -14.039  -4.787  28.491  0.00  0.00    +0.000 C 
BRANCH  11  14
ATOM     13  O   UNL     1     -12.489  -7.090  26.478  0.00  0.00    +0.000 OA
ATOM     14  C   UNL     1     -12.978  -7.137  27.848  0.00  0.00    +0.000 C 
ATOM     15  C   UNL     1     -11.482  -7.231  27.479  0.00  0.00    +0.000 C 
ATOM     16  C   UNL     1     -13.711  -8.451  28.281  0.00  0.00    +0.000 C 
ATOM     17  C   UNL     1     -10.898  -8.532  27.475  0.00  0.00    +0.000 C 
ATOM     18  C   UNL     1     -12.789  -9.570  28.037  0.00  0.00    +0.000 C 
ATOM     19  C   UNL     1     -11.441  -9.807  27.705  0.00  0.00    +0.000 C 
ATOM     20  C   UNL     1     -10.527  -6.036  27.555  0.00  0.00    +0.000 C 
ATOM     21  C   UNL     1     -13.986  -8.305  29.797  0.00  0.00    +0.000 C 
ATOM     22  C   UNL     1     -15.002  -8.535  27.439  0.00  0.00    +0.000 C 
BRANCH  19  23
ATOM     23  O   UNL     1     -11.040 -10.894  26.989  0.00  0.00    +0.000 OA
ATOM     24  H   UNL     1     -11.735 -11.572  26.913  0.00  0.00    +0.000 HD
ENDBRANCH  19  23
ENDBRANCH  11  14
ENDBRANCH   9  12
ENDBRANCH   8   9
ENDBRANCH   6   8
ENDBRANCH   4   7
ENDBRANCH   3   4
ENDBRANCH   2   3
BRANCH   1  25
ATOM     25  C   UNL     1     -19.921  -2.166  21.019  0.00  0.00    +0.000 C 
BRANCH  25  26
ATOM     26  C   UNL     1     -20.054  -2.187  19.730  0.00  0.00    +0.000 C 
ATOM     27  C   UNL     1     -20.497  -0.952  19.005  0.00  0.00    +0.000 C 
BRANCH  26  29
ATOM     28  C   UNL     1     -19.503  -4.365  18.390  0.00  0.00    +0.000 C 
ATOM     29  C   UNL     1     -19.755  -3.365  19.007  0.00  0.00    +0.000 C 
BRANCH  28  30
ATOM     30  C   UNL     1     -19.185  -5.638  17.596  0.00  0.00    +0.000 C 
BRANCH  30  31
ATOM     31  C   UNL     1     -18.910  -6.713  16.926  0.00  0.00    +0.000 C 
ATOM     32  C   UNL     1     -17.547  -7.326  17.023  0.00  0.00    +0.000 C 
BRANCH  31  34
ATOM     33  C   UNL     1     -20.770  -7.856  15.477  0.00  0.00    +0.000 C 
ATOM     34  C   UNL     1     -19.914  -7.332  16.140  0.00  0.00    +0.000 C 
BRANCH  33  36
ATOM     35  O   UNL     1     -21.822  -9.921  14.929  0.00  0.00    +0.000 OA
ATOM     36  C   UNL     1     -21.811  -8.487  14.678  0.00  0.00    +0.000 C 
ATOM     37  C   UNL     1     -22.976  -9.215  15.380  0.00  0.00    +0.000 C 
ATOM     38  C   UNL     1     -22.011  -8.041  13.186  0.00  0.00    +0.000 C 
ATOM     39  C   UNL     1     -24.130  -9.507  14.594  0.00  0.00    +0.000 C 
ATOM     40  C   UNL     1     -23.287  -8.605  12.737  0.00  0.00    +0.000 C 
ATOM     41  C   UNL     1     -24.416  -9.282  13.237  0.00  0.00    +0.000 C 
ATOM     42  C   UNL     1     -23.156  -9.258  16.900  0.00  0.00    +0.000 C 
ATOM     43  C   UNL     1     -20.786  -8.576  12.410  0.00  0.00    +0.000 C 
ATOM     44  C   UNL     1     -22.068  -6.492  13.217  0.00  0.00    +0.000 C 
BRANCH  41  45
ATOM     45  O   UNL     1     -25.669  -9.000  12.784  0.00  0.00    +0.000 OA
ATOM     46  H   UNL     1     -26.182  -8.467  13.418  0.00  0.00    +0.000 HD
ENDBRANCH  41  45
ENDBRANCH  33  36
ENDBRANCH  31  34
ENDBRANCH  30  31
ENDBRANCH  28  30
ENDBRANCH  26  29
ENDBRANCH  25  26
ENDBRANCH   1  25
TORSDOF 16
ENDMDL
