MODEL 1
REMARK VINA RESULT:      -6.9      0.000      0.000
REMARK  Name = 490561_Nocardiopsis.pdbqt.pdb
REMARK  3 active torsions:
REMARK  status: ('A' for Active; 'I' for Inactive)
REMARK    1  A    between atoms: C_7  and  O_32
REMARK    2  A    between atoms: C_7  and  C_35
REMARK    3  A    between atoms: C_35  and  O_36
REMARK                            x       y       z     vdW  Elec       q    Type
REMARK                         _______ _______ _______ _____ _____    ______ ____
ROOT
ATOM      1  O   UNL     1     -10.734  -3.348  29.946  0.00  0.00    +0.000 OA
ATOM      2  O   UNL     1     -15.176  -8.764  27.179  0.00  0.00    +0.000 OA
ATOM      3  N   UNL     1      -9.964  -4.589  28.086  0.00  0.00    +0.000 N 
ATOM      4  N   UNL     1     -12.760  -4.088  29.057  0.00  0.00    +0.000 N 
ATOM      5  N   UNL     1     -13.105  -9.352  26.307  0.00  0.00    +0.000 N 
ATOM      6  C   UNL     1      -9.820  -3.300  28.794  0.00  0.00    +0.000 C 
ATOM      7  C   UNL     1     -10.333  -2.057  27.946  0.00  0.00    +0.000 C 
ATOM      8  C   UNL     1     -11.985  -2.997  29.409  0.00  0.00    +0.000 C 
ATOM      9  C   UNL     1     -11.723  -2.047  28.392  0.00  0.00    +0.000 C 
ATOM     10  C   UNL     1     -11.033  -5.443  27.983  0.00  0.00    +0.000 A 
ATOM     11  C   UNL     1     -12.332  -5.227  28.444  0.00  0.00    +0.000 A 
ATOM     12  C   UNL     1     -10.884  -6.639  27.275  0.00  0.00    +0.000 A 
ATOM     13  C   UNL     1     -13.259  -6.224  28.123  0.00  0.00    +0.000 A 
ATOM     14  C   UNL     1      -8.393  -3.121  29.410  0.00  0.00    +0.000 C 
ATOM     15  C   UNL     1      -9.027  -5.282  27.280  0.00  0.00    +0.000 A 
ATOM     16  C   UNL     1     -14.144  -4.335  29.108  0.00  0.00    +0.000 A 
ATOM     17  C   UNL     1      -9.560  -6.539  26.808  0.00  0.00    +0.000 A 
ATOM     18  C   UNL     1     -11.789  -7.661  26.962  0.00  0.00    +0.000 A 
ATOM     19  C   UNL     1     -13.120  -7.443  27.428  0.00  0.00    +0.000 A 
ATOM     20  C   UNL     1     -14.464  -5.639  28.570  0.00  0.00    +0.000 A 
ATOM     21  C   UNL     1     -11.821  -8.945  26.216  0.00  0.00    +0.000 C 
ATOM     22  C   UNL     1      -7.728  -4.892  26.912  0.00  0.00    +0.000 A 
ATOM     23  C   UNL     1     -13.989  -8.524  27.017  0.00  0.00    +0.000 C 
ATOM     24  C   UNL     1     -15.151  -3.496  29.609  0.00  0.00    +0.000 A 
ATOM     25  C   UNL     1      -8.745  -7.354  25.998  0.00  0.00    +0.000 A 
ATOM     26  C   UNL     1     -15.818  -6.031  28.558  0.00  0.00    +0.000 A 
ATOM     27  C   UNL     1      -6.959  -5.734  26.109  0.00  0.00    +0.000 A 
ATOM     28  C   UNL     1      -7.453  -6.949  25.662  0.00  0.00    +0.000 A 
ATOM     29  C   UNL     1     -16.472  -3.940  29.578  0.00  0.00    +0.000 A 
ATOM     30  C   UNL     1     -16.804  -5.185  29.063  0.00  0.00    +0.000 A 
ATOM     31  H   UNL     1     -13.435 -10.209  25.889  0.00  0.00    +0.000 HD
ENDROOT
BRANCH   7  32
ATOM     32  O   UNL     1     -10.303  -2.244  26.523  0.00  0.00    +0.000 OA
ATOM     33  H   UNL     1      -9.389  -2.045  26.223  0.00  0.00    +0.000 HD
ENDBRANCH   7  32
BRANCH   7  35
ATOM     34  O   UNL     1      -9.892  -0.181  29.378  0.00  0.00    +0.000 OA
ATOM     35  C   UNL     1      -9.609  -0.769  28.331  0.00  0.00    +0.000 C 
BRANCH  35  36
ATOM     36  O   UNL     1      -8.639  -0.443  27.424  0.00  0.00    +0.000 OA
ATOM     37  C   UNL     1      -7.541   0.298  27.883  0.00  0.00    +0.000 C 
ENDBRANCH  35  36
ENDBRANCH   7  35
TORSDOF 3
ENDMDL
MODEL 2
REMARK VINA RESULT:      -6.5     13.484     15.992
REMARK  Name = 490561_Nocardiopsis.pdbqt.pdb
REMARK  3 active torsions:
REMARK  status: ('A' for Active; 'I' for Inactive)
REMARK    1  A    between atoms: C_7  and  O_32
REMARK    2  A    between atoms: C_7  and  C_35
REMARK    3  A    between atoms: C_35  and  O_36
REMARK                            x       y       z     vdW  Elec       q    Type
REMARK                         _______ _______ _______ _____ _____    ______ ____
ROOT
ATOM      1  O   UNL     1      -2.138 -18.229  21.113  0.00  0.00    +0.000 OA
ATOM      2  O   UNL     1      -8.668 -16.607  24.499  0.00  0.00    +0.000 OA
ATOM      3  N   UNL     1      -3.737 -16.962  19.917  0.00  0.00    +0.000 N 
ATOM      4  N   UNL     1      -3.368 -17.320  22.874  0.00  0.00    +0.000 N 
ATOM      5  N   UNL     1      -9.190 -16.264  22.262  0.00  0.00    +0.000 N 
ATOM      6  C   UNL     1      -2.294 -17.262  20.015  0.00  0.00    +0.000 C 
ATOM      7  C   UNL     1      -1.423 -16.014  20.475  0.00  0.00    +0.000 C 
ATOM      8  C   UNL     1      -2.127 -17.435  22.274  0.00  0.00    +0.000 C 
ATOM      9  C   UNL     1      -1.476 -16.229  21.918  0.00  0.00    +0.000 C 
ATOM     10  C   UNL     1      -4.723 -16.967  20.872  0.00  0.00    +0.000 A 
ATOM     11  C   UNL     1      -4.564 -17.148  22.246  0.00  0.00    +0.000 A 
ATOM     12  C   UNL     1      -6.038 -16.682  20.495  0.00  0.00    +0.000 A 
ATOM     13  C   UNL     1      -5.728 -17.011  23.010  0.00  0.00    +0.000 A 
ATOM     14  C   UNL     1      -1.756 -17.995  18.743  0.00  0.00    +0.000 C 
ATOM     15  C   UNL     1      -4.495 -16.547  18.794  0.00  0.00    +0.000 A 
ATOM     16  C   UNL     1      -3.776 -17.241  24.219  0.00  0.00    +0.000 A 
ATOM     17  C   UNL     1      -5.895 -16.404  19.123  0.00  0.00    +0.000 A 
ATOM     18  C   UNL     1      -7.221 -16.563  21.236  0.00  0.00    +0.000 A 
ATOM     19  C   UNL     1      -7.063 -16.743  22.643  0.00  0.00    +0.000 A 
ATOM     20  C   UNL     1      -5.210 -17.080  24.323  0.00  0.00    +0.000 A 
ATOM     21  C   UNL     1      -8.655 -16.242  21.023  0.00  0.00    +0.000 C 
ATOM     22  C   UNL     1      -4.052 -16.271  17.489  0.00  0.00    +0.000 A 
ATOM     23  C   UNL     1      -8.324 -16.555  23.327  0.00  0.00    +0.000 C 
ATOM     24  C   UNL     1      -2.975 -17.314  25.368  0.00  0.00    +0.000 A 
ATOM     25  C   UNL     1      -6.788 -16.004  18.107  0.00  0.00    +0.000 A 
ATOM     26  C   UNL     1      -5.770 -16.990  25.613  0.00  0.00    +0.000 A 
ATOM     27  C   UNL     1      -4.974 -15.880  16.519  0.00  0.00    +0.000 A 
ATOM     28  C   UNL     1      -6.321 -15.754  16.817  0.00  0.00    +0.000 A 
ATOM     29  C   UNL     1      -3.585 -17.227  26.619  0.00  0.00    +0.000 A 
ATOM     30  C   UNL     1      -4.957 -17.068  26.743  0.00  0.00    +0.000 A 
ATOM     31  H   UNL     1     -10.166 -16.080  22.436  0.00  0.00    +0.000 HD
ENDROOT
BRANCH   7  32
ATOM     32  O   UNL     1      -1.998 -14.733  20.174  0.00  0.00    +0.000 OA
ATOM     33  H   UNL     1      -1.805 -14.542  19.230  0.00  0.00    +0.000 HD
ENDBRANCH   7  32
BRANCH   7  35
ATOM     34  O   UNL     1       0.825 -16.854  20.468  0.00  0.00    +0.000 OA
ATOM     35  C   UNL     1       0.008 -16.094  19.946  0.00  0.00    +0.000 C 
BRANCH  35  36
ATOM     36  O   UNL     1       0.190 -15.290  18.855  0.00  0.00    +0.000 OA
ATOM     37  C   UNL     1       1.435 -14.664  18.707  0.00  0.00    +0.000 C 
ENDBRANCH  35  36
ENDBRANCH   7  35
TORSDOF 3
ENDMDL
MODEL 3
REMARK VINA RESULT:      -6.5      1.805      2.944
REMARK  Name = 490561_Nocardiopsis.pdbqt.pdb
REMARK  3 active torsions:
REMARK  status: ('A' for Active; 'I' for Inactive)
REMARK    1  A    between atoms: C_7  and  O_32
REMARK    2  A    between atoms: C_7  and  C_35
REMARK    3  A    between atoms: C_35  and  O_36
REMARK                            x       y       z     vdW  Elec       q    Type
REMARK                         _______ _______ _______ _____ _____    ______ ____
ROOT
ATOM      1  O   UNL     1     -12.811  -4.280  30.585  0.00  0.00    +0.000 OA
ATOM      2  O   UNL     1     -12.312 -10.155  25.899  0.00  0.00    +0.000 OA
ATOM      3  N   UNL     1     -11.144  -4.239  28.909  0.00  0.00    +0.000 N 
ATOM      4  N   UNL     1     -13.736  -5.747  29.025  0.00  0.00    +0.000 N 
ATOM      5  N   UNL     1     -10.230  -9.159  25.641  0.00  0.00    +0.000 N 
ATOM      6  C   UNL     1     -11.963  -3.380  29.789  0.00  0.00    +0.000 C 
ATOM      7  C   UNL     1     -13.000  -2.475  28.993  0.00  0.00    +0.000 C 
ATOM      8  C   UNL     1     -13.895  -4.572  29.738  0.00  0.00    +0.000 C 
ATOM      9  C   UNL     1     -14.133  -3.397  28.985  0.00  0.00    +0.000 C 
ATOM     10  C   UNL     1     -11.398  -5.475  28.370  0.00  0.00    +0.000 A 
ATOM     11  C   UNL     1     -12.594  -6.191  28.432  0.00  0.00    +0.000 A 
ATOM     12  C   UNL     1     -10.415  -6.095  27.593  0.00  0.00    +0.000 A 
ATOM     13  C   UNL     1     -12.615  -7.392  27.713  0.00  0.00    +0.000 A 
ATOM     14  C   UNL     1     -11.093  -2.605  30.833  0.00  0.00    +0.000 C 
ATOM     15  C   UNL     1      -9.865  -3.993  28.349  0.00  0.00    +0.000 A 
ATOM     16  C   UNL     1     -14.638  -6.745  28.613  0.00  0.00    +0.000 A 
ATOM     17  C   UNL     1      -9.399  -5.122  27.575  0.00  0.00    +0.000 A 
ATOM     18  C   UNL     1     -10.405  -7.304  26.885  0.00  0.00    +0.000 A 
ATOM     19  C   UNL     1     -11.627  -8.038  26.941  0.00  0.00    +0.000 A 
ATOM     20  C   UNL     1     -13.971  -7.767  27.837  0.00  0.00    +0.000 A 
ATOM     21  C   UNL     1      -9.499  -8.084  26.005  0.00  0.00    +0.000 C 
ATOM     22  C   UNL     1      -9.068  -2.841  28.454  0.00  0.00    +0.000 A 
ATOM     23  C   UNL     1     -11.537  -9.242  26.144  0.00  0.00    +0.000 C 
ATOM     24  C   UNL     1     -16.012  -6.830  28.884  0.00  0.00    +0.000 A 
ATOM     25  C   UNL     1      -8.135  -5.038  26.958  0.00  0.00    +0.000 A 
ATOM     26  C   UNL     1     -14.747  -8.840  27.356  0.00  0.00    +0.000 A 
ATOM     27  C   UNL     1      -7.823  -2.807  27.826  0.00  0.00    +0.000 A 
ATOM     28  C   UNL     1      -7.359  -3.888  27.094  0.00  0.00    +0.000 A 
ATOM     29  C   UNL     1     -16.729  -7.918  28.388  0.00  0.00    +0.000 A 
ATOM     30  C   UNL     1     -16.111  -8.908  27.638  0.00  0.00    +0.000 A 
ATOM     31  H   UNL     1      -9.872  -9.880  25.034  0.00  0.00    +0.000 HD
ENDROOT
BRANCH   7  32
ATOM     32  O   UNL     1     -12.630  -2.182  27.638  0.00  0.00    +0.000 OA
ATOM     33  H   UNL     1     -11.691  -1.894  27.648  0.00  0.00    +0.000 HD
ENDBRANCH   7  32
BRANCH   7  35
ATOM     34  O   UNL     1     -14.087  -1.209  30.719  0.00  0.00    +0.000 OA
ATOM     35  C   UNL     1     -13.327  -1.188  29.748  0.00  0.00    +0.000 C 
BRANCH  35  36
ATOM     36  O   UNL     1     -12.645  -0.117  29.241  0.00  0.00    +0.000 OA
ATOM     37  C   UNL     1     -13.375   1.048  28.965  0.00  0.00    +0.000 C 
ENDBRANCH  35  36
ENDBRANCH   7  35
TORSDOF 3
ENDMDL
MODEL 4
REMARK VINA RESULT:      -6.2      2.736      6.352
REMARK  Name = 490561_Nocardiopsis.pdbqt.pdb
REMARK  3 active torsions:
REMARK  status: ('A' for Active; 'I' for Inactive)
REMARK    1  A    between atoms: C_7  and  O_32
REMARK    2  A    between atoms: C_7  and  C_35
REMARK    3  A    between atoms: C_35  and  O_36
REMARK                            x       y       z     vdW  Elec       q    Type
REMARK                         _______ _______ _______ _____ _____    ______ ____
ROOT
ATOM      1  O   UNL     1     -14.592  -4.020  28.352  0.00  0.00    +0.000 OA
ATOM      2  O   UNL     1     -10.369  -9.800  26.006  0.00  0.00    +0.000 OA
ATOM      3  N   UNL     1     -15.465  -6.207  28.567  0.00  0.00    +0.000 N 
ATOM      4  N   UNL     1     -12.620  -5.268  28.378  0.00  0.00    +0.000 N 
ATOM      5  N   UNL     1     -12.487 -10.751  26.076  0.00  0.00    +0.000 N 
ATOM      6  C   UNL     1     -15.555  -4.835  29.108  0.00  0.00    +0.000 C 
ATOM      7  C   UNL     1     -15.059  -4.720  30.614  0.00  0.00    +0.000 C 
ATOM      8  C   UNL     1     -13.360  -4.266  28.983  0.00  0.00    +0.000 C 
ATOM      9  C   UNL     1     -13.650  -4.432  30.359  0.00  0.00    +0.000 C 
ATOM     10  C   UNL     1     -14.416  -6.878  27.991  0.00  0.00    +0.000 A 
ATOM     11  C   UNL     1     -13.094  -6.445  27.883  0.00  0.00    +0.000 A 
ATOM     12  C   UNL     1     -14.617  -8.178  27.518  0.00  0.00    +0.000 A 
ATOM     13  C   UNL     1     -12.199  -7.369  27.333  0.00  0.00    +0.000 A 
ATOM     14  C   UNL     1     -16.950  -4.183  28.832  0.00  0.00    +0.000 C 
ATOM     15  C   UNL     1     -16.448  -7.227  28.532  0.00  0.00    +0.000 A 
ATOM     16  C   UNL     1     -11.239  -5.448  28.176  0.00  0.00    +0.000 A 
ATOM     17  C   UNL     1     -15.958  -8.415  27.871  0.00  0.00    +0.000 A 
ATOM     18  C   UNL     1     -13.744  -9.111  26.943  0.00  0.00    +0.000 A 
ATOM     19  C   UNL     1     -12.390  -8.674  26.834  0.00  0.00    +0.000 A 
ATOM     20  C   UNL     1     -10.965  -6.706  27.519  0.00  0.00    +0.000 A 
ATOM     21  C   UNL     1     -13.766 -10.504  26.428  0.00  0.00    +0.000 C 
ATOM     22  C   UNL     1     -17.755  -7.203  29.048  0.00  0.00    +0.000 A 
ATOM     23  C   UNL     1     -11.559  -9.718  26.276  0.00  0.00    +0.000 C 
ATOM     24  C   UNL     1     -10.197  -4.573  28.519  0.00  0.00    +0.000 A 
ATOM     25  C   UNL     1     -16.822  -9.521  27.747  0.00  0.00    +0.000 A 
ATOM     26  C   UNL     1      -9.621  -7.026  27.244  0.00  0.00    +0.000 A 
ATOM     27  C   UNL     1     -18.573  -8.323  28.898  0.00  0.00    +0.000 A 
ATOM     28  C   UNL     1     -18.120  -9.462  28.253  0.00  0.00    +0.000 A 
ATOM     29  C   UNL     1      -8.886  -4.939  28.217  0.00  0.00    +0.000 A 
ATOM     30  C   UNL     1      -8.599  -6.143  27.590  0.00  0.00    +0.000 A 
ATOM     31  H   UNL     1     -12.190 -11.633  25.687  0.00  0.00    +0.000 HD
ENDROOT
BRANCH   7  32
ATOM     32  O   UNL     1     -15.156  -5.932  31.375  0.00  0.00    +0.000 OA
ATOM     33  H   UNL     1     -14.285  -6.076  31.807  0.00  0.00    +0.000 HD
ENDBRANCH   7  32
BRANCH   7  35
ATOM     34  O   UNL     1     -16.759  -3.773  32.020  0.00  0.00    +0.000 OA
ATOM     35  C   UNL     1     -15.744  -3.570  31.351  0.00  0.00    +0.000 C 
BRANCH  35  36
ATOM     36  O   UNL     1     -15.062  -2.395  31.199  0.00  0.00    +0.000 OA
ATOM     37  C   UNL     1     -15.786  -1.272  30.777  0.00  0.00    +0.000 C 
ENDBRANCH  35  36
ENDBRANCH   7  35
TORSDOF 3
ENDMDL
MODEL 5
REMARK VINA RESULT:      -5.6     31.642     34.710
REMARK  Name = 490561_Nocardiopsis.pdbqt.pdb
REMARK  3 active torsions:
REMARK  status: ('A' for Active; 'I' for Inactive)
REMARK    1  A    between atoms: C_7  and  O_32
REMARK    2  A    between atoms: C_7  and  C_35
REMARK    3  A    between atoms: C_35  and  O_36
REMARK                            x       y       z     vdW  Elec       q    Type
REMARK                         _______ _______ _______ _____ _____    ______ ____
ROOT
ATOM      1  O   UNL     1       9.587  -2.227  -0.214  0.00  0.00    +0.000 OA
ATOM      2  O   UNL     1       4.066  -2.995  -5.279  0.00  0.00    +0.000 OA
ATOM      3  N   UNL     1       7.438  -1.410   0.337  0.00  0.00    +0.000 N 
ATOM      4  N   UNL     1       8.260  -3.528  -1.625  0.00  0.00    +0.000 N 
ATOM      5  N   UNL     1       3.217  -1.337  -3.893  0.00  0.00    +0.000 N 
ATOM      6  C   UNL     1       8.709  -1.893   0.917  0.00  0.00    +0.000 C 
ATOM      7  C   UNL     1       8.557  -3.265   1.705  0.00  0.00    +0.000 C 
ATOM      8  C   UNL     1       9.185  -3.519  -0.595  0.00  0.00    +0.000 C 
ATOM      9  C   UNL     1       8.815  -4.183   0.600  0.00  0.00    +0.000 C 
ATOM     10  C   UNL     1       6.819  -1.714  -0.849  0.00  0.00    +0.000 A 
ATOM     11  C   UNL     1       7.202  -2.684  -1.775  0.00  0.00    +0.000 A 
ATOM     12  C   UNL     1       5.623  -1.069  -1.178  0.00  0.00    +0.000 A 
ATOM     13  C   UNL     1       6.337  -2.855  -2.862  0.00  0.00    +0.000 A 
ATOM     14  C   UNL     1       9.462  -0.771   1.705  0.00  0.00    +0.000 C 
ATOM     15  C   UNL     1       6.485  -0.513   0.881  0.00  0.00    +0.000 A 
ATOM     16  C   UNL     1       8.050  -4.394  -2.714  0.00  0.00    +0.000 A 
ATOM     17  C   UNL     1       5.397  -0.274  -0.040  0.00  0.00    +0.000 A 
ATOM     18  C   UNL     1       4.754  -1.207  -2.268  0.00  0.00    +0.000 A 
ATOM     19  C   UNL     1       5.139  -2.201  -3.216  0.00  0.00    +0.000 A 
ATOM     20  C   UNL     1       6.902  -3.986  -3.493  0.00  0.00    +0.000 A 
ATOM     21  C   UNL     1       3.464  -0.654  -2.755  0.00  0.00    +0.000 C 
ATOM     22  C   UNL     1       6.488   0.115   2.138  0.00  0.00    +0.000 A 
ATOM     23  C   UNL     1       4.160  -2.303  -4.276  0.00  0.00    +0.000 C 
ATOM     24  C   UNL     1       8.808  -5.515  -3.082  0.00  0.00    +0.000 A 
ATOM     25  C   UNL     1       4.367   0.606   0.350  0.00  0.00    +0.000 A 
ATOM     26  C   UNL     1       6.566  -4.757  -4.623  0.00  0.00    +0.000 A 
ATOM     27  C   UNL     1       5.447   0.978   2.477  0.00  0.00    +0.000 A 
ATOM     28  C   UNL     1       4.405   1.227   1.598  0.00  0.00    +0.000 A 
ATOM     29  C   UNL     1       8.433  -6.237  -4.215  0.00  0.00    +0.000 A 
ATOM     30  C   UNL     1       7.333  -5.867  -4.974  0.00  0.00    +0.000 A 
ATOM     31  H   UNL     1       2.396  -1.176  -4.456  0.00  0.00    +0.000 HD
ENDROOT
BRANCH   7  32
ATOM     32  O   UNL     1       7.244  -3.520   2.226  0.00  0.00    +0.000 OA
ATOM     33  H   UNL     1       7.156  -4.493   2.330  0.00  0.00    +0.000 HD
ENDBRANCH   7  32
BRANCH   7  35
ATOM     34  O   UNL     1       9.360  -3.022   3.955  0.00  0.00    +0.000 OA
ATOM     35  C   UNL     1       9.605  -3.404   2.808  0.00  0.00    +0.000 C 
BRANCH  35  36
ATOM     36  O   UNL     1      10.736  -4.025   2.356  0.00  0.00    +0.000 OA
ATOM     37  C   UNL     1      11.967  -3.409   2.621  0.00  0.00    +0.000 C 
ENDBRANCH  35  36
ENDBRANCH   7  35
TORSDOF 3
ENDMDL
MODEL 6
REMARK VINA RESULT:      -5.4     31.018     35.139
REMARK  Name = 490561_Nocardiopsis.pdbqt.pdb
REMARK  3 active torsions:
REMARK  status: ('A' for Active; 'I' for Inactive)
REMARK    1  A    between atoms: C_7  and  O_32
REMARK    2  A    between atoms: C_7  and  C_35
REMARK    3  A    between atoms: C_35  and  O_36
REMARK                            x       y       z     vdW  Elec       q    Type
REMARK                         _______ _______ _______ _____ _____    ______ ____
ROOT
ATOM      1  O   UNL     1       6.500 -20.032   2.499  0.00  0.00    +0.000 OA
ATOM      2  O   UNL     1      12.201 -16.117  -0.486  0.00  0.00    +0.000 OA
ATOM      3  N   UNL     1       7.836 -18.719   3.942  0.00  0.00    +0.000 N 
ATOM      4  N   UNL     1       7.351 -18.468   0.991  0.00  0.00    +0.000 N 
ATOM      5  N   UNL     1      12.786 -16.179   1.760  0.00  0.00    +0.000 N 
ATOM      6  C   UNL     1       6.501 -19.335   3.795  0.00  0.00    +0.000 C 
ATOM      7  C   UNL     1       5.330 -18.269   3.660  0.00  0.00    +0.000 C 
ATOM      8  C   UNL     1       6.218 -19.021   1.563  0.00  0.00    +0.000 C 
ATOM      9  C   UNL     1       5.328 -18.127   2.207  0.00  0.00    +0.000 C 
ATOM     10  C   UNL     1       8.724 -18.262   3.001  0.00  0.00    +0.000 A 
ATOM     11  C   UNL     1       8.514 -18.156   1.626  0.00  0.00    +0.000 A 
ATOM     12  C   UNL     1       9.958 -17.755   3.418  0.00  0.00    +0.000 A 
ATOM     13  C   UNL     1       9.555 -17.564   0.901  0.00  0.00    +0.000 A 
ATOM     14  C   UNL     1       6.245 -20.450   4.861  0.00  0.00    +0.000 C 
ATOM     15  C   UNL     1       8.554 -18.399   5.122  0.00  0.00    +0.000 A 
ATOM     16  C   UNL     1       7.631 -17.985  -0.300  0.00  0.00    +0.000 A 
ATOM     17  C   UNL     1       9.853 -17.843   4.818  0.00  0.00    +0.000 A 
ATOM     18  C   UNL     1      11.022 -17.181   2.711  0.00  0.00    +0.000 A 
ATOM     19  C   UNL     1      10.811 -17.067   1.304  0.00  0.00    +0.000 A 
ATOM     20  C   UNL     1       8.974 -17.456  -0.382  0.00  0.00    +0.000 A 
ATOM     21  C   UNL     1      12.352 -16.574   2.975  0.00  0.00    +0.000 C 
ATOM     22  C   UNL     1       8.153 -18.548   6.460  0.00  0.00    +0.000 A 
ATOM     23  C   UNL     1      11.939 -16.422   0.668  0.00  0.00    +0.000 C 
ATOM     24  C   UNL     1       6.789 -17.988  -1.423  0.00  0.00    +0.000 A 
ATOM     25  C   UNL     1      10.696 -17.480   5.888  0.00  0.00    +0.000 A 
ATOM     26  C   UNL     1       9.403 -16.938  -1.620  0.00  0.00    +0.000 A 
ATOM     27  C   UNL     1       9.024 -18.175   7.484  0.00  0.00    +0.000 A 
ATOM     28  C   UNL     1      10.277 -17.655   7.206  0.00  0.00    +0.000 A 
ATOM     29  C   UNL     1       7.269 -17.468  -2.624  0.00  0.00    +0.000 A 
ATOM     30  C   UNL     1       8.553 -16.952  -2.725  0.00  0.00    +0.000 A 
ATOM     31  H   UNL     1      13.677 -15.725   1.622  0.00  0.00    +0.000 HD
ENDROOT
BRANCH   7  32
ATOM     32  O   UNL     1       5.606 -16.991   4.251  0.00  0.00    +0.000 OA
ATOM     33  H   UNL     1       6.031 -17.158   5.121  0.00  0.00    +0.000 HD
ENDBRANCH   7  32
BRANCH   7  35
ATOM     34  O   UNL     1       3.328 -19.581   3.475  0.00  0.00    +0.000 OA
ATOM     35  C   UNL     1       4.000 -18.819   4.173  0.00  0.00    +0.000 C 
BRANCH  35  36
ATOM     36  O   UNL     1       3.739 -18.402   5.449  0.00  0.00    +0.000 OA
ATOM     37  C   UNL     1       2.515 -18.777   6.019  0.00  0.00    +0.000 C 
ENDBRANCH  35  36
ENDBRANCH   7  35
TORSDOF 3
ENDMDL
MODEL 7
REMARK VINA RESULT:      -5.4     26.302     29.855
REMARK  Name = 490561_Nocardiopsis.pdbqt.pdb
REMARK  3 active torsions:
REMARK  status: ('A' for Active; 'I' for Inactive)
REMARK    1  A    between atoms: C_7  and  O_32
REMARK    2  A    between atoms: C_7  and  C_35
REMARK    3  A    between atoms: C_35  and  O_36
REMARK                            x       y       z     vdW  Elec       q    Type
REMARK                         _______ _______ _______ _____ _____    ______ ____
ROOT
ATOM      1  O   UNL     1       3.514 -21.449   5.991  0.00  0.00    +0.000 OA
ATOM      2  O   UNL     1      -2.850 -21.874   9.997  0.00  0.00    +0.000 OA
ATOM      3  N   UNL     1       1.468 -20.986   4.899  0.00  0.00    +0.000 N 
ATOM      4  N   UNL     1       2.186 -20.837   7.809  0.00  0.00    +0.000 N 
ATOM      5  N   UNL     1      -3.645 -22.006   7.819  0.00  0.00    +0.000 N 
ATOM      6  C   UNL     1       2.924 -20.738   4.847  0.00  0.00    +0.000 C 
ATOM      7  C   UNL     1       3.310 -19.217   5.097  0.00  0.00    +0.000 C 
ATOM      8  C   UNL     1       3.329 -20.572   7.075  0.00  0.00    +0.000 C 
ATOM      9  C   UNL     1       3.460 -19.264   6.548  0.00  0.00    +0.000 C 
ATOM     10  C   UNL     1       0.636 -21.229   5.963  0.00  0.00    +0.000 A 
ATOM     11  C   UNL     1       0.963 -21.178   7.318  0.00  0.00    +0.000 A 
ATOM     12  C   UNL     1      -0.719 -21.478   5.725  0.00  0.00    +0.000 A 
ATOM     13  C   UNL     1      -0.102 -21.376   8.203  0.00  0.00    +0.000 A 
ATOM     14  C   UNL     1       3.586 -21.376   3.581  0.00  0.00    +0.000 C 
ATOM     15  C   UNL     1       0.520 -21.005   3.846  0.00  0.00    +0.000 A 
ATOM     16  C   UNL     1       1.891 -20.750   9.182  0.00  0.00    +0.000 A 
ATOM     17  C   UNL     1      -0.802 -21.332   4.328  0.00  0.00    +0.000 A 
ATOM     18  C   UNL     1      -1.796 -21.702   6.591  0.00  0.00    +0.000 A 
ATOM     19  C   UNL     1      -1.467 -21.647   7.979  0.00  0.00    +0.000 A 
ATOM     20  C   UNL     1       0.513 -21.100   9.445  0.00  0.00    +0.000 A 
ATOM     21  C   UNL     1      -3.261 -21.942   6.527  0.00  0.00    +0.000 C 
ATOM     22  C   UNL     1       0.722 -20.745   2.479  0.00  0.00    +0.000 A 
ATOM     23  C   UNL     1      -2.648 -21.841   8.792  0.00  0.00    +0.000 C 
ATOM     24  C   UNL     1       2.756 -20.397  10.229  0.00  0.00    +0.000 A 
ATOM     25  C   UNL     1      -1.860 -21.400   3.398  0.00  0.00    +0.000 A 
ATOM     26  C   UNL     1       0.068 -21.064  10.781  0.00  0.00    +0.000 A 
ATOM     27  C   UNL     1      -0.357 -20.826   1.599  0.00  0.00    +0.000 A 
ATOM     28  C   UNL     1      -1.626 -21.154   2.046  0.00  0.00    +0.000 A 
ATOM     29  C   UNL     1       2.262 -20.385  11.534  0.00  0.00    +0.000 A 
ATOM     30  C   UNL     1       0.942 -20.713  11.808  0.00  0.00    +0.000 A 
ATOM     31  H   UNL     1      -4.603 -22.164   8.094  0.00  0.00    +0.000 HD
ENDROOT
BRANCH   7  32
ATOM     32  O   UNL     1       2.283 -18.271   4.766  0.00  0.00    +0.000 OA
ATOM     33  H   UNL     1       1.420 -18.699   4.956  0.00  0.00    +0.000 HD
ENDBRANCH   7  32
BRANCH   7  35
ATOM     34  O   UNL     1       5.701 -19.205   4.880  0.00  0.00    +0.000 OA
ATOM     35  C   UNL     1       4.622 -18.843   4.408  0.00  0.00    +0.000 C 
BRANCH  35  36
ATOM     36  O   UNL     1       4.405 -18.150   3.250  0.00  0.00    +0.000 OA
ATOM     37  C   UNL     1       5.398 -17.253   2.832  0.00  0.00    +0.000 C 
ENDBRANCH  35  36
ENDBRANCH   7  35
TORSDOF 3
ENDMDL
MODEL 8
REMARK VINA RESULT:      -5.3     14.034     16.460
REMARK  Name = 490561_Nocardiopsis.pdbqt.pdb
REMARK  3 active torsions:
REMARK  status: ('A' for Active; 'I' for Inactive)
REMARK    1  A    between atoms: C_7  and  O_32
REMARK    2  A    between atoms: C_7  and  C_35
REMARK    3  A    between atoms: C_35  and  O_36
REMARK                            x       y       z     vdW  Elec       q    Type
REMARK                         _______ _______ _______ _____ _____    ______ ____
ROOT
ATOM      1  O   UNL     1      -6.599 -18.777  21.655  0.00  0.00    +0.000 OA
ATOM      2  O   UNL     1      -0.463 -15.383  18.906  0.00  0.00    +0.000 OA
ATOM      3  N   UNL     1      -5.068 -17.819  23.182  0.00  0.00    +0.000 N 
ATOM      4  N   UNL     1      -5.566 -17.193  20.289  0.00  0.00    +0.000 N 
ATOM      5  N   UNL     1       0.148 -15.761  21.114  0.00  0.00    +0.000 N 
ATOM      6  C   UNL     1      -6.478 -18.228  23.014  0.00  0.00    +0.000 C 
ATOM      7  C   UNL     1      -7.493 -17.004  23.027  0.00  0.00    +0.000 C 
ATOM      8  C   UNL     1      -6.754 -17.644  20.837  0.00  0.00    +0.000 C 
ATOM      9  C   UNL     1      -7.500 -16.710  21.597  0.00  0.00    +0.000 C 
ATOM     10  C   UNL     1      -4.143 -17.390  22.264  0.00  0.00    +0.000 A 
ATOM     11  C   UNL     1      -4.360 -17.111  20.915  0.00  0.00    +0.000 A 
ATOM     12  C   UNL     1      -2.843 -17.103  22.691  0.00  0.00    +0.000 A 
ATOM     13  C   UNL     1      -3.260 -16.594  20.222  0.00  0.00    +0.000 A 
ATOM     14  C   UNL     1      -6.869 -19.404  23.969  0.00  0.00    +0.000 C 
ATOM     15  C   UNL     1      -4.293 -17.726  24.364  0.00  0.00    +0.000 A 
ATOM     16  C   UNL     1      -5.244 -16.618  19.045  0.00  0.00    +0.000 A 
ATOM     17  C   UNL     1      -2.935 -17.324  24.078  0.00  0.00    +0.000 A 
ATOM     18  C   UNL     1      -1.722 -16.608  22.013  0.00  0.00    +0.000 A 
ATOM     19  C   UNL     1      -1.940 -16.318  20.633  0.00  0.00    +0.000 A 
ATOM     20  C   UNL     1      -3.842 -16.272  18.975  0.00  0.00    +0.000 A 
ATOM     21  C   UNL     1      -0.316 -16.220  22.296  0.00  0.00    +0.000 C 
ATOM     22  C   UNL     1      -4.687 -17.960  25.693  0.00  0.00    +0.000 A 
ATOM     23  C   UNL     1      -0.744 -15.769  20.031  0.00  0.00    +0.000 C 
ATOM     24  C   UNL     1      -6.098 -16.388  17.956  0.00  0.00    +0.000 A 
ATOM     25  C   UNL     1      -2.031 -17.194  25.151  0.00  0.00    +0.000 A 
ATOM     26  C   UNL     1      -3.367 -15.689  17.784  0.00  0.00    +0.000 A 
ATOM     27  C   UNL     1      -3.755 -17.820  26.721  0.00  0.00    +0.000 A 
ATOM     28  C   UNL     1      -2.446 -17.449  26.458  0.00  0.00    +0.000 A 
ATOM     29  C   UNL     1      -5.571 -15.814  16.799  0.00  0.00    +0.000 A 
ATOM     30  C   UNL     1      -4.230 -15.470  16.711  0.00  0.00    +0.000 A 
ATOM     31  H   UNL     1       1.090 -15.421  20.995  0.00  0.00    +0.000 HD
ENDROOT
BRANCH   7  32
ATOM     32  O   UNL     1      -7.031 -15.845  23.737  0.00  0.00    +0.000 OA
ATOM     33  H   UNL     1      -6.718 -16.148  24.618  0.00  0.00    +0.000 HD
ENDBRANCH   7  32
BRANCH   7  35
ATOM     34  O   UNL     1      -9.174 -17.301  24.714  0.00  0.00    +0.000 OA
ATOM     35  C   UNL     1      -8.876 -17.418  23.524  0.00  0.00    +0.000 C 
BRANCH  35  36
ATOM     36  O   UNL     1      -9.674 -17.847  22.499  0.00  0.00    +0.000 OA
ATOM     37  C   UNL     1     -10.352 -19.063  22.667  0.00  0.00    +0.000 C 
ENDBRANCH  35  36
ENDBRANCH   7  35
TORSDOF 3
ENDMDL
MODEL 9
REMARK VINA RESULT:      -5.3     27.157     30.366
REMARK  Name = 490561_Nocardiopsis.pdbqt.pdb
REMARK  3 active torsions:
REMARK  status: ('A' for Active; 'I' for Inactive)
REMARK    1  A    between atoms: C_7  and  O_32
REMARK    2  A    between atoms: C_7  and  C_35
REMARK    3  A    between atoms: C_35  and  O_36
REMARK                            x       y       z     vdW  Elec       q    Type
REMARK                         _______ _______ _______ _____ _____    ______ ____
ROOT
ATOM      1  O   UNL     1       2.557 -18.746   4.354  0.00  0.00    +0.000 OA
ATOM      2  O   UNL     1      -2.140 -21.597   9.506  0.00  0.00    +0.000 OA
ATOM      3  N   UNL     1       3.471 -20.034   6.114  0.00  0.00    +0.000 N 
ATOM      4  N   UNL     1       0.701 -20.024   4.957  0.00  0.00    +0.000 N 
ATOM      5  N   UNL     1      -0.098 -21.706  10.606  0.00  0.00    +0.000 N 
ATOM      6  C   UNL     1       3.714 -19.573   4.731  0.00  0.00    +0.000 C 
ATOM      7  C   UNL     1       3.709 -20.752   3.666  0.00  0.00    +0.000 C 
ATOM      8  C   UNL     1       1.584 -19.677   3.950  0.00  0.00    +0.000 C 
ATOM      9  C   UNL     1       2.289 -20.737   3.328  0.00  0.00    +0.000 C 
ATOM     10  C   UNL     1       2.300 -20.277   6.787  0.00  0.00    +0.000 A 
ATOM     11  C   UNL     1       1.007 -20.260   6.263  0.00  0.00    +0.000 A 
ATOM     12  C   UNL     1       2.354 -20.672   8.127  0.00  0.00    +0.000 A 
ATOM     13  C   UNL     1      -0.007 -20.639   7.149  0.00  0.00    +0.000 A 
ATOM     14  C   UNL     1       4.949 -18.617   4.637  0.00  0.00    +0.000 C 
ATOM     15  C   UNL     1       4.403 -20.389   7.120  0.00  0.00    +0.000 A 
ATOM     16  C   UNL     1      -0.673 -20.329   4.962  0.00  0.00    +0.000 A 
ATOM     17  C   UNL     1       3.741 -20.747   8.354  0.00  0.00    +0.000 A 
ATOM     18  C   UNL     1       1.353 -21.033   9.038  0.00  0.00    +0.000 A 
ATOM     19  C   UNL     1       0.030 -21.021   8.506  0.00  0.00    +0.000 A 
ATOM     20  C   UNL     1      -1.128 -20.679   6.289  0.00  0.00    +0.000 A 
ATOM     21  C   UNL     1       1.226 -21.499  10.443  0.00  0.00    +0.000 C 
ATOM     22  C   UNL     1       5.805 -20.434   7.041  0.00  0.00    +0.000 A 
ATOM     23  C   UNL     1      -0.926 -21.452   9.503  0.00  0.00    +0.000 C 
ATOM     24  C   UNL     1      -1.564 -20.308   3.878  0.00  0.00    +0.000 A 
ATOM     25  C   UNL     1       4.532 -21.118   9.459  0.00  0.00    +0.000 A 
ATOM     26  C   UNL     1      -2.488 -21.006   6.454  0.00  0.00    +0.000 A 
ATOM     27  C   UNL     1       6.545 -20.806   8.164  0.00  0.00    +0.000 A 
ATOM     28  C   UNL     1       5.923 -21.137   9.356  0.00  0.00    +0.000 A 
ATOM     29  C   UNL     1      -2.901 -20.634   4.101  0.00  0.00    +0.000 A 
ATOM     30  C   UNL     1      -3.359 -20.977   5.365  0.00  0.00    +0.000 A 
ATOM     31  H   UNL     1      -0.494 -22.031  11.476  0.00  0.00    +0.000 HD
ENDROOT
BRANCH   7  32
ATOM     32  O   UNL     1       4.047 -22.043   4.193  0.00  0.00    +0.000 OA
ATOM     33  H   UNL     1       3.710 -22.714   3.561  0.00  0.00    +0.000 HD
ENDBRANCH   7  32
BRANCH   7  35
ATOM     34  O   UNL     1       4.207 -19.597   1.621  0.00  0.00    +0.000 OA
ATOM     35  C   UNL     1       4.580 -20.426   2.454  0.00  0.00    +0.000 C 
BRANCH  35  36
ATOM     36  O   UNL     1       5.764 -21.109   2.483  0.00  0.00    +0.000 OA
ATOM     37  C   UNL     1       6.915 -20.435   2.054  0.00  0.00    +0.000 C 
ENDBRANCH  35  36
ENDBRANCH   7  35
TORSDOF 3
ENDMDL
