MODEL 1
REMARK VINA RESULT:      -5.9      0.000      0.000
REMARK  Name = 50922675_Encorafenib.pdbqt.pdb
REMARK  8 active torsions:
REMARK  status: ('A' for Active; 'I' for Inactive)
REMARK    1  A    between atoms: N_1  and  C_37
REMARK    2  A    between atoms: C_3  and  C_23
REMARK    3  A    between atoms: C_4  and  C_8
REMARK    4  A    between atoms: C_11  and  N_14
REMARK    5  A    between atoms: N_14  and  S_16
REMARK    6  A    between atoms: N_20  and  C_28
REMARK    7  A    between atoms: C_28  and  C_29
REMARK    8  A    between atoms: C_33  and  O_35
REMARK                            x       y       z     vdW  Elec       q    Type
REMARK                         _______ _______ _______ _____ _____    ______ ____
ROOT
ATOM      1  N   UNL     1      -8.745 -11.114   1.371  0.00  0.00    +0.000 N 
ATOM      2  N   UNL     1      -9.464  -9.993   1.737  0.00  0.00    +0.000 NA
ATOM      3  C   UNL     1     -10.813 -11.824   1.935  0.00  0.00    +0.000 A 
ATOM      4  C   UNL     1     -10.684 -10.417   2.099  0.00  0.00    +0.000 A 
ATOM      5  C   UNL     1      -9.579 -12.219   1.477  0.00  0.00    +0.000 A 
ENDROOT
BRANCH   4   8
ATOM      6 CL   UNL     1     -14.566  -7.271   0.851  0.00  0.00    +0.000 Cl
ATOM      7  F   UNL     1     -10.898  -9.489   4.796  0.00  0.00    +0.000 F 
ATOM      8  C   UNL     1     -11.670  -9.436   2.537  0.00  0.00    +0.000 A 
ATOM      9  C   UNL     1     -11.728  -8.992   3.864  0.00  0.00    +0.000 A 
ATOM     10  C   UNL     1     -12.544  -8.878   1.604  0.00  0.00    +0.000 A 
ATOM     11  C   UNL     1     -12.658  -8.025   4.259  0.00  0.00    +0.000 A 
ATOM     12  C   UNL     1     -13.466  -7.913   1.996  0.00  0.00    +0.000 A 
ATOM     13  C   UNL     1     -13.517  -7.472   3.313  0.00  0.00    +0.000 A 
BRANCH  11  14
ATOM     14  N   UNL     1     -12.630  -7.513   5.601  0.00  0.00    +0.000 N 
ATOM     15  H   UNL     1     -11.700  -7.556   6.029  0.00  0.00    +0.000 HD
BRANCH  14  16
ATOM     16  S   UNL     1     -13.731  -8.134   6.701  0.00  0.00    +0.000 S 
ATOM     17  O   UNL     1     -14.274  -9.388   6.252  0.00  0.00    +0.000 OA
ATOM     18  O   UNL     1     -13.465  -7.771   8.075  0.00  0.00    +0.000 OA
ATOM     19  C   UNL     1     -15.194  -7.165   6.490  0.00  0.00    +0.000 C 
ENDBRANCH  14  16
ENDBRANCH  11  14
ENDBRANCH   4   8
BRANCH   3  23
ATOM     20  N   UNL     1     -12.844 -15.025   4.802  0.00  0.00    +0.000 N 
ATOM     21  N   UNL     1     -11.854 -13.433   3.347  0.00  0.00    +0.000 NA
ATOM     22  N   UNL     1     -13.861 -14.534   2.772  0.00  0.00    +0.000 NA
ATOM     23  C   UNL     1     -11.899 -12.758   2.184  0.00  0.00    +0.000 A 
ATOM     24  C   UNL     1     -12.843 -14.305   3.607  0.00  0.00    +0.000 A 
ATOM     25  C   UNL     1     -12.904 -12.928   1.259  0.00  0.00    +0.000 A 
ATOM     26  C   UNL     1     -13.864 -13.840   1.620  0.00  0.00    +0.000 A 
ATOM     27  H   UNL     1     -13.511 -15.784   4.718  0.00  0.00    +0.000 HD
BRANCH  20  28
ATOM     28  C   UNL     1     -11.547 -15.301   5.408  0.00  0.00    +0.000 C 
BRANCH  28  29
ATOM     29  C   UNL     1     -10.235 -15.482   5.915  0.00  0.00    +0.000 C 
ATOM     30  C   UNL     1      -9.103 -15.508   4.934  0.00  0.00    +0.000 C 
ATOM     31  O   UNL     1     -11.963 -15.443   8.213  0.00  0.00    +0.000 OA
ATOM     32  N   UNL     1      -9.892 -15.423   7.223  0.00  0.00    +0.000 N 
ATOM     33  C   UNL     1     -10.742 -15.367   8.297  0.00  0.00    +0.000 C 
ATOM     34  H   UNL     1      -8.893 -15.381   7.404  0.00  0.00    +0.000 HD
BRANCH  33  35
ATOM     35  O   UNL     1     -10.016 -15.230   9.457  0.00  0.00    +0.000 OA
ATOM     36  C   UNL     1     -10.190 -16.189  10.469  0.00  0.00    +0.000 C 
ENDBRANCH  33  35
ENDBRANCH  28  29
ENDBRANCH  20  28
ENDBRANCH   3  23
BRANCH   1  37
ATOM     37  C   UNL     1      -7.397 -11.185   0.942  0.00  0.00    +0.000 C 
ATOM     38  C   UNL     1      -6.940 -12.169  -0.121  0.00  0.00    +0.000 C 
ATOM     39  C   UNL     1      -6.323 -10.274   1.501  0.00  0.00    +0.000 C 
ENDBRANCH   1  37
TORSDOF 8
ENDMDL
MODEL 2
REMARK VINA RESULT:      -5.6     23.412     25.759
REMARK  Name = 50922675_Encorafenib.pdbqt.pdb
REMARK  8 active torsions:
REMARK  status: ('A' for Active; 'I' for Inactive)
REMARK    1  A    between atoms: N_1  and  C_37
REMARK    2  A    between atoms: C_3  and  C_23
REMARK    3  A    between atoms: C_4  and  C_8
REMARK    4  A    between atoms: C_11  and  N_14
REMARK    5  A    between atoms: N_14  and  S_16
REMARK    6  A    between atoms: N_20  and  C_28
REMARK    7  A    between atoms: C_28  and  C_29
REMARK    8  A    between atoms: C_33  and  O_35
REMARK                            x       y       z     vdW  Elec       q    Type
REMARK                         _______ _______ _______ _____ _____    ______ ____
ROOT
ATOM      1  N   UNL     1      -6.841  -7.646  28.903  0.00  0.00    +0.000 N 
ATOM      2  N   UNL     1      -8.161  -8.025  28.761  0.00  0.00    +0.000 NA
ATOM      3  C   UNL     1      -7.813  -6.122  27.550  0.00  0.00    +0.000 A 
ATOM      4  C   UNL     1      -8.732  -7.136  27.935  0.00  0.00    +0.000 A 
ATOM      5  C   UNL     1      -6.643  -6.478  28.178  0.00  0.00    +0.000 A 
ENDROOT
BRANCH   4   8
ATOM      6 CL   UNL     1     -12.396  -9.920  25.621  0.00  0.00    +0.000 Cl
ATOM      7  F   UNL     1     -10.742  -5.238  28.668  0.00  0.00    +0.000 F 
ATOM      8  C   UNL     1     -10.143  -7.289  27.602  0.00  0.00    +0.000 A 
ATOM      9  C   UNL     1     -11.094  -6.325  27.962  0.00  0.00    +0.000 A 
ATOM     10  C   UNL     1     -10.557  -8.393  26.855  0.00  0.00    +0.000 A 
ATOM     11  C   UNL     1     -12.438  -6.471  27.604  0.00  0.00    +0.000 A 
ATOM     12  C   UNL     1     -11.893  -8.536  26.496  0.00  0.00    +0.000 A 
ATOM     13  C   UNL     1     -12.832  -7.575  26.851  0.00  0.00    +0.000 A 
BRANCH  11  14
ATOM     14  N   UNL     1     -13.373  -5.421  27.897  0.00  0.00    +0.000 N 
ATOM     15  H   UNL     1     -13.001  -4.486  27.707  0.00  0.00    +0.000 HD
BRANCH  14  16
ATOM     16  S   UNL     1     -14.073  -5.395  29.419  0.00  0.00    +0.000 S 
ATOM     17  O   UNL     1     -13.187  -4.821  30.396  0.00  0.00    +0.000 OA
ATOM     18  O   UNL     1     -15.514  -5.271  29.408  0.00  0.00    +0.000 OA
ATOM     19  C   UNL     1     -13.994  -7.064  29.995  0.00  0.00    +0.000 C 
ENDBRANCH  14  16
ENDBRANCH  11  14
ENDBRANCH   4   8
BRANCH   3  23
ATOM     20  N   UNL     1      -9.388  -1.688  26.880  0.00  0.00    +0.000 N 
ATOM     21  N   UNL     1      -8.589  -3.902  27.183  0.00  0.00    +0.000 NA
ATOM     22  N   UNL     1      -8.202  -2.725  25.174  0.00  0.00    +0.000 NA
ATOM     23  C   UNL     1      -7.921  -4.958  26.684  0.00  0.00    +0.000 A 
ATOM     24  C   UNL     1      -8.709  -2.811  26.407  0.00  0.00    +0.000 A 
ATOM     25  C   UNL     1      -7.367  -4.967  25.424  0.00  0.00    +0.000 A 
ATOM     26  C   UNL     1      -7.545  -3.806  24.715  0.00  0.00    +0.000 A 
ATOM     27  H   UNL     1      -9.580  -1.076  26.095  0.00  0.00    +0.000 HD
BRANCH  20  28
ATOM     28  C   UNL     1     -10.443  -1.918  27.860  0.00  0.00    +0.000 C 
BRANCH  28  29
ATOM     29  C   UNL     1     -11.421  -2.043  28.879  0.00  0.00    +0.000 C 
ATOM     30  C   UNL     1     -12.861  -1.899  28.489  0.00  0.00    +0.000 C 
ATOM     31  O   UNL     1      -8.887  -2.476  30.169  0.00  0.00    +0.000 OA
ATOM     32  N   UNL     1     -11.183  -2.490  30.134  0.00  0.00    +0.000 N 
ATOM     33  C   UNL     1      -9.960  -2.723  30.709  0.00  0.00    +0.000 C 
ATOM     34  H   UNL     1     -12.013  -2.702  30.679  0.00  0.00    +0.000 HD
BRANCH  33  35
ATOM     35  O   UNL     1     -10.132  -3.253  31.966  0.00  0.00    +0.000 OA
ATOM     36  C   UNL     1      -9.438  -2.663  33.037  0.00  0.00    +0.000 C 
ENDBRANCH  33  35
ENDBRANCH  28  29
ENDBRANCH  20  28
ENDBRANCH   3  23
BRANCH   1  37
ATOM     37  C   UNL     1      -5.824  -8.287  29.653  0.00  0.00    +0.000 C 
ATOM     38  C   UNL     1      -6.139  -9.332  30.709  0.00  0.00    +0.000 C 
ATOM     39  C   UNL     1      -4.354  -7.989  29.439  0.00  0.00    +0.000 C 
ENDBRANCH   1  37
TORSDOF 8
ENDMDL
MODEL 3
REMARK VINA RESULT:      -5.2     22.457     25.014
REMARK  Name = 50922675_Encorafenib.pdbqt.pdb
REMARK  8 active torsions:
REMARK  status: ('A' for Active; 'I' for Inactive)
REMARK    1  A    between atoms: N_1  and  C_37
REMARK    2  A    between atoms: C_3  and  C_23
REMARK    3  A    between atoms: C_4  and  C_8
REMARK    4  A    between atoms: C_11  and  N_14
REMARK    5  A    between atoms: N_14  and  S_16
REMARK    6  A    between atoms: N_20  and  C_28
REMARK    7  A    between atoms: C_28  and  C_29
REMARK    8  A    between atoms: C_33  and  O_35
REMARK                            x       y       z     vdW  Elec       q    Type
REMARK                         _______ _______ _______ _____ _____    ______ ____
ROOT
ATOM      1  N   UNL     1     -15.763 -11.602  26.718  0.00  0.00    +0.000 N 
ATOM      2  N   UNL     1     -16.138 -10.280  26.853  0.00  0.00    +0.000 NA
ATOM      3  C   UNL     1     -14.475 -10.724  28.352  0.00  0.00    +0.000 A 
ATOM      4  C   UNL     1     -15.354  -9.750  27.804  0.00  0.00    +0.000 A 
ATOM      5  C   UNL     1     -14.764 -11.867  27.646  0.00  0.00    +0.000 A 
ENDROOT
BRANCH   4   8
ATOM      6 CL   UNL     1     -18.414  -6.090  29.746  0.00  0.00    +0.000 Cl
ATOM      7  F   UNL     1     -13.358  -7.748  27.372  0.00  0.00    +0.000 F 
ATOM      8  C   UNL     1     -15.530  -8.348  28.162  0.00  0.00    +0.000 A 
ATOM      9  C   UNL     1     -14.535  -7.394  27.914  0.00  0.00    +0.000 A 
ATOM     10  C   UNL     1     -16.741  -7.927  28.712  0.00  0.00    +0.000 A 
ATOM     11  C   UNL     1     -14.734  -6.046  28.233  0.00  0.00    +0.000 A 
ATOM     12  C   UNL     1     -16.941  -6.586  29.026  0.00  0.00    +0.000 A 
ATOM     13  C   UNL     1     -15.952  -5.643  28.774  0.00  0.00    +0.000 A 
BRANCH  11  14
ATOM     14  N   UNL     1     -13.740  -5.073  27.877  0.00  0.00    +0.000 N 
ATOM     15  H   UNL     1     -13.300  -5.260  26.971  0.00  0.00    +0.000 HD
BRANCH  14  16
ATOM     16  S   UNL     1     -12.523  -4.754  28.982  0.00  0.00    +0.000 S 
ATOM     17  O   UNL     1     -12.060  -3.396  28.880  0.00  0.00    +0.000 OA
ATOM     18  O   UNL     1     -12.610  -5.528  30.201  0.00  0.00    +0.000 OA
ATOM     19  C   UNL     1     -11.080  -5.534  28.322  0.00  0.00    +0.000 C 
ENDBRANCH  14  16
ENDBRANCH  11  14
ENDBRANCH   4   8
BRANCH   3  23
ATOM     20  N   UNL     1     -10.204  -9.168  29.742  0.00  0.00    +0.000 N 
ATOM     21  N   UNL     1     -12.339  -9.963  29.077  0.00  0.00    +0.000 NA
ATOM     22  N   UNL     1     -11.445 -10.487  31.197  0.00  0.00    +0.000 NA
ATOM     23  C   UNL     1     -13.445 -10.668  29.377  0.00  0.00    +0.000 A 
ATOM     24  C   UNL     1     -11.368  -9.893  30.003  0.00  0.00    +0.000 A 
ATOM     25  C   UNL     1     -13.615 -11.318  30.578  0.00  0.00    +0.000 A 
ATOM     26  C   UNL     1     -12.567 -11.184  31.453  0.00  0.00    +0.000 A 
ATOM     27  H   UNL     1      -9.508  -9.422  30.434  0.00  0.00    +0.000 HD
BRANCH  20  28
ATOM     28  C   UNL     1      -9.793  -9.059  28.347  0.00  0.00    +0.000 C 
BRANCH  28  29
ATOM     29  C   UNL     1      -9.513  -8.908  26.966  0.00  0.00    +0.000 C 
ATOM     30  C   UNL     1     -10.448  -9.552  25.987  0.00  0.00    +0.000 C 
ATOM     31  O   UNL     1      -7.468  -7.429  28.345  0.00  0.00    +0.000 OA
ATOM     32  N   UNL     1      -8.596  -8.058  26.447  0.00  0.00    +0.000 N 
ATOM     33  C   UNL     1      -7.656  -7.337  27.137  0.00  0.00    +0.000 C 
ATOM     34  H   UNL     1      -8.652  -7.928  25.441  0.00  0.00    +0.000 HD
BRANCH  33  35
ATOM     35  O   UNL     1      -6.967  -6.522  26.269  0.00  0.00    +0.000 OA
ATOM     36  C   UNL     1      -7.599  -5.356  25.806  0.00  0.00    +0.000 C 
ENDBRANCH  33  35
ENDBRANCH  28  29
ENDBRANCH  20  28
ENDBRANCH   3  23
BRANCH   1  37
ATOM     37  C   UNL     1     -16.278 -12.568  25.819  0.00  0.00    +0.000 C 
ATOM     38  C   UNL     1     -16.283 -14.052  26.147  0.00  0.00    +0.000 C 
ATOM     39  C   UNL     1     -16.874 -12.188  24.479  0.00  0.00    +0.000 C 
ENDBRANCH   1  37
TORSDOF 8
ENDMDL
MODEL 4
REMARK VINA RESULT:      -5.1      3.457      5.968
REMARK  Name = 50922675_Encorafenib.pdbqt.pdb
REMARK  8 active torsions:
REMARK  status: ('A' for Active; 'I' for Inactive)
REMARK    1  A    between atoms: N_1  and  C_37
REMARK    2  A    between atoms: C_3  and  C_23
REMARK    3  A    between atoms: C_4  and  C_8
REMARK    4  A    between atoms: C_11  and  N_14
REMARK    5  A    between atoms: N_14  and  S_16
REMARK    6  A    between atoms: N_20  and  C_28
REMARK    7  A    between atoms: C_28  and  C_29
REMARK    8  A    between atoms: C_33  and  O_35
REMARK                            x       y       z     vdW  Elec       q    Type
REMARK                         _______ _______ _______ _____ _____    ______ ____
ROOT
ATOM      1  N   UNL     1     -13.030 -13.775  -1.145  0.00  0.00    +0.000 N 
ATOM      2  N   UNL     1     -13.167 -12.419  -0.922  0.00  0.00    +0.000 NA
ATOM      3  C   UNL     1     -11.921 -13.315   0.768  0.00  0.00    +0.000 A 
ATOM      4  C   UNL     1     -12.485 -12.140   0.199  0.00  0.00    +0.000 A 
ATOM      5  C   UNL     1     -12.287 -14.314  -0.103  0.00  0.00    +0.000 A 
ENDROOT
BRANCH   4   8
ATOM      6 CL   UNL     1     -11.033  -7.262  -0.593  0.00  0.00    +0.000 Cl
ATOM      7  F   UNL     1     -13.589 -11.326   2.708  0.00  0.00    +0.000 F 
ATOM      8  C   UNL     1     -12.456 -10.765   0.683  0.00  0.00    +0.000 A 
ATOM      9  C   UNL     1     -12.990 -10.411   1.928  0.00  0.00    +0.000 A 
ATOM     10  C   UNL     1     -11.830  -9.781  -0.084  0.00  0.00    +0.000 A 
ATOM     11  C   UNL     1     -12.923  -9.093   2.392  0.00  0.00    +0.000 A 
ATOM     12  C   UNL     1     -11.760  -8.471   0.379  0.00  0.00    +0.000 A 
ATOM     13  C   UNL     1     -12.287  -8.125   1.617  0.00  0.00    +0.000 A 
BRANCH  11  14
ATOM     14  N   UNL     1     -13.386  -8.776   3.714  0.00  0.00    +0.000 N 
ATOM     15  H   UNL     1     -14.187  -8.138   3.717  0.00  0.00    +0.000 HD
BRANCH  14  16
ATOM     16  S   UNL     1     -12.267  -8.200   4.820  0.00  0.00    +0.000 S 
ATOM     17  O   UNL     1     -11.184  -9.128   5.005  0.00  0.00    +0.000 OA
ATOM     18  O   UNL     1     -12.162  -6.758   4.862  0.00  0.00    +0.000 OA
ATOM     19  C   UNL     1     -13.024  -8.417   6.402  0.00  0.00    +0.000 C 
ENDBRANCH  14  16
ENDBRANCH  11  14
ENDBRANCH   4   8
BRANCH   3  23
ATOM     20  N   UNL     1      -8.010 -12.316   3.277  0.00  0.00    +0.000 N 
ATOM     21  N   UNL     1      -9.971 -12.839   2.047  0.00  0.00    +0.000 NA
ATOM     22  N   UNL     1      -9.490 -13.909   4.095  0.00  0.00    +0.000 NA
ATOM     23  C   UNL     1     -11.106 -13.556   1.947  0.00  0.00    +0.000 A 
ATOM     24  C   UNL     1      -9.194 -13.039   3.125  0.00  0.00    +0.000 A 
ATOM     25  C   UNL     1     -11.493 -14.478   2.892  0.00  0.00    +0.000 A 
ATOM     26  C   UNL     1     -10.632 -14.606   3.952  0.00  0.00    +0.000 A 
ATOM     27  H   UNL     1      -7.456 -12.760   4.000  0.00  0.00    +0.000 HD
BRANCH  20  28
ATOM     28  C   UNL     1      -7.344 -11.876   2.057  0.00  0.00    +0.000 C 
BRANCH  28  29
ATOM     29  C   UNL     1      -6.790 -11.509   0.804  0.00  0.00    +0.000 C 
ATOM     30  C   UNL     1      -7.063 -12.398  -0.370  0.00  0.00    +0.000 C 
ATOM     31  O   UNL     1      -6.014  -9.436   2.641  0.00  0.00    +0.000 OA
ATOM     32  N   UNL     1      -6.213 -10.315   0.530  0.00  0.00    +0.000 N 
ATOM     33  C   UNL     1      -5.889  -9.330   1.426  0.00  0.00    +0.000 C 
ATOM     34  H   UNL     1      -6.043 -10.137  -0.456  0.00  0.00    +0.000 HD
BRANCH  33  35
ATOM     35  O   UNL     1      -5.399  -8.234   0.754  0.00  0.00    +0.000 OA
ATOM     36  C   UNL     1      -5.701  -6.957   1.256  0.00  0.00    +0.000 C 
ENDBRANCH  33  35
ENDBRANCH  28  29
ENDBRANCH  20  28
ENDBRANCH   3  23
BRANCH   1  37
ATOM     37  C   UNL     1     -13.544 -14.539  -2.222  0.00  0.00    +0.000 C 
ATOM     38  C   UNL     1     -14.671 -14.030  -3.105  0.00  0.00    +0.000 C 
ATOM     39  C   UNL     1     -12.994 -15.905  -2.577  0.00  0.00    +0.000 C 
ENDBRANCH   1  37
TORSDOF 8
ENDMDL
MODEL 5
REMARK VINA RESULT:      -5.0      4.191      7.857
REMARK  Name = 50922675_Encorafenib.pdbqt.pdb
REMARK  8 active torsions:
REMARK  status: ('A' for Active; 'I' for Inactive)
REMARK    1  A    between atoms: N_1  and  C_37
REMARK    2  A    between atoms: C_3  and  C_23
REMARK    3  A    between atoms: C_4  and  C_8
REMARK    4  A    between atoms: C_11  and  N_14
REMARK    5  A    between atoms: N_14  and  S_16
REMARK    6  A    between atoms: N_20  and  C_28
REMARK    7  A    between atoms: C_28  and  C_29
REMARK    8  A    between atoms: C_33  and  O_35
REMARK                            x       y       z     vdW  Elec       q    Type
REMARK                         _______ _______ _______ _____ _____    ______ ____
ROOT
ATOM      1  N   UNL     1     -12.115 -13.064   2.611  0.00  0.00    +0.000 N 
ATOM      2  N   UNL     1     -13.057 -12.167   3.071  0.00  0.00    +0.000 NA
ATOM      3  C   UNL     1     -11.547 -11.043   1.780  0.00  0.00    +0.000 A 
ATOM      4  C   UNL     1     -12.737 -10.970   2.555  0.00  0.00    +0.000 A 
ATOM      5  C   UNL     1     -11.191 -12.369   1.843  0.00  0.00    +0.000 A 
ENDROOT
BRANCH   4   8
ATOM      6 CL   UNL     1     -16.717  -7.964   1.273  0.00  0.00    +0.000 Cl
ATOM      7  F   UNL     1     -12.300  -9.294   4.831  0.00  0.00    +0.000 F 
ATOM      8  C   UNL     1     -13.569  -9.817   2.877  0.00  0.00    +0.000 A 
ATOM      9  C   UNL     1     -13.309  -9.009   3.991  0.00  0.00    +0.000 A 
ATOM     10  C   UNL     1     -14.620  -9.470   2.027  0.00  0.00    +0.000 A 
ATOM     11  C   UNL     1     -14.097  -7.887   4.266  0.00  0.00    +0.000 A 
ATOM     12  C   UNL     1     -15.401  -8.352   2.298  0.00  0.00    +0.000 A 
ATOM     13  C   UNL     1     -15.136  -7.550   3.401  0.00  0.00    +0.000 A 
BRANCH  11  14
ATOM     14  N   UNL     1     -13.748  -7.017   5.354  0.00  0.00    +0.000 N 
ATOM     15  H   UNL     1     -12.745  -7.015   5.561  0.00  0.00    +0.000 HD
BRANCH  14  16
ATOM     16  S   UNL     1     -14.570  -7.204   6.802  0.00  0.00    +0.000 S 
ATOM     17  O   UNL     1     -14.506  -6.010   7.601  0.00  0.00    +0.000 OA
ATOM     18  O   UNL     1     -15.688  -8.119   6.736  0.00  0.00    +0.000 OA
ATOM     19  C   UNL     1     -13.517  -8.206   7.808  0.00  0.00    +0.000 C 
ENDBRANCH  14  16
ENDBRANCH  11  14
ENDBRANCH   4   8
BRANCH   3  23
ATOM     20  N   UNL     1     -11.495  -7.659  -1.557  0.00  0.00    +0.000 N 
ATOM     21  N   UNL     1     -11.487  -9.346   0.113  0.00  0.00    +0.000 NA
ATOM     22  N   UNL     1      -9.512  -8.192  -0.470  0.00  0.00    +0.000 NA
ATOM     23  C   UNL     1     -10.794 -10.058   1.020  0.00  0.00    +0.000 A 
ATOM     24  C   UNL     1     -10.820  -8.428  -0.608  0.00  0.00    +0.000 A 
ATOM     25  C   UNL     1      -9.445  -9.890   1.231  0.00  0.00    +0.000 A 
ATOM     26  C   UNL     1      -8.859  -8.930   0.446  0.00  0.00    +0.000 A 
ATOM     27  H   UNL     1     -10.808  -7.209  -2.151  0.00  0.00    +0.000 HD
BRANCH  20  28
ATOM     28  C   UNL     1     -12.669  -8.260  -2.180  0.00  0.00    +0.000 C 
BRANCH  28  29
ATOM     29  C   UNL     1     -13.828  -8.731  -2.846  0.00  0.00    +0.000 C 
ATOM     30  C   UNL     1     -15.146  -8.578  -2.150  0.00  0.00    +0.000 C 
ATOM     31  O   UNL     1     -11.640  -9.210  -4.651  0.00  0.00    +0.000 OA
ATOM     32  N   UNL     1     -13.878  -9.115  -4.143  0.00  0.00    +0.000 N 
ATOM     33  C   UNL     1     -12.815  -9.298  -4.990  0.00  0.00    +0.000 C 
ATOM     34  H   UNL     1     -14.813  -9.240  -4.519  0.00  0.00    +0.000 HD
BRANCH  33  35
ATOM     35  O   UNL     1     -13.274  -9.604  -6.251  0.00  0.00    +0.000 OA
ATOM     36  C   UNL     1     -12.706  -8.934  -7.347  0.00  0.00    +0.000 C 
ENDBRANCH  33  35
ENDBRANCH  28  29
ENDBRANCH  20  28
ENDBRANCH   3  23
BRANCH   1  37
ATOM     37  C   UNL     1     -12.044 -14.458   2.857  0.00  0.00    +0.000 C 
ATOM     38  C   UNL     1     -11.533 -15.435   1.811  0.00  0.00    +0.000 C 
ATOM     39  C   UNL     1     -12.456 -15.067   4.181  0.00  0.00    +0.000 C 
ENDBRANCH   1  37
TORSDOF 8
ENDMDL
MODEL 6
REMARK VINA RESULT:      -4.9     22.435     25.072
REMARK  Name = 50922675_Encorafenib.pdbqt.pdb
REMARK  8 active torsions:
REMARK  status: ('A' for Active; 'I' for Inactive)
REMARK    1  A    between atoms: N_1  and  C_37
REMARK    2  A    between atoms: C_3  and  C_23
REMARK    3  A    between atoms: C_4  and  C_8
REMARK    4  A    between atoms: C_11  and  N_14
REMARK    5  A    between atoms: N_14  and  S_16
REMARK    6  A    between atoms: N_20  and  C_28
REMARK    7  A    between atoms: C_28  and  C_29
REMARK    8  A    between atoms: C_33  and  O_35
REMARK                            x       y       z     vdW  Elec       q    Type
REMARK                         _______ _______ _______ _____ _____    ______ ____
ROOT
ATOM      1  N   UNL     1      -9.717  -6.576  26.834  0.00  0.00    +0.000 N 
ATOM      2  N   UNL     1     -10.057  -7.899  26.637  0.00  0.00    +0.000 NA
ATOM      3  C   UNL     1     -11.772  -6.858  27.725  0.00  0.00    +0.000 A 
ATOM      4  C   UNL     1     -11.290  -8.062  27.141  0.00  0.00    +0.000 A 
ATOM      5  C   UNL     1     -10.758  -5.956  27.512  0.00  0.00    +0.000 A 
ENDROOT
BRANCH   4   8
ATOM      6 CL   UNL     1     -11.143 -13.034  28.477  0.00  0.00    +0.000 Cl
ATOM      7  F   UNL     1     -13.682  -8.604  25.671  0.00  0.00    +0.000 F 
ATOM      8  C   UNL     1     -11.912  -9.379  27.073  0.00  0.00    +0.000 A 
ATOM      9  C   UNL     1     -13.072  -9.607  26.324  0.00  0.00    +0.000 A 
ATOM     10  C   UNL     1     -11.308 -10.457  27.721  0.00  0.00    +0.000 A 
ATOM     11  C   UNL     1     -13.636 -10.885  26.242  0.00  0.00    +0.000 A 
ATOM     12  C   UNL     1     -11.866 -11.728  27.637  0.00  0.00    +0.000 A 
ATOM     13  C   UNL     1     -13.016 -11.951  26.889  0.00  0.00    +0.000 A 
BRANCH  11  14
ATOM     14  N   UNL     1     -14.767 -11.113  25.387  0.00  0.00    +0.000 N 
ATOM     15  H   UNL     1     -15.023 -10.292  24.830  0.00  0.00    +0.000 HD
BRANCH  14  16
ATOM     16  S   UNL     1     -16.166 -11.719  26.081  0.00  0.00    +0.000 S 
ATOM     17  O   UNL     1     -17.333 -11.345  25.327  0.00  0.00    +0.000 OA
ATOM     18  O   UNL     1     -15.984 -12.963  26.795  0.00  0.00    +0.000 OA
ATOM     19  C   UNL     1     -16.468 -10.693  27.488  0.00  0.00    +0.000 C 
ENDBRANCH  14  16
ENDBRANCH  11  14
ENDBRANCH   4   8
BRANCH   3  23
ATOM     20  N   UNL     1     -15.236  -3.680  28.429  0.00  0.00    +0.000 N 
ATOM     21  N   UNL     1     -13.521  -5.288  28.100  0.00  0.00    +0.000 NA
ATOM     22  N   UNL     1     -15.337  -5.714  29.546  0.00  0.00    +0.000 NA
ATOM     23  C   UNL     1     -13.019  -6.504  28.384  0.00  0.00    +0.000 A 
ATOM     24  C   UNL     1     -14.672  -4.929  28.694  0.00  0.00    +0.000 A 
ATOM     25  C   UNL     1     -13.629  -7.381  29.251  0.00  0.00    +0.000 A 
ATOM     26  C   UNL     1     -14.797  -6.920  29.802  0.00  0.00    +0.000 A 
ATOM     27  H   UNL     1     -15.947  -3.496  29.127  0.00  0.00    +0.000 HD
BRANCH  20  28
ATOM     28  C   UNL     1     -14.320  -2.606  28.066  0.00  0.00    +0.000 C 
BRANCH  28  29
ATOM     29  C   UNL     1     -13.523  -1.513  27.638  0.00  0.00    +0.000 C 
ATOM     30  C   UNL     1     -14.121  -0.554  26.654  0.00  0.00    +0.000 C 
ATOM     31  O   UNL     1     -11.919  -2.951  29.543  0.00  0.00    +0.000 OA
ATOM     32  N   UNL     1     -12.349  -1.141  28.199  0.00  0.00    +0.000 N 
ATOM     33  C   UNL     1     -11.626  -1.833  29.135  0.00  0.00    +0.000 C 
ATOM     34  H   UNL     1     -12.002  -0.232  27.906  0.00  0.00    +0.000 HD
BRANCH  33  35
ATOM     35  O   UNL     1     -10.534  -1.090  29.521  0.00  0.00    +0.000 OA
ATOM     36  C   UNL     1     -10.125  -0.030  28.694  0.00  0.00    +0.000 C 
ENDBRANCH  33  35
ENDBRANCH  28  29
ENDBRANCH  20  28
ENDBRANCH   3  23
BRANCH   1  37
ATOM     37  C   UNL     1      -8.526  -5.914  26.446  0.00  0.00    +0.000 C 
ATOM     38  C   UNL     1      -7.596  -6.482  25.388  0.00  0.00    +0.000 C 
ATOM     39  C   UNL     1      -8.108  -4.587  27.046  0.00  0.00    +0.000 C 
ENDBRANCH   1  37
TORSDOF 8
ENDMDL
MODEL 7
REMARK VINA RESULT:      -4.9      3.493      7.441
REMARK  Name = 50922675_Encorafenib.pdbqt.pdb
REMARK  8 active torsions:
REMARK  status: ('A' for Active; 'I' for Inactive)
REMARK    1  A    between atoms: N_1  and  C_37
REMARK    2  A    between atoms: C_3  and  C_23
REMARK    3  A    between atoms: C_4  and  C_8
REMARK    4  A    between atoms: C_11  and  N_14
REMARK    5  A    between atoms: N_14  and  S_16
REMARK    6  A    between atoms: N_20  and  C_28
REMARK    7  A    between atoms: C_28  and  C_29
REMARK    8  A    between atoms: C_33  and  O_35
REMARK                            x       y       z     vdW  Elec       q    Type
REMARK                         _______ _______ _______ _____ _____    ______ ____
ROOT
ATOM      1  N   UNL     1     -10.776 -13.354  -1.210  0.00  0.00    +0.000 N 
ATOM      2  N   UNL     1     -10.256 -14.080  -0.157  0.00  0.00    +0.000 NA
ATOM      3  C   UNL     1      -9.750 -11.876   0.154  0.00  0.00    +0.000 A 
ATOM      4  C   UNL     1      -9.670 -13.199   0.668  0.00  0.00    +0.000 A 
ATOM      5  C   UNL     1     -10.448 -12.018  -1.022  0.00  0.00    +0.000 A 
ENDROOT
BRANCH   4   8
ATOM      6 CL   UNL     1      -5.676 -15.649   2.807  0.00  0.00    +0.000 Cl
ATOM      7  F   UNL     1     -10.809 -12.932   3.278  0.00  0.00    +0.000 F 
ATOM      8  C   UNL     1      -9.027 -13.690   1.881  0.00  0.00    +0.000 A 
ATOM      9  C   UNL     1      -9.628 -13.558   3.139  0.00  0.00    +0.000 A 
ATOM     10  C   UNL     1      -7.807 -14.362   1.787  0.00  0.00    +0.000 A 
ATOM     11  C   UNL     1      -9.012 -14.065   4.288  0.00  0.00    +0.000 A 
ATOM     12  C   UNL     1      -7.196 -14.869   2.929  0.00  0.00    +0.000 A 
ATOM     13  C   UNL     1      -7.799 -14.740   4.175  0.00  0.00    +0.000 A 
BRANCH  11  14
ATOM     14  N   UNL     1      -9.695 -14.007   5.550  0.00  0.00    +0.000 N 
ATOM     15  H   UNL     1      -9.147 -13.546   6.283  0.00  0.00    +0.000 HD
BRANCH  14  16
ATOM     16  S   UNL     1     -10.298 -15.437   6.182  0.00  0.00    +0.000 S 
ATOM     17  O   UNL     1      -9.281 -16.452   6.252  0.00  0.00    +0.000 OA
ATOM     18  O   UNL     1     -11.382 -15.259   7.123  0.00  0.00    +0.000 OA
ATOM     19  C   UNL     1     -11.248 -16.157   4.877  0.00  0.00    +0.000 C 
ENDBRANCH  14  16
ENDBRANCH  11  14
ENDBRANCH   4   8
BRANCH   3  23
ATOM     20  N   UNL     1     -10.468  -8.118   2.974  0.00  0.00    +0.000 N 
ATOM     21  N   UNL     1     -10.082  -9.980   1.553  0.00  0.00    +0.000 NA
ATOM     22  N   UNL     1      -8.558  -8.179   1.653  0.00  0.00    +0.000 NA
ATOM     23  C   UNL     1      -9.292 -10.588   0.649  0.00  0.00    +0.000 A 
ATOM     24  C   UNL     1      -9.687  -8.786   2.030  0.00  0.00    +0.000 A 
ATOM     25  C   UNL     1      -8.114 -10.040   0.196  0.00  0.00    +0.000 A 
ATOM     26  C   UNL     1      -7.802  -8.822   0.745  0.00  0.00    +0.000 A 
ATOM     27  H   UNL     1     -10.147  -7.158   3.032  0.00  0.00    +0.000 HD
BRANCH  20  28
ATOM     28  C   UNL     1     -11.903  -8.373   2.942  0.00  0.00    +0.000 C 
BRANCH  28  29
ATOM     29  C   UNL     1     -13.300  -8.570   2.792  0.00  0.00    +0.000 C 
ATOM     30  C   UNL     1     -13.767  -9.420   1.649  0.00  0.00    +0.000 C 
ATOM     31  O   UNL     1     -12.988  -6.951   5.149  0.00  0.00    +0.000 OA
ATOM     32  N   UNL     1     -14.236  -8.235   3.711  0.00  0.00    +0.000 N 
ATOM     33  C   UNL     1     -14.047  -7.491   4.846  0.00  0.00    +0.000 C 
ATOM     34  H   UNL     1     -15.162  -8.615   3.538  0.00  0.00    +0.000 HD
BRANCH  33  35
ATOM     35  O   UNL     1     -15.218  -7.440   5.567  0.00  0.00    +0.000 OA
ATOM     36  C   UNL     1     -15.193  -7.857   6.908  0.00  0.00    +0.000 C 
ENDBRANCH  33  35
ENDBRANCH  28  29
ENDBRANCH  20  28
ENDBRANCH   3  23
BRANCH   1  37
ATOM     37  C   UNL     1     -11.513 -13.834  -2.321  0.00  0.00    +0.000 C 
ATOM     38  C   UNL     1     -10.849 -14.158  -3.648  0.00  0.00    +0.000 C 
ATOM     39  C   UNL     1     -13.008 -14.072  -2.257  0.00  0.00    +0.000 C 
ENDBRANCH   1  37
TORSDOF 8
ENDMDL
MODEL 8
REMARK VINA RESULT:      -4.8     23.305     26.063
REMARK  Name = 50922675_Encorafenib.pdbqt.pdb
REMARK  8 active torsions:
REMARK  status: ('A' for Active; 'I' for Inactive)
REMARK    1  A    between atoms: N_1  and  C_37
REMARK    2  A    between atoms: C_3  and  C_23
REMARK    3  A    between atoms: C_4  and  C_8
REMARK    4  A    between atoms: C_11  and  N_14
REMARK    5  A    between atoms: N_14  and  S_16
REMARK    6  A    between atoms: N_20  and  C_28
REMARK    7  A    between atoms: C_28  and  C_29
REMARK    8  A    between atoms: C_33  and  O_35
REMARK                            x       y       z     vdW  Elec       q    Type
REMARK                         _______ _______ _______ _____ _____    ______ ____
ROOT
ATOM      1  N   UNL     1     -10.568  -7.805  31.907  0.00  0.00    +0.000 N 
ATOM      2  N   UNL     1      -9.512  -7.144  31.313  0.00  0.00    +0.000 NA
ATOM      3  C   UNL     1     -10.691  -8.240  29.694  0.00  0.00    +0.000 A 
ATOM      4  C   UNL     1      -9.600  -7.379  29.995  0.00  0.00    +0.000 A 
ATOM      5  C   UNL     1     -11.269  -8.482  30.918  0.00  0.00    +0.000 A 
ENDROOT
BRANCH   4   8
ATOM      6 CL   UNL     1      -4.623  -6.847  28.780  0.00  0.00    +0.000 Cl
ATOM      7  F   UNL     1     -10.241  -5.647  27.812  0.00  0.00    +0.000 F 
ATOM      8  C   UNL     1      -8.599  -6.799  29.107  0.00  0.00    +0.000 A 
ATOM      9  C   UNL     1      -8.954  -5.938  28.061  0.00  0.00    +0.000 A 
ATOM     10  C   UNL     1      -7.247  -7.057  29.335  0.00  0.00    +0.000 A 
ATOM     11  C   UNL     1      -7.978  -5.363  27.240  0.00  0.00    +0.000 A 
ATOM     12  C   UNL     1      -6.276  -6.483  28.521  0.00  0.00    +0.000 A 
ATOM     13  C   UNL     1      -6.632  -5.625  27.487  0.00  0.00    +0.000 A 
BRANCH  11  14
ATOM     14  N   UNL     1      -8.358  -4.405  26.240  0.00  0.00    +0.000 N 
ATOM     15  H   UNL     1      -7.751  -4.421  25.416  0.00  0.00    +0.000 HD
BRANCH  14  16
ATOM     16  S   UNL     1      -8.540  -2.808  26.713  0.00  0.00    +0.000 S 
ATOM     17  O   UNL     1      -9.238  -2.040  25.717  0.00  0.00    +0.000 OA
ATOM     18  O   UNL     1      -8.630  -2.619  28.144  0.00  0.00    +0.000 OA
ATOM     19  C   UNL     1      -6.948  -2.073  26.488  0.00  0.00    +0.000 C 
ENDBRANCH  14  16
ENDBRANCH  11  14
ENDBRANCH   4   8
BRANCH   3  23
ATOM     20  N   UNL     1     -14.178  -8.368  26.467  0.00  0.00    +0.000 N 
ATOM     21  N   UNL     1     -12.421  -8.328  28.062  0.00  0.00    +0.000 NA
ATOM     22  N   UNL     1     -12.312  -9.716  26.155  0.00  0.00    +0.000 NA
ATOM     23  C   UNL     1     -11.216  -8.783  28.452  0.00  0.00    +0.000 A 
ATOM     24  C   UNL     1     -12.934  -8.812  26.917  0.00  0.00    +0.000 A 
ATOM     25  C   UNL     1     -10.500  -9.716  27.736  0.00  0.00    +0.000 A 
ATOM     26  C   UNL     1     -11.111 -10.144  26.585  0.00  0.00    +0.000 A 
ATOM     27  H   UNL     1     -14.500  -9.000  25.742  0.00  0.00    +0.000 HD
BRANCH  20  28
ATOM     28  C   UNL     1     -15.129  -7.928  27.481  0.00  0.00    +0.000 C 
BRANCH  28  29
ATOM     29  C   UNL     1     -16.009  -7.379  28.448  0.00  0.00    +0.000 C 
ATOM     30  C   UNL     1     -17.173  -8.215  28.888  0.00  0.00    +0.000 C 
ATOM     31  O   UNL     1     -13.961  -5.401  28.045  0.00  0.00    +0.000 OA
ATOM     32  N   UNL     1     -15.775  -6.255  29.164  0.00  0.00    +0.000 N 
ATOM     33  C   UNL     1     -14.765  -5.349  28.970  0.00  0.00    +0.000 C 
ATOM     34  H   UNL     1     -16.407  -6.104  29.946  0.00  0.00    +0.000 HD
BRANCH  33  35
ATOM     35  O   UNL     1     -14.809  -4.387  29.952  0.00  0.00    +0.000 OA
ATOM     36  C   UNL     1     -15.761  -3.360  29.835  0.00  0.00    +0.000 C 
ENDBRANCH  33  35
ENDBRANCH  28  29
ENDBRANCH  20  28
ENDBRANCH   3  23
BRANCH   1  37
ATOM     37  C   UNL     1     -10.920  -7.833  33.279  0.00  0.00    +0.000 C 
ATOM     38  C   UNL     1     -12.366  -7.908  33.739  0.00  0.00    +0.000 C 
ATOM     39  C   UNL     1      -9.879  -7.809  34.380  0.00  0.00    +0.000 C 
ENDBRANCH   1  37
TORSDOF 8
ENDMDL
MODEL 9
REMARK VINA RESULT:      -4.8     23.145     26.527
REMARK  Name = 50922675_Encorafenib.pdbqt.pdb
REMARK  8 active torsions:
REMARK  status: ('A' for Active; 'I' for Inactive)
REMARK    1  A    between atoms: N_1  and  C_37
REMARK    2  A    between atoms: C_3  and  C_23
REMARK    3  A    between atoms: C_4  and  C_8
REMARK    4  A    between atoms: C_11  and  N_14
REMARK    5  A    between atoms: N_14  and  S_16
REMARK    6  A    between atoms: N_20  and  C_28
REMARK    7  A    between atoms: C_28  and  C_29
REMARK    8  A    between atoms: C_33  and  O_35
REMARK                            x       y       z     vdW  Elec       q    Type
REMARK                         _______ _______ _______ _____ _____    ______ ____
ROOT
ATOM      1  N   UNL     1      -8.194  -5.837  31.495  0.00  0.00    +0.000 N 
ATOM      2  N   UNL     1      -7.086  -6.651  31.612  0.00  0.00    +0.000 NA
ATOM      3  C   UNL     1      -7.706  -6.570  29.416  0.00  0.00    +0.000 A 
ATOM      4  C   UNL     1      -6.778  -7.065  30.373  0.00  0.00    +0.000 A 
ATOM      5  C   UNL     1      -8.575  -5.808  30.160  0.00  0.00    +0.000 A 
ENDROOT
BRANCH   4   8
ATOM      6 CL   UNL     1      -4.605 -11.639  31.316  0.00  0.00    +0.000 Cl
ATOM      7  F   UNL     1      -4.422  -6.327  28.929  0.00  0.00    +0.000 F 
ATOM      8  C   UNL     1      -5.635  -7.952  30.190  0.00  0.00    +0.000 A 
ATOM      9  C   UNL     1      -4.491  -7.544  29.493  0.00  0.00    +0.000 A 
ATOM     10  C   UNL     1      -5.651  -9.221  30.772  0.00  0.00    +0.000 A 
ATOM     11  C   UNL     1      -3.390  -8.396  29.357  0.00  0.00    +0.000 A 
ATOM     12  C   UNL     1      -4.555 -10.066  30.639  0.00  0.00    +0.000 A 
ATOM     13  C   UNL     1      -3.419  -9.656  29.951  0.00  0.00    +0.000 A 
BRANCH  11  14
ATOM     14  N   UNL     1      -2.191  -7.919  28.727  0.00  0.00    +0.000 N 
ATOM     15  H   UNL     1      -1.732  -8.628  28.146  0.00  0.00    +0.000 HD
BRANCH  14  16
ATOM     16  S   UNL     1      -1.021  -7.215  29.697  0.00  0.00    +0.000 S 
ATOM     17  O   UNL     1      -1.351  -7.334  31.092  0.00  0.00    +0.000 OA
ATOM     18  O   UNL     1       0.313  -7.248  29.138  0.00  0.00    +0.000 OA
ATOM     19  C   UNL     1      -1.283  -5.473  29.550  0.00  0.00    +0.000 C 
ENDBRANCH  14  16
ENDBRANCH  11  14
ENDBRANCH   4   8
BRANCH   3  23
ATOM     20  N   UNL     1      -9.788  -8.658  25.689  0.00  0.00    +0.000 N 
ATOM     21  N   UNL     1      -8.728  -7.599  27.529  0.00  0.00    +0.000 NA
ATOM     22  N   UNL     1      -8.125  -7.082  25.306  0.00  0.00    +0.000 NA
ATOM     23  C   UNL     1      -7.817  -6.713  27.974  0.00  0.00    +0.000 A 
ATOM     24  C   UNL     1      -8.854  -7.756  26.200  0.00  0.00    +0.000 A 
ATOM     25  C   UNL     1      -7.017  -5.976  27.131  0.00  0.00    +0.000 A 
ATOM     26  C   UNL     1      -7.225  -6.210  25.796  0.00  0.00    +0.000 A 
ATOM     27  H   UNL     1      -9.578  -8.814  24.709  0.00  0.00    +0.000 HD
BRANCH  20  28
ATOM     28  C   UNL     1     -10.121  -9.807  26.522  0.00  0.00    +0.000 C 
BRANCH  28  29
ATOM     29  C   UNL     1     -10.537 -10.953  27.246  0.00  0.00    +0.000 C 
ATOM     30  C   UNL     1      -9.557 -11.575  28.194  0.00  0.00    +0.000 C 
ATOM     31  O   UNL     1     -12.807 -10.159  25.669  0.00  0.00    +0.000 OA
ATOM     32  N   UNL     1     -11.810 -11.410  27.316  0.00  0.00    +0.000 N 
ATOM     33  C   UNL     1     -12.880 -10.983  26.574  0.00  0.00    +0.000 C 
ATOM     34  H   UNL     1     -11.973 -12.119  28.024  0.00  0.00    +0.000 HD
BRANCH  33  35
ATOM     35  O   UNL     1     -14.022 -11.627  26.993  0.00  0.00    +0.000 OA
ATOM     36  C   UNL     1     -15.054 -10.855  27.552  0.00  0.00    +0.000 C 
ENDBRANCH  33  35
ENDBRANCH  28  29
ENDBRANCH  20  28
ENDBRANCH   3  23
BRANCH   1  37
ATOM     37  C   UNL     1      -8.875  -5.136  32.522  0.00  0.00    +0.000 C 
ATOM     38  C   UNL     1      -8.135  -4.455  33.660  0.00  0.00    +0.000 C 
ATOM     39  C   UNL     1     -10.384  -5.004  32.545  0.00  0.00    +0.000 C 
ENDBRANCH   1  37
TORSDOF 8
ENDMDL
