MODEL 1
REMARK VINA RESULT:      -6.4      0.000      0.000
REMARK  Name = 5109870_Ethoxyphenyl.pdbqt.pdb
REMARK  6 active torsions:
REMARK  status: ('A' for Active; 'I' for Inactive)
REMARK    1  A    between atoms: N_2  and  C_22
REMARK    2  A    between atoms: C_3  and  O_11
REMARK    3  A    between atoms: C_3  and  C_13
REMARK    4  A    between atoms: C_16  and  N_19
REMARK    5  A    between atoms: C_25  and  O_28
REMARK    6  A    between atoms: O_28  and  C_29
REMARK                            x       y       z     vdW  Elec       q    Type
REMARK                         _______ _______ _______ _____ _____    ______ ____
ROOT
ATOM      1  N   UNL     1     -14.563 -16.451  13.491  0.00  0.00    +0.000 N 
ATOM      2  N   UNL     1     -12.938 -16.712  11.745  0.00  0.00    +0.000 N 
ATOM      3  C   UNL     1     -14.498 -15.120  12.841  0.00  0.00    +0.000 C 
ATOM      4  C   UNL     1     -13.474 -17.281  12.884  0.00  0.00    +0.000 C 
ATOM      5  C   UNL     1     -13.589 -15.429  11.734  0.00  0.00    +0.000 C 
ATOM      6  C   UNL     1     -14.559 -16.509  14.952  0.00  0.00    +0.000 C 
ATOM      7  C   UNL     1     -12.780 -18.252  13.663  0.00  0.00    +0.000 C 
ATOM      8  C   UNL     1     -14.073 -17.146  16.265  0.00  0.00    +0.000 C 
ATOM      9  C   UNL     1     -12.462 -18.807  15.061  0.00  0.00    +0.000 C 
ATOM     10  C   UNL     1     -13.060 -18.283  16.363  0.00  0.00    +0.000 C 
ENDROOT
BRANCH   3  11
ATOM     11  C   UNL     1     -15.867 -14.638  12.422  0.00  0.00    +0.000 A 
ATOM     12  C   UNL     1     -16.972 -14.741  13.278  0.00  0.00    +0.000 A 
ATOM     13  C   UNL     1     -18.222 -14.254  12.901  0.00  0.00    +0.000 A 
ATOM     14  C   UNL     1     -18.360 -13.647  11.656  0.00  0.00    +0.000 A 
ATOM     15  C   UNL     1     -17.281 -13.514  10.789  0.00  0.00    +0.000 A 
ATOM     16  C   UNL     1     -16.039 -14.005  11.181  0.00  0.00    +0.000 A 
BRANCH  14  17
ATOM     17  N   UNL     1     -19.658 -13.140  11.256  0.00  0.00    +0.000 N 
ATOM     18  O   UNL     1     -20.158 -13.596  10.218  0.00  0.00    +0.000 OA
ATOM     19  O   UNL     1     -20.189 -12.282  11.977  0.00  0.00    +0.000 OA
ENDBRANCH  14  17
ENDBRANCH   3  11
BRANCH   2  20
ATOM     20  C   UNL     1     -11.785 -17.007  10.999  0.00  0.00    +0.000 A 
ATOM     21  C   UNL     1     -11.571 -18.267  10.431  0.00  0.00    +0.000 A 
ATOM     22  C   UNL     1     -10.434 -18.543   9.673  0.00  0.00    +0.000 A 
ATOM     23  C   UNL     1      -9.480 -17.552   9.457  0.00  0.00    +0.000 A 
ATOM     24  C   UNL     1      -9.676 -16.287  10.002  0.00  0.00    +0.000 A 
ATOM     25  C   UNL     1     -10.818 -16.022  10.759  0.00  0.00    +0.000 A 
BRANCH  23  26
ATOM     26  O   UNL     1      -8.331 -17.719   8.728  0.00  0.00    +0.000 OA
BRANCH  26  27
ATOM     27  C   UNL     1      -7.958 -18.985   8.552  0.00  0.00    +0.000 C 
ATOM     28  C   UNL     1      -7.525 -20.444   8.365  0.00  0.00    +0.000 C 
ENDBRANCH  26  27
ENDBRANCH  23  26
ENDBRANCH   2  20
BRANCH   3  29
ATOM     29  O   UNL     1     -13.874 -14.132  13.651  0.00  0.00    +0.000 OA
ATOM     30  H   UNL     1     -14.389 -14.117  14.474  0.00  0.00    +0.000 HD
ENDBRANCH   3  29
TORSDOF 6
ENDMDL
MODEL 2
REMARK VINA RESULT:      -6.2     22.046     24.298
REMARK  Name = 5109870_Ethoxyphenyl.pdbqt.pdb
REMARK  6 active torsions:
REMARK  status: ('A' for Active; 'I' for Inactive)
REMARK    1  A    between atoms: N_2  and  C_22
REMARK    2  A    between atoms: C_3  and  O_11
REMARK    3  A    between atoms: C_3  and  C_13
REMARK    4  A    between atoms: C_16  and  N_19
REMARK    5  A    between atoms: C_25  and  O_28
REMARK    6  A    between atoms: O_28  and  C_29
REMARK                            x       y       z     vdW  Elec       q    Type
REMARK                         _______ _______ _______ _____ _____    ______ ____
ROOT
ATOM      1  N   UNL     1     -12.099   6.784   4.066  0.00  0.00    +0.000 N 
ATOM      2  N   UNL     1     -12.042   5.427   2.087  0.00  0.00    +0.000 N 
ATOM      3  C   UNL     1     -11.609   5.465   4.533  0.00  0.00    +0.000 C 
ATOM      4  C   UNL     1     -12.495   6.613   2.632  0.00  0.00    +0.000 C 
ATOM      5  C   UNL     1     -11.495   4.773   3.247  0.00  0.00    +0.000 C 
ATOM      6  C   UNL     1     -13.131   7.459   4.852  0.00  0.00    +0.000 C 
ATOM      7  C   UNL     1     -13.592   7.343   2.088  0.00  0.00    +0.000 C 
ATOM      8  C   UNL     1     -14.436   8.270   4.933  0.00  0.00    +0.000 C 
ATOM      9  C   UNL     1     -14.832   8.211   2.357  0.00  0.00    +0.000 C 
ATOM     10  C   UNL     1     -15.291   8.673   3.736  0.00  0.00    +0.000 C 
ENDROOT
BRANCH   3  11
ATOM     11  C   UNL     1     -10.315   5.593   5.301  0.00  0.00    +0.000 A 
ATOM     12  C   UNL     1     -10.303   5.902   6.669  0.00  0.00    +0.000 A 
ATOM     13  C   UNL     1      -9.108   5.975   7.380  0.00  0.00    +0.000 A 
ATOM     14  C   UNL     1      -7.912   5.724   6.714  0.00  0.00    +0.000 A 
ATOM     15  C   UNL     1      -7.888   5.400   5.361  0.00  0.00    +0.000 A 
ATOM     16  C   UNL     1      -9.092   5.330   4.666  0.00  0.00    +0.000 A 
BRANCH  14  17
ATOM     17  N   UNL     1      -6.663   5.800   7.447  0.00  0.00    +0.000 N 
ATOM     18  O   UNL     1      -6.436   6.835   8.087  0.00  0.00    +0.000 OA
ATOM     19  O   UNL     1      -5.901   4.825   7.388  0.00  0.00    +0.000 OA
ENDBRANCH  14  17
ENDBRANCH   3  11
BRANCH   2  20
ATOM     20  C   UNL     1     -12.354   4.760   0.892  0.00  0.00    +0.000 A 
ATOM     21  C   UNL     1     -12.035   5.295  -0.360  0.00  0.00    +0.000 A 
ATOM     22  C   UNL     1     -12.328   4.613  -1.542  0.00  0.00    +0.000 A 
ATOM     23  C   UNL     1     -12.946   3.366  -1.495  0.00  0.00    +0.000 A 
ATOM     24  C   UNL     1     -13.263   2.809  -0.260  0.00  0.00    +0.000 A 
ATOM     25  C   UNL     1     -12.965   3.499   0.916  0.00  0.00    +0.000 A 
BRANCH  23  26
ATOM     26  O   UNL     1     -13.276   2.616  -2.594  0.00  0.00    +0.000 OA
BRANCH  26  27
ATOM     27  C   UNL     1     -13.467   1.321  -2.352  0.00  0.00    +0.000 C 
ATOM     28  C   UNL     1     -13.673  -0.174  -2.082  0.00  0.00    +0.000 C 
ENDBRANCH  26  27
ENDBRANCH  23  26
ENDBRANCH   2  20
BRANCH   3  29
ATOM     29  O   UNL     1     -12.562   4.763   5.321  0.00  0.00    +0.000 OA
ATOM     30  H   UNL     1     -12.996   5.444   5.860  0.00  0.00    +0.000 HD
ENDBRANCH   3  29
TORSDOF 6
ENDMDL
MODEL 3
REMARK VINA RESULT:      -6.2     15.585     18.840
REMARK  Name = 5109870_Ethoxyphenyl.pdbqt.pdb
REMARK  6 active torsions:
REMARK  status: ('A' for Active; 'I' for Inactive)
REMARK    1  A    between atoms: N_2  and  C_22
REMARK    2  A    between atoms: C_3  and  O_11
REMARK    3  A    between atoms: C_3  and  C_13
REMARK    4  A    between atoms: C_16  and  N_19
REMARK    5  A    between atoms: C_25  and  O_28
REMARK    6  A    between atoms: O_28  and  C_29
REMARK                            x       y       z     vdW  Elec       q    Type
REMARK                         _______ _______ _______ _____ _____    ______ ____
ROOT
ATOM      1  N   UNL     1      -9.975  -8.702  28.398  0.00  0.00    +0.000 N 
ATOM      2  N   UNL     1     -12.310  -8.792  27.851  0.00  0.00    +0.000 N 
ATOM      3  C   UNL     1     -10.028  -8.423  26.943  0.00  0.00    +0.000 C 
ATOM      4  C   UNL     1     -11.363  -9.081  28.814  0.00  0.00    +0.000 C 
ATOM      5  C   UNL     1     -11.480  -8.377  26.752  0.00  0.00    +0.000 C 
ATOM      6  C   UNL     1      -8.970  -9.645  28.887  0.00  0.00    +0.000 C 
ATOM      7  C   UNL     1     -11.576 -10.046  29.842  0.00  0.00    +0.000 C 
ATOM      8  C   UNL     1      -8.565 -10.819  29.794  0.00  0.00    +0.000 C 
ATOM      9  C   UNL     1     -10.978 -11.152  30.726  0.00  0.00    +0.000 C 
ATOM     10  C   UNL     1      -9.512 -11.575  30.721  0.00  0.00    +0.000 C 
ENDROOT
BRANCH   3  11
ATOM     11  C   UNL     1      -9.302  -7.144  26.596  0.00  0.00    +0.000 A 
ATOM     12  C   UNL     1      -8.181  -7.144  25.754  0.00  0.00    +0.000 A 
ATOM     13  C   UNL     1      -7.544  -5.957  25.404  0.00  0.00    +0.000 A 
ATOM     14  C   UNL     1      -8.045  -4.754  25.893  0.00  0.00    +0.000 A 
ATOM     15  C   UNL     1      -9.165  -4.716  26.718  0.00  0.00    +0.000 A 
ATOM     16  C   UNL     1      -9.790  -5.912  27.058  0.00  0.00    +0.000 A 
BRANCH  14  17
ATOM     17  N   UNL     1      -7.386  -3.513  25.535  0.00  0.00    +0.000 N 
ATOM     18  O   UNL     1      -7.305  -3.234  24.330  0.00  0.00    +0.000 OA
ATOM     19  O   UNL     1      -6.945  -2.809  26.454  0.00  0.00    +0.000 OA
ENDBRANCH  14  17
ENDBRANCH   3  11
BRANCH   2  20
ATOM     20  C   UNL     1     -13.656  -9.167  27.713  0.00  0.00    +0.000 A 
ATOM     21  C   UNL     1     -14.704  -8.325  28.099  0.00  0.00    +0.000 A 
ATOM     22  C   UNL     1     -16.038  -8.697  27.936  0.00  0.00    +0.000 A 
ATOM     23  C   UNL     1     -16.357  -9.929  27.369  0.00  0.00    +0.000 A 
ATOM     24  C   UNL     1     -15.331 -10.779  26.967  0.00  0.00    +0.000 A 
ATOM     25  C   UNL     1     -14.000 -10.397  27.135  0.00  0.00    +0.000 A 
BRANCH  23  26
ATOM     26  O   UNL     1     -17.632 -10.388  27.165  0.00  0.00    +0.000 OA
BRANCH  26  27
ATOM     27  C   UNL     1     -17.776 -11.194  26.115  0.00  0.00    +0.000 C 
ATOM     28  C   UNL     1     -17.954 -12.112  24.900  0.00  0.00    +0.000 C 
ENDBRANCH  26  27
ENDBRANCH  23  26
ENDBRANCH   2  20
BRANCH   3  29
ATOM     29  O   UNL     1      -9.519  -9.488  26.150  0.00  0.00    +0.000 OA
ATOM     30  H   UNL     1      -9.888 -10.295  26.545  0.00  0.00    +0.000 HD
ENDBRANCH   3  29
TORSDOF 6
ENDMDL
MODEL 4
REMARK VINA RESULT:      -6.0     24.329     26.413
REMARK  Name = 5109870_Ethoxyphenyl.pdbqt.pdb
REMARK  6 active torsions:
REMARK  status: ('A' for Active; 'I' for Inactive)
REMARK    1  A    between atoms: N_2  and  C_22
REMARK    2  A    between atoms: C_3  and  O_11
REMARK    3  A    between atoms: C_3  and  C_13
REMARK    4  A    between atoms: C_16  and  N_19
REMARK    5  A    between atoms: C_25  and  O_28
REMARK    6  A    between atoms: O_28  and  C_29
REMARK                            x       y       z     vdW  Elec       q    Type
REMARK                         _______ _______ _______ _____ _____    ______ ____
ROOT
ATOM      1  N   UNL     1      -7.542   7.079   4.105  0.00  0.00    +0.000 N 
ATOM      2  N   UNL     1      -9.413   6.499   2.719  0.00  0.00    +0.000 N 
ATOM      3  C   UNL     1      -6.960   6.887   2.755  0.00  0.00    +0.000 C 
ATOM      4  C   UNL     1      -8.976   6.656   4.020  0.00  0.00    +0.000 C 
ATOM      5  C   UNL     1      -8.187   6.667   1.985  0.00  0.00    +0.000 C 
ATOM      6  C   UNL     1      -6.853   6.483   5.249  0.00  0.00    +0.000 C 
ATOM      7  C   UNL     1      -9.618   6.034   5.131  0.00  0.00    +0.000 C 
ATOM      8  C   UNL     1      -6.887   5.714   6.581  0.00  0.00    +0.000 C 
ATOM      9  C   UNL     1      -9.468   5.348   6.498  0.00  0.00    +0.000 C 
ATOM     10  C   UNL     1      -8.146   5.155   7.235  0.00  0.00    +0.000 C 
ENDROOT
BRANCH   3  11
ATOM     11  C   UNL     1      -6.147   8.085   2.325  0.00  0.00    +0.000 A 
ATOM     12  C   UNL     1      -5.730   9.056   3.247  0.00  0.00    +0.000 A 
ATOM     13  C   UNL     1      -4.944  10.135   2.849  0.00  0.00    +0.000 A 
ATOM     14  C   UNL     1      -4.562  10.234   1.515  0.00  0.00    +0.000 A 
ATOM     15  C   UNL     1      -4.945   9.281   0.577  0.00  0.00    +0.000 A 
ATOM     16  C   UNL     1      -5.730   8.209   0.991  0.00  0.00    +0.000 A 
BRANCH  14  17
ATOM     17  N   UNL     1      -3.745  11.355   1.093  0.00  0.00    +0.000 N 
ATOM     18  O   UNL     1      -2.563  11.376   1.465  0.00  0.00    +0.000 OA
ATOM     19  O   UNL     1      -4.278  12.222   0.387  0.00  0.00    +0.000 OA
ENDBRANCH  14  17
ENDBRANCH   3  11
BRANCH   2  20
ATOM     20  C   UNL     1     -10.570   5.915   2.178  0.00  0.00    +0.000 A 
ATOM     21  C   UNL     1     -11.815   6.549   2.231  0.00  0.00    +0.000 A 
ATOM     22  C   UNL     1     -12.954   5.971   1.671  0.00  0.00    +0.000 A 
ATOM     23  C   UNL     1     -12.869   4.737   1.032  0.00  0.00    +0.000 A 
ATOM     24  C   UNL     1     -11.639   4.091   0.957  0.00  0.00    +0.000 A 
ATOM     25  C   UNL     1     -10.506   4.678   1.521  0.00  0.00    +0.000 A 
BRANCH  23  26
ATOM     26  O   UNL     1     -13.926   4.084   0.450  0.00  0.00    +0.000 OA
BRANCH  26  27
ATOM     27  C   UNL     1     -13.595   3.241  -0.526  0.00  0.00    +0.000 C 
ATOM     28  C   UNL     1     -13.230   2.268  -1.654  0.00  0.00    +0.000 C 
ENDBRANCH  26  27
ENDBRANCH  23  26
ENDBRANCH   2  20
BRANCH   3  29
ATOM     29  O   UNL     1      -6.166   5.712   2.651  0.00  0.00    +0.000 OA
ATOM     30  H   UNL     1      -5.873   5.687   1.725  0.00  0.00    +0.000 HD
ENDBRANCH   3  29
TORSDOF 6
ENDMDL
MODEL 5
REMARK VINA RESULT:      -5.9     12.529     16.004
REMARK  Name = 5109870_Ethoxyphenyl.pdbqt.pdb
REMARK  6 active torsions:
REMARK  status: ('A' for Active; 'I' for Inactive)
REMARK    1  A    between atoms: N_2  and  C_22
REMARK    2  A    between atoms: C_3  and  O_11
REMARK    3  A    between atoms: C_3  and  C_13
REMARK    4  A    between atoms: C_16  and  N_19
REMARK    5  A    between atoms: C_25  and  O_28
REMARK    6  A    between atoms: O_28  and  C_29
REMARK                            x       y       z     vdW  Elec       q    Type
REMARK                         _______ _______ _______ _____ _____    ______ ____
ROOT
ATOM      1  N   UNL     1     -20.959  -4.223  20.504  0.00  0.00    +0.000 N 
ATOM      2  N   UNL     1     -20.572  -5.050  18.285  0.00  0.00    +0.000 N 
ATOM      3  C   UNL     1     -19.582  -3.781  20.177  0.00  0.00    +0.000 C 
ATOM      4  C   UNL     1     -21.401  -5.118  19.388  0.00  0.00    +0.000 C 
ATOM      5  C   UNL     1     -19.505  -4.222  18.783  0.00  0.00    +0.000 C 
ATOM      6  C   UNL     1     -21.204  -4.810  21.820  0.00  0.00    +0.000 C 
ATOM      7  C   UNL     1     -22.258  -6.228  19.643  0.00  0.00    +0.000 C 
ATOM      8  C   UNL     1     -21.864  -5.881  22.707  0.00  0.00    +0.000 C 
ATOM      9  C   UNL     1     -22.891  -7.165  20.684  0.00  0.00    +0.000 C 
ATOM     10  C   UNL     1     -22.710  -7.041  22.194  0.00  0.00    +0.000 C 
ENDROOT
BRANCH   3  11
ATOM     11  C   UNL     1     -19.412  -2.294  20.382  0.00  0.00    +0.000 A 
ATOM     12  C   UNL     1     -19.724  -1.375  19.371  0.00  0.00    +0.000 A 
ATOM     13  C   UNL     1     -19.605  -0.003  19.583  0.00  0.00    +0.000 A 
ATOM     14  C   UNL     1     -19.180   0.451  20.828  0.00  0.00    +0.000 A 
ATOM     15  C   UNL     1     -18.877  -0.433  21.859  0.00  0.00    +0.000 A 
ATOM     16  C   UNL     1     -19.001  -1.800  21.630  0.00  0.00    +0.000 A 
BRANCH  14  17
ATOM     17  N   UNL     1     -19.052   1.877  21.056  0.00  0.00    +0.000 N 
ATOM     18  O   UNL     1     -19.284   2.634  20.102  0.00  0.00    +0.000 OA
ATOM     19  O   UNL     1     -18.721   2.252  22.189  0.00  0.00    +0.000 OA
ENDBRANCH  14  17
ENDBRANCH   3  11
BRANCH   2  20
ATOM     20  C   UNL     1     -20.466  -5.850  17.137  0.00  0.00    +0.000 A 
ATOM     21  C   UNL     1     -21.548  -6.057  16.275  0.00  0.00    +0.000 A 
ATOM     22  C   UNL     1     -21.426  -6.835  15.123  0.00  0.00    +0.000 A 
ATOM     23  C   UNL     1     -20.205  -7.423  14.802  0.00  0.00    +0.000 A 
ATOM     24  C   UNL     1     -19.112  -7.222  15.639  0.00  0.00    +0.000 A 
ATOM     25  C   UNL     1     -19.244  -6.442  16.787  0.00  0.00    +0.000 A 
BRANCH  23  26
ATOM     26  O   UNL     1     -19.980  -8.203  13.697  0.00  0.00    +0.000 OA
BRANCH  26  27
ATOM     27  C   UNL     1     -19.387  -7.579  12.682  0.00  0.00    +0.000 C 
ATOM     28  C   UNL     1     -18.707  -6.845  11.519  0.00  0.00    +0.000 C 
ENDBRANCH  26  27
ENDBRANCH  23  26
ENDBRANCH   2  20
BRANCH   3  29
ATOM     29  O   UNL     1     -18.583  -4.479  20.909  0.00  0.00    +0.000 OA
ATOM     30  H   UNL     1     -18.245  -3.835  21.553  0.00  0.00    +0.000 HD
ENDBRANCH   3  29
TORSDOF 6
ENDMDL
MODEL 6
REMARK VINA RESULT:      -5.9     24.670     27.103
REMARK  Name = 5109870_Ethoxyphenyl.pdbqt.pdb
REMARK  6 active torsions:
REMARK  status: ('A' for Active; 'I' for Inactive)
REMARK    1  A    between atoms: N_2  and  C_22
REMARK    2  A    between atoms: C_3  and  O_11
REMARK    3  A    between atoms: C_3  and  C_13
REMARK    4  A    between atoms: C_16  and  N_19
REMARK    5  A    between atoms: C_25  and  O_28
REMARK    6  A    between atoms: O_28  and  C_29
REMARK                            x       y       z     vdW  Elec       q    Type
REMARK                         _______ _______ _______ _____ _____    ______ ____
ROOT
ATOM      1  N   UNL     1      -7.428   7.342   4.603  0.00  0.00    +0.000 N 
ATOM      2  N   UNL     1      -9.680   7.716   3.862  0.00  0.00    +0.000 N 
ATOM      3  C   UNL     1      -7.354   7.251   3.125  0.00  0.00    +0.000 C 
ATOM      4  C   UNL     1      -8.879   7.446   4.955  0.00  0.00    +0.000 C 
ATOM      5  C   UNL     1      -8.731   7.616   2.785  0.00  0.00    +0.000 C 
ATOM      6  C   UNL     1      -6.734   6.328   5.395  0.00  0.00    +0.000 C 
ATOM      7  C   UNL     1      -9.380   6.858   6.154  0.00  0.00    +0.000 C 
ATOM      8  C   UNL     1      -6.693   5.356   6.587  0.00  0.00    +0.000 C 
ATOM      9  C   UNL     1      -9.136   5.893   7.325  0.00  0.00    +0.000 C 
ATOM     10  C   UNL     1      -7.840   5.124   7.565  0.00  0.00    +0.000 C 
ENDROOT
BRANCH   3  11
ATOM     11  C   UNL     1      -6.297   8.173   2.563  0.00  0.00    +0.000 A 
ATOM     12  C   UNL     1      -5.928   8.127   1.212  0.00  0.00    +0.000 A 
ATOM     13  C   UNL     1      -4.984   9.009   0.692  0.00  0.00    +0.000 A 
ATOM     14  C   UNL     1      -4.413   9.958   1.536  0.00  0.00    +0.000 A 
ATOM     15  C   UNL     1      -4.768  10.042   2.879  0.00  0.00    +0.000 A 
ATOM     16  C   UNL     1      -5.713   9.153   3.381  0.00  0.00    +0.000 A 
BRANCH  14  17
ATOM     17  N   UNL     1      -3.429  10.879   1.003  0.00  0.00    +0.000 N 
ATOM     18  O   UNL     1      -3.233  10.865  -0.220  0.00  0.00    +0.000 OA
ATOM     19  O   UNL     1      -2.844  11.623   1.803  0.00  0.00    +0.000 OA
ENDBRANCH  14  17
ENDBRANCH   3  11
BRANCH   2  20
ATOM     20  C   UNL     1     -11.071   7.674   3.682  0.00  0.00    +0.000 A 
ATOM     21  C   UNL     1     -11.920   8.640   4.232  0.00  0.00    +0.000 A 
ATOM     22  C   UNL     1     -13.299   8.603   4.028  0.00  0.00    +0.000 A 
ATOM     23  C   UNL     1     -13.864   7.593   3.253  0.00  0.00    +0.000 A 
ATOM     24  C   UNL     1     -13.039   6.627   2.685  0.00  0.00    +0.000 A 
ATOM     25  C   UNL     1     -11.661   6.674   2.897  0.00  0.00    +0.000 A 
BRANCH  23  26
ATOM     26  O   UNL     1     -15.204   7.466   2.991  0.00  0.00    +0.000 OA
BRANCH  26  27
ATOM     27  C   UNL     1     -15.981   7.387   4.068  0.00  0.00    +0.000 C 
ATOM     28  C   UNL     1     -16.864   7.286   5.318  0.00  0.00    +0.000 C 
ENDBRANCH  26  27
ENDBRANCH  23  26
ENDBRANCH   2  20
BRANCH   3  29
ATOM     29  O   UNL     1      -7.127   5.928   2.656  0.00  0.00    +0.000 OA
ATOM     30  H   UNL     1      -7.363   5.949   1.714  0.00  0.00    +0.000 HD
ENDBRANCH   3  29
TORSDOF 6
ENDMDL
MODEL 7
REMARK VINA RESULT:      -5.9      3.128      6.291
REMARK  Name = 5109870_Ethoxyphenyl.pdbqt.pdb
REMARK  6 active torsions:
REMARK  status: ('A' for Active; 'I' for Inactive)
REMARK    1  A    between atoms: N_2  and  C_22
REMARK    2  A    between atoms: C_3  and  O_11
REMARK    3  A    between atoms: C_3  and  C_13
REMARK    4  A    between atoms: C_16  and  N_19
REMARK    5  A    between atoms: C_25  and  O_28
REMARK    6  A    between atoms: O_28  and  C_29
REMARK                            x       y       z     vdW  Elec       q    Type
REMARK                         _______ _______ _______ _____ _____    ______ ____
ROOT
ATOM      1  N   UNL     1     -14.506 -15.969  13.661  0.00  0.00    +0.000 N 
ATOM      2  N   UNL     1     -12.858 -16.000  11.917  0.00  0.00    +0.000 N 
ATOM      3  C   UNL     1     -13.882 -17.309  13.763  0.00  0.00    +0.000 C 
ATOM      4  C   UNL     1     -13.953 -15.329  12.425  0.00  0.00    +0.000 C 
ATOM      5  C   UNL     1     -12.828 -17.169  12.755  0.00  0.00    +0.000 C 
ATOM      6  C   UNL     1     -15.964 -15.875  13.732  0.00  0.00    +0.000 C 
ATOM      7  C   UNL     1     -14.758 -14.455  11.637  0.00  0.00    +0.000 C 
ATOM      8  C   UNL     1     -17.294 -15.287  13.232  0.00  0.00    +0.000 C 
ATOM      9  C   UNL     1     -16.164 -13.920  11.319  0.00  0.00    +0.000 C 
ATOM     10  C   UNL     1     -17.436 -14.315  12.065  0.00  0.00    +0.000 C 
ENDROOT
BRANCH   3  11
ATOM     11  C   UNL     1     -13.388 -17.588  15.163  0.00  0.00    +0.000 A 
ATOM     12  C   UNL     1     -14.002 -17.013  16.284  0.00  0.00    +0.000 A 
ATOM     13  C   UNL     1     -13.568 -17.309  17.574  0.00  0.00    +0.000 A 
ATOM     14  C   UNL     1     -12.515 -18.203  17.741  0.00  0.00    +0.000 A 
ATOM     15  C   UNL     1     -11.893 -18.805  16.651  0.00  0.00    +0.000 A 
ATOM     16  C   UNL     1     -12.339 -18.498  15.369  0.00  0.00    +0.000 A 
BRANCH  14  17
ATOM     17  N   UNL     1     -12.057 -18.515  19.080  0.00  0.00    +0.000 N 
ATOM     18  O   UNL     1     -12.913 -18.812  19.925  0.00  0.00    +0.000 OA
ATOM     19  O   UNL     1     -10.838 -18.468  19.298  0.00  0.00    +0.000 OA
ENDBRANCH  14  17
ENDBRANCH   3  11
BRANCH   2  20
ATOM     20  C   UNL     1     -12.180 -15.902  10.692  0.00  0.00    +0.000 A 
ATOM     21  C   UNL     1     -12.855 -15.909   9.467  0.00  0.00    +0.000 A 
ATOM     22  C   UNL     1     -12.174 -15.788   8.256  0.00  0.00    +0.000 A 
ATOM     23  C   UNL     1     -10.788 -15.647   8.244  0.00  0.00    +0.000 A 
ATOM     24  C   UNL     1     -10.095 -15.625   9.451  0.00  0.00    +0.000 A 
ATOM     25  C   UNL     1     -10.787 -15.747  10.656  0.00  0.00    +0.000 A 
BRANCH  23  26
ATOM     26  O   UNL     1     -10.025 -15.520   7.112  0.00  0.00    +0.000 OA
BRANCH  26  27
ATOM     27  C   UNL     1     -10.717 -15.364   5.986  0.00  0.00    +0.000 C 
ATOM     28  C   UNL     1     -11.506 -15.168   4.686  0.00  0.00    +0.000 C 
ENDBRANCH  26  27
ENDBRANCH  23  26
ENDBRANCH   2  20
BRANCH   3  29
ATOM     29  O   UNL     1     -14.744 -18.360  13.345  0.00  0.00    +0.000 OA
ATOM     30  H   UNL     1     -14.458 -19.138  13.852  0.00  0.00    +0.000 HD
ENDBRANCH   3  29
TORSDOF 6
ENDMDL
MODEL 8
REMARK VINA RESULT:      -5.7      1.895      8.106
REMARK  Name = 5109870_Ethoxyphenyl.pdbqt.pdb
REMARK  6 active torsions:
REMARK  status: ('A' for Active; 'I' for Inactive)
REMARK    1  A    between atoms: N_2  and  C_22
REMARK    2  A    between atoms: C_3  and  O_11
REMARK    3  A    between atoms: C_3  and  C_13
REMARK    4  A    between atoms: C_16  and  N_19
REMARK    5  A    between atoms: C_25  and  O_28
REMARK    6  A    between atoms: O_28  and  C_29
REMARK                            x       y       z     vdW  Elec       q    Type
REMARK                         _______ _______ _______ _____ _____    ______ ____
ROOT
ATOM      1  N   UNL     1     -13.231 -16.800  13.548  0.00  0.00    +0.000 N 
ATOM      2  N   UNL     1     -15.165 -15.628  12.746  0.00  0.00    +0.000 N 
ATOM      3  C   UNL     1     -13.544 -17.444  12.250  0.00  0.00    +0.000 C 
ATOM      4  C   UNL     1     -14.351 -15.851  13.839  0.00  0.00    +0.000 C 
ATOM      5  C   UNL     1     -14.640 -16.581  11.803  0.00  0.00    +0.000 C 
ATOM      6  C   UNL     1     -12.916 -17.659  14.689  0.00  0.00    +0.000 C 
ATOM      7  C   UNL     1     -14.778 -15.621  15.180  0.00  0.00    +0.000 C 
ATOM      8  C   UNL     1     -13.054 -18.006  16.181  0.00  0.00    +0.000 C 
ATOM      9  C   UNL     1     -14.742 -16.074  16.649  0.00  0.00    +0.000 C 
ATOM     10  C   UNL     1     -13.923 -17.248  17.179  0.00  0.00    +0.000 C 
ENDROOT
BRANCH   3  11
ATOM     11  C   UNL     1     -12.342 -17.467  11.335  0.00  0.00    +0.000 A 
ATOM     12  C   UNL     1     -11.646 -16.294  11.011  0.00  0.00    +0.000 A 
ATOM     13  C   UNL     1     -10.513 -16.329  10.202  0.00  0.00    +0.000 A 
ATOM     14  C   UNL     1     -10.065 -17.557   9.724  0.00  0.00    +0.000 A 
ATOM     15  C   UNL     1     -10.722 -18.743  10.039  0.00  0.00    +0.000 A 
ATOM     16  C   UNL     1     -11.853 -18.689  10.849  0.00  0.00    +0.000 A 
BRANCH  14  17
ATOM     17  N   UNL     1      -8.887 -17.602   8.880  0.00  0.00    +0.000 N 
ATOM     18  O   UNL     1      -8.045 -18.479   9.117  0.00  0.00    +0.000 OA
ATOM     19  O   UNL     1      -8.796 -16.762   7.974  0.00  0.00    +0.000 OA
ENDBRANCH  14  17
ENDBRANCH   3  11
BRANCH   2  20
ATOM     20  C   UNL     1     -16.422 -15.017  12.617  0.00  0.00    +0.000 A 
ATOM     21  C   UNL     1     -17.593 -15.622  13.084  0.00  0.00    +0.000 A 
ATOM     22  C   UNL     1     -18.834 -14.996  12.972  0.00  0.00    +0.000 A 
ATOM     23  C   UNL     1     -18.931 -13.733  12.392  0.00  0.00    +0.000 A 
ATOM     24  C   UNL     1     -17.778 -13.106  11.931  0.00  0.00    +0.000 A 
ATOM     25  C   UNL     1     -16.542 -13.742  12.047  0.00  0.00    +0.000 A 
BRANCH  23  26
ATOM     26  O   UNL     1     -20.099 -13.033  12.236  0.00  0.00    +0.000 OA
BRANCH  26  27
ATOM     27  C   UNL     1     -20.447 -12.799  10.972  0.00  0.00    +0.000 C 
ATOM     28  C   UNL     1     -20.833 -12.536   9.512  0.00  0.00    +0.000 C 
ENDBRANCH  26  27
ENDBRANCH  23  26
ENDBRANCH   2  20
BRANCH   3  29
ATOM     29  O   UNL     1     -14.060 -18.762  12.389  0.00  0.00    +0.000 OA
ATOM     30  H   UNL     1     -13.762 -19.236  11.595  0.00  0.00    +0.000 HD
ENDBRANCH   3  29
TORSDOF 6
ENDMDL
MODEL 9
REMARK VINA RESULT:      -5.7     15.582     18.317
REMARK  Name = 5109870_Ethoxyphenyl.pdbqt.pdb
REMARK  6 active torsions:
REMARK  status: ('A' for Active; 'I' for Inactive)
REMARK    1  A    between atoms: N_2  and  C_22
REMARK    2  A    between atoms: C_3  and  O_11
REMARK    3  A    between atoms: C_3  and  C_13
REMARK    4  A    between atoms: C_16  and  N_19
REMARK    5  A    between atoms: C_25  and  O_28
REMARK    6  A    between atoms: O_28  and  C_29
REMARK                            x       y       z     vdW  Elec       q    Type
REMARK                         _______ _______ _______ _____ _____    ______ ____
ROOT
ATOM      1  N   UNL     1     -10.588  -9.721  28.552  0.00  0.00    +0.000 N 
ATOM      2  N   UNL     1      -9.806  -7.894  27.207  0.00  0.00    +0.000 N 
ATOM      3  C   UNL     1     -11.819  -8.989  28.168  0.00  0.00    +0.000 C 
ATOM      4  C   UNL     1      -9.431  -8.896  28.080  0.00  0.00    +0.000 C 
ATOM      5  C   UNL     1     -11.241  -7.992  27.263  0.00  0.00    +0.000 C 
ATOM      6  C   UNL     1     -10.440 -10.145  29.944  0.00  0.00    +0.000 C 
ATOM      7  C   UNL     1      -8.214  -8.859  28.823  0.00  0.00    +0.000 C 
ATOM      8  C   UNL     1      -9.578 -10.315  31.207  0.00  0.00    +0.000 C 
ATOM      9  C   UNL     1      -7.491  -9.171  30.143  0.00  0.00    +0.000 C 
ATOM     10  C   UNL     1      -8.127  -9.868  31.342  0.00  0.00    +0.000 C 
ENDROOT
BRANCH   3  11
ATOM     11  C   UNL     1     -12.837  -9.906  27.533  0.00  0.00    +0.000 A 
ATOM     12  C   UNL     1     -12.511 -11.220  27.165  0.00  0.00    +0.000 A 
ATOM     13  C   UNL     1     -13.467 -12.073  26.621  0.00  0.00    +0.000 A 
ATOM     14  C   UNL     1     -14.768 -11.608  26.455  0.00  0.00    +0.000 A 
ATOM     15  C   UNL     1     -15.130 -10.316  26.824  0.00  0.00    +0.000 A 
ATOM     16  C   UNL     1     -14.162  -9.476  27.367  0.00  0.00    +0.000 A 
BRANCH  14  17
ATOM     17  N   UNL     1     -15.769 -12.491  25.888  0.00  0.00    +0.000 N 
ATOM     18  O   UNL     1     -16.611 -11.990  25.130  0.00  0.00    +0.000 OA
ATOM     19  O   UNL     1     -15.719 -13.690  26.194  0.00  0.00    +0.000 OA
ENDBRANCH  14  17
ENDBRANCH   3  11
BRANCH   2  20
ATOM     20  C   UNL     1      -9.121  -6.776  26.707  0.00  0.00    +0.000 A 
ATOM     21  C   UNL     1      -8.091  -6.895  25.768  0.00  0.00    +0.000 A 
ATOM     22  C   UNL     1      -7.432  -5.776  25.260  0.00  0.00    +0.000 A 
ATOM     23  C   UNL     1      -7.797  -4.499  25.679  0.00  0.00    +0.000 A 
ATOM     24  C   UNL     1      -8.826  -4.354  26.605  0.00  0.00    +0.000 A 
ATOM     25  C   UNL     1      -9.479  -5.481  27.106  0.00  0.00    +0.000 A 
BRANCH  23  26
ATOM     26  O   UNL     1      -7.215  -3.337  25.243  0.00  0.00    +0.000 OA
BRANCH  26  27
ATOM     27  C   UNL     1      -7.000  -2.427  26.190  0.00  0.00    +0.000 C 
ATOM     28  C   UNL     1      -6.767  -1.370  27.276  0.00  0.00    +0.000 C 
ENDBRANCH  26  27
ENDBRANCH  23  26
ENDBRANCH   2  20
BRANCH   3  29
ATOM     29  O   UNL     1     -12.418  -8.294  29.254  0.00  0.00    +0.000 OA
ATOM     30  H   UNL     1     -12.970  -8.954  29.703  0.00  0.00    +0.000 HD
ENDBRANCH   3  29
TORSDOF 6
ENDMDL
