MODEL 1
REMARK VINA RESULT:      -6.1      0.000      0.000
REMARK  Name = 5280445_Luteolin.pdbqt.pdb
REMARK  5 active torsions:
REMARK  status: ('A' for Active; 'I' for Inactive)
REMARK    1  A    between atoms: C_5  and  C_12
REMARK    2  A    between atoms: C_8  and  O_22
REMARK    3  A    between atoms: C_10  and  O_24
REMARK    4  A    between atoms: C_15  and  O_18
REMARK    5  A    between atoms: C_17  and  O_20
REMARK                            x       y       z     vdW  Elec       q    Type
REMARK                         _______ _______ _______ _____ _____    ______ ____
ROOT
ATOM      1  O   UNL     1       5.502  -7.589  10.563  0.00  0.00    +0.000 OA
ATOM      2  O   UNL     1       7.518  -5.895  13.723  0.00  0.00    +0.000 OA
ATOM      3  C   UNL     1       6.605  -5.575  11.525  0.00  0.00    +0.000 A 
ATOM      4  C   UNL     1       5.908  -6.253  10.494  0.00  0.00    +0.000 A 
ATOM      5  C   UNL     1       5.796  -8.326  11.716  0.00  0.00    +0.000 A 
ATOM      6  C   UNL     1       6.927  -6.330  12.751  0.00  0.00    +0.000 A 
ATOM      7  C   UNL     1       6.431  -7.652  12.615  0.00  0.00    +0.000 A 
ATOM      8  C   UNL     1       6.972  -4.239  11.376  0.00  0.00    +0.000 A 
ATOM      9  C   UNL     1       5.586  -5.575   9.323  0.00  0.00    +0.000 A 
ATOM     10  C   UNL     1       5.960  -4.239   9.189  0.00  0.00    +0.000 A 
ATOM     11  C   UNL     1       6.648  -3.568  10.201  0.00  0.00    +0.000 A 
ENDROOT
BRANCH   5  12
ATOM     12  C   UNL     1       5.372  -9.719  11.785  0.00  0.00    +0.000 A 
ATOM     13  C   UNL     1       4.025 -10.039  11.980  0.00  0.00    +0.000 A 
ATOM     14  C   UNL     1       6.304 -10.758  11.656  0.00  0.00    +0.000 A 
ATOM     15  C   UNL     1       3.632 -11.370  12.044  0.00  0.00    +0.000 A 
ATOM     16  C   UNL     1       5.909 -12.094  11.721  0.00  0.00    +0.000 A 
ATOM     17  C   UNL     1       4.567 -12.391  11.915  0.00  0.00    +0.000 A 
BRANCH  15  18
ATOM     18  O   UNL     1       2.314 -11.669  12.235  0.00  0.00    +0.000 OA
ATOM     19  H   UNL     1       1.950 -11.804  11.337  0.00  0.00    +0.000 HD
ENDBRANCH  15  18
BRANCH  17  20
ATOM     20  O   UNL     1       4.129 -13.685  11.986  0.00  0.00    +0.000 OA
ATOM     21  H   UNL     1       3.252 -13.678  12.412  0.00  0.00    +0.000 HD
ENDBRANCH  17  20
ENDBRANCH   5  12
BRANCH   8  22
ATOM     22  O   UNL     1       7.646  -3.533  12.334  0.00  0.00    +0.000 OA
ATOM     23  H   UNL     1       7.197  -2.673  12.486  0.00  0.00    +0.000 HD
ENDBRANCH   8  22
BRANCH  10  24
ATOM     24  O   UNL     1       5.635  -3.593   8.030  0.00  0.00    +0.000 OA
ATOM     25  H   UNL     1       5.242  -4.241   7.419  0.00  0.00    +0.000 HD
ENDBRANCH  10  24
TORSDOF 5
ENDMDL
MODEL 2
REMARK VINA RESULT:      -6.0      1.668      7.095
REMARK  Name = 5280445_Luteolin.pdbqt.pdb
REMARK  5 active torsions:
REMARK  status: ('A' for Active; 'I' for Inactive)
REMARK    1  A    between atoms: C_5  and  C_12
REMARK    2  A    between atoms: C_8  and  O_22
REMARK    3  A    between atoms: C_10  and  O_24
REMARK    4  A    between atoms: C_15  and  O_18
REMARK    5  A    between atoms: C_17  and  O_20
REMARK                            x       y       z     vdW  Elec       q    Type
REMARK                         _______ _______ _______ _____ _____    ______ ____
ROOT
ATOM      1  O   UNL     1       4.963  -9.096  11.424  0.00  0.00    +0.000 OA
ATOM      2  O   UNL     1       8.566 -10.891  10.577  0.00  0.00    +0.000 OA
ATOM      3  C   UNL     1       6.311 -11.187  11.347  0.00  0.00    +0.000 A 
ATOM      4  C   UNL     1       5.115 -10.473  11.609  0.00  0.00    +0.000 A 
ATOM      5  C   UNL     1       6.051  -8.353  10.950  0.00  0.00    +0.000 A 
ATOM      6  C   UNL     1       7.473 -10.428  10.847  0.00  0.00    +0.000 A 
ATOM      7  C   UNL     1       7.108  -9.062  10.732  0.00  0.00    +0.000 A 
ATOM      8  C   UNL     1       6.378 -12.564  11.559  0.00  0.00    +0.000 A 
ATOM      9  C   UNL     1       3.999 -11.155  12.081  0.00  0.00    +0.000 A 
ATOM     10  C   UNL     1       4.081 -12.531  12.287  0.00  0.00    +0.000 A 
ATOM     11  C   UNL     1       5.257 -13.238  12.031  0.00  0.00    +0.000 A 
ENDROOT
BRANCH   5  12
ATOM     12  C   UNL     1       5.889  -6.918  10.758  0.00  0.00    +0.000 A 
ATOM     13  C   UNL     1       5.588  -6.403   9.494  0.00  0.00    +0.000 A 
ATOM     14  C   UNL     1       6.032  -6.031  11.833  0.00  0.00    +0.000 A 
ATOM     15  C   UNL     1       5.436  -5.033   9.321  0.00  0.00    +0.000 A 
ATOM     16  C   UNL     1       5.880  -4.655  11.660  0.00  0.00    +0.000 A 
ATOM     17  C   UNL     1       5.580  -4.164  10.396  0.00  0.00    +0.000 A 
BRANCH  15  18
ATOM     18  O   UNL     1       5.141  -4.544   8.081  0.00  0.00    +0.000 OA
ATOM     19  H   UNL     1       4.922  -5.330   7.541  0.00  0.00    +0.000 HD
ENDBRANCH  15  18
BRANCH  17  20
ATOM     20  O   UNL     1       5.421  -2.824  10.174  0.00  0.00    +0.000 OA
ATOM     21  H   UNL     1       5.879  -2.348  10.891  0.00  0.00    +0.000 HD
ENDBRANCH  17  20
ENDBRANCH   5  12
BRANCH   8  22
ATOM     22  O   UNL     1       7.503 -13.306  11.325  0.00  0.00    +0.000 OA
ATOM     23  H   UNL     1       8.081 -13.284  12.119  0.00  0.00    +0.000 HD
ENDBRANCH   8  22
BRANCH  10  24
ATOM     24  O   UNL     1       2.973 -13.180  12.752  0.00  0.00    +0.000 OA
ATOM     25  H   UNL     1       2.701 -13.834  12.084  0.00  0.00    +0.000 HD
ENDBRANCH  10  24
TORSDOF 5
ENDMDL
MODEL 3
REMARK VINA RESULT:      -6.0     20.631     22.551
REMARK  Name = 5280445_Luteolin.pdbqt.pdb
REMARK  5 active torsions:
REMARK  status: ('A' for Active; 'I' for Inactive)
REMARK    1  A    between atoms: C_5  and  C_12
REMARK    2  A    between atoms: C_8  and  O_22
REMARK    3  A    between atoms: C_10  and  O_24
REMARK    4  A    between atoms: C_15  and  O_18
REMARK    5  A    between atoms: C_17  and  O_20
REMARK                            x       y       z     vdW  Elec       q    Type
REMARK                         _______ _______ _______ _____ _____    ______ ____
ROOT
ATOM      1  O   UNL     1     -15.215  -7.479   4.037  0.00  0.00    +0.000 OA
ATOM      2  O   UNL     1     -11.326  -8.802   3.826  0.00  0.00    +0.000 OA
ATOM      3  C   UNL     1     -13.138  -8.125   5.248  0.00  0.00    +0.000 A 
ATOM      4  C   UNL     1     -14.481  -7.672   5.210  0.00  0.00    +0.000 A 
ATOM      5  C   UNL     1     -14.603  -7.742   2.805  0.00  0.00    +0.000 A 
ATOM      6  C   UNL     1     -12.470  -8.409   3.963  0.00  0.00    +0.000 A 
ATOM      7  C   UNL     1     -13.382  -8.150   2.909  0.00  0.00    +0.000 A 
ATOM      8  C   UNL     1     -12.478  -8.292   6.464  0.00  0.00    +0.000 A 
ATOM      9  C   UNL     1     -15.144  -7.394   6.400  0.00  0.00    +0.000 A 
ATOM     10  C   UNL     1     -14.471  -7.566   7.608  0.00  0.00    +0.000 A 
ATOM     11  C   UNL     1     -13.148  -8.011   7.650  0.00  0.00    +0.000 A 
ENDROOT
BRANCH   5  12
ATOM     12  C   UNL     1     -15.371  -7.540   1.583  0.00  0.00    +0.000 A 
ATOM     13  C   UNL     1     -16.361  -6.555   1.525  0.00  0.00    +0.000 A 
ATOM     14  C   UNL     1     -15.130  -8.326   0.448  0.00  0.00    +0.000 A 
ATOM     15  C   UNL     1     -17.088  -6.371   0.356  0.00  0.00    +0.000 A 
ATOM     16  C   UNL     1     -15.859  -8.141  -0.727  0.00  0.00    +0.000 A 
ATOM     17  C   UNL     1     -16.839  -7.158  -0.764  0.00  0.00    +0.000 A 
BRANCH  15  18
ATOM     18  O   UNL     1     -18.053  -5.406   0.312  0.00  0.00    +0.000 OA
ATOM     19  H   UNL     1     -17.795  -4.820  -0.428  0.00  0.00    +0.000 HD
ENDBRANCH  15  18
BRANCH  17  20
ATOM     20  O   UNL     1     -17.582  -6.937  -1.891  0.00  0.00    +0.000 OA
ATOM     21  H   UNL     1     -17.520  -7.735  -2.447  0.00  0.00    +0.000 HD
ENDBRANCH  17  20
ENDBRANCH   5  12
BRANCH   8  22
ATOM     22  O   UNL     1     -11.184  -8.724   6.564  0.00  0.00    +0.000 OA
ATOM     23  H   UNL     1     -10.736  -8.253   7.300  0.00  0.00    +0.000 HD
ENDBRANCH   8  22
BRANCH  10  24
ATOM     24  O   UNL     1     -15.141  -7.286   8.765  0.00  0.00    +0.000 OA
ATOM     25  H   UNL     1     -15.129  -6.321   8.898  0.00  0.00    +0.000 HD
ENDBRANCH  10  24
TORSDOF 5
ENDMDL
MODEL 4
REMARK VINA RESULT:      -5.9      1.140      2.613
REMARK  Name = 5280445_Luteolin.pdbqt.pdb
REMARK  5 active torsions:
REMARK  status: ('A' for Active; 'I' for Inactive)
REMARK    1  A    between atoms: C_5  and  C_12
REMARK    2  A    between atoms: C_8  and  O_22
REMARK    3  A    between atoms: C_10  and  O_24
REMARK    4  A    between atoms: C_15  and  O_18
REMARK    5  A    between atoms: C_17  and  O_20
REMARK                            x       y       z     vdW  Elec       q    Type
REMARK                         _______ _______ _______ _____ _____    ______ ____
ROOT
ATOM      1  O   UNL     1       6.050  -7.967  12.104  0.00  0.00    +0.000 OA
ATOM      2  O   UNL     1       5.895  -6.845   8.150  0.00  0.00    +0.000 OA
ATOM      3  C   UNL     1       6.449  -6.202  10.396  0.00  0.00    +0.000 A 
ATOM      4  C   UNL     1       6.462  -6.686  11.727  0.00  0.00    +0.000 A 
ATOM      5  C   UNL     1       5.589  -8.847  11.117  0.00  0.00    +0.000 A 
ATOM      6  C   UNL     1       5.968  -7.109   9.336  0.00  0.00    +0.000 A 
ATOM      7  C   UNL     1       5.603  -8.345   9.928  0.00  0.00    +0.000 A 
ATOM      8  C   UNL     1       6.879  -4.908  10.105  0.00  0.00    +0.000 A 
ATOM      9  C   UNL     1       6.909  -5.860  12.753  0.00  0.00    +0.000 A 
ATOM     10  C   UNL     1       7.336  -4.569  12.447  0.00  0.00    +0.000 A 
ATOM     11  C   UNL     1       7.324  -4.087  11.137  0.00  0.00    +0.000 A 
ENDROOT
BRANCH   5  12
ATOM     12  C   UNL     1       5.161 -10.182  11.513  0.00  0.00    +0.000 A 
ATOM     13  C   UNL     1       3.838 -10.415  11.901  0.00  0.00    +0.000 A 
ATOM     14  C   UNL     1       6.064 -11.254  11.511  0.00  0.00    +0.000 A 
ATOM     15  C   UNL     1       3.440 -11.692  12.277  0.00  0.00    +0.000 A 
ATOM     16  C   UNL     1       5.665 -12.536  11.888  0.00  0.00    +0.000 A 
ATOM     17  C   UNL     1       4.346 -12.746  12.270  0.00  0.00    +0.000 A 
BRANCH  15  18
ATOM     18  O   UNL     1       2.145 -11.905  12.653  0.00  0.00    +0.000 OA
ATOM     19  H   UNL     1       1.604 -11.501  11.945  0.00  0.00    +0.000 HD
ENDBRANCH  15  18
BRANCH  17  20
ATOM     20  O   UNL     1       3.905 -13.984  12.649  0.00  0.00    +0.000 OA
ATOM     21  H   UNL     1       4.686 -14.557  12.756  0.00  0.00    +0.000 HD
ENDBRANCH  17  20
ENDBRANCH   5  12
BRANCH   8  22
ATOM     22  O   UNL     1       6.889  -4.385   8.842  0.00  0.00    +0.000 OA
ATOM     23  H   UNL     1       7.685  -3.822   8.725  0.00  0.00    +0.000 HD
ENDBRANCH   8  22
BRANCH  10  24
ATOM     24  O   UNL     1       7.770  -3.775  13.470  0.00  0.00    +0.000 OA
ATOM     25  H   UNL     1       6.990  -3.398  13.915  0.00  0.00    +0.000 HD
ENDBRANCH  10  24
TORSDOF 5
ENDMDL
MODEL 5
REMARK VINA RESULT:      -5.9      2.050      7.608
REMARK  Name = 5280445_Luteolin.pdbqt.pdb
REMARK  5 active torsions:
REMARK  status: ('A' for Active; 'I' for Inactive)
REMARK    1  A    between atoms: C_5  and  C_12
REMARK    2  A    between atoms: C_8  and  O_22
REMARK    3  A    between atoms: C_10  and  O_24
REMARK    4  A    between atoms: C_15  and  O_18
REMARK    5  A    between atoms: C_17  and  O_20
REMARK                            x       y       z     vdW  Elec       q    Type
REMARK                         _______ _______ _______ _____ _____    ______ ____
ROOT
ATOM      1  O   UNL     1       4.096 -10.091  12.769  0.00  0.00    +0.000 OA
ATOM      2  O   UNL     1       5.772 -13.549  11.303  0.00  0.00    +0.000 OA
ATOM      3  C   UNL     1       4.281 -12.569  12.909  0.00  0.00    +0.000 A 
ATOM      4  C   UNL     1       3.762 -11.322  13.339  0.00  0.00    +0.000 A 
ATOM      5  C   UNL     1       5.003 -10.063  11.703  0.00  0.00    +0.000 A 
ATOM      6  C   UNL     1       5.239 -12.568  11.787  0.00  0.00    +0.000 A 
ATOM      7  C   UNL     1       5.437 -11.230  11.361  0.00  0.00    +0.000 A 
ATOM      8  C   UNL     1       3.893 -13.754  13.533  0.00  0.00    +0.000 A 
ATOM      9  C   UNL     1       2.856 -11.283  14.394  0.00  0.00    +0.000 A 
ATOM     10  C   UNL     1       2.478 -12.476  15.008  0.00  0.00    +0.000 A 
ATOM     11  C   UNL     1       2.987 -13.706  14.589  0.00  0.00    +0.000 A 
ENDROOT
BRANCH   5  12
ATOM     12  C   UNL     1       5.350  -8.777  11.110  0.00  0.00    +0.000 A 
ATOM     13  C   UNL     1       5.304  -8.602   9.724  0.00  0.00    +0.000 A 
ATOM     14  C   UNL     1       5.734  -7.698  11.917  0.00  0.00    +0.000 A 
ATOM     15  C   UNL     1       5.637  -7.373   9.170  0.00  0.00    +0.000 A 
ATOM     16  C   UNL     1       6.069  -6.463  11.361  0.00  0.00    +0.000 A 
ATOM     17  C   UNL     1       6.016  -6.310   9.982  0.00  0.00    +0.000 A 
BRANCH  15  18
ATOM     18  O   UNL     1       5.587  -7.215   7.814  0.00  0.00    +0.000 OA
ATOM     19  H   UNL     1       4.934  -7.874   7.504  0.00  0.00    +0.000 HD
ENDBRANCH  15  18
BRANCH  17  20
ATOM     20  O   UNL     1       6.334  -5.119   9.387  0.00  0.00    +0.000 OA
ATOM     21  H   UNL     1       5.502  -4.643   9.215  0.00  0.00    +0.000 HD
ENDBRANCH  17  20
ENDBRANCH   5  12
BRANCH   8  22
ATOM     22  O   UNL     1       4.359 -14.985  13.164  0.00  0.00    +0.000 OA
ATOM     23  H   UNL     1       4.500 -15.006  12.193  0.00  0.00    +0.000 HD
ENDBRANCH   8  22
BRANCH  10  24
ATOM     24  O   UNL     1       1.589 -12.414  16.042  0.00  0.00    +0.000 OA
ATOM     25  H   UNL     1       0.757 -12.831  15.754  0.00  0.00    +0.000 HD
ENDBRANCH  10  24
TORSDOF 5
ENDMDL
MODEL 6
REMARK VINA RESULT:      -5.8      1.803      7.601
REMARK  Name = 5280445_Luteolin.pdbqt.pdb
REMARK  5 active torsions:
REMARK  status: ('A' for Active; 'I' for Inactive)
REMARK    1  A    between atoms: C_5  and  C_12
REMARK    2  A    between atoms: C_8  and  O_22
REMARK    3  A    between atoms: C_10  and  O_24
REMARK    4  A    between atoms: C_15  and  O_18
REMARK    5  A    between atoms: C_17  and  O_20
REMARK                            x       y       z     vdW  Elec       q    Type
REMARK                         _______ _______ _______ _____ _____    ______ ____
ROOT
ATOM      1  O   UNL     1       6.192 -10.914  11.188  0.00  0.00    +0.000 OA
ATOM      2  O   UNL     1       2.583 -11.760  12.971  0.00  0.00    +0.000 OA
ATOM      3  C   UNL     1       4.614 -12.640  12.039  0.00  0.00    +0.000 A 
ATOM      4  C   UNL     1       5.830 -12.242  11.431  0.00  0.00    +0.000 A 
ATOM      5  C   UNL     1       5.308  -9.893  11.559  0.00  0.00    +0.000 A 
ATOM      6  C   UNL     1       3.665 -11.584  12.441  0.00  0.00    +0.000 A 
ATOM      7  C   UNL     1       4.221 -10.323  12.107  0.00  0.00    +0.000 A 
ATOM      8  C   UNL     1       4.331 -13.990  12.247  0.00  0.00    +0.000 A 
ATOM      9  C   UNL     1       6.750 -13.209  11.039  0.00  0.00    +0.000 A 
ATOM     10  C   UNL     1       6.453 -14.553  11.253  0.00  0.00    +0.000 A 
ATOM     11  C   UNL     1       5.256 -14.951  11.851  0.00  0.00    +0.000 A 
ENDROOT
BRANCH   5  12
ATOM     12  C   UNL     1       5.688  -8.510  11.305  0.00  0.00    +0.000 A 
ATOM     13  C   UNL     1       6.150  -8.124  10.043  0.00  0.00    +0.000 A 
ATOM     14  C   UNL     1       5.596  -7.544  12.316  0.00  0.00    +0.000 A 
ATOM     15  C   UNL     1       6.510  -6.803   9.811  0.00  0.00    +0.000 A 
ATOM     16  C   UNL     1       5.957  -6.217  12.083  0.00  0.00    +0.000 A 
ATOM     17  C   UNL     1       6.414  -5.855  10.823  0.00  0.00    +0.000 A 
BRANCH  15  18
ATOM     18  O   UNL     1       6.960  -6.440   8.574  0.00  0.00    +0.000 OA
ATOM     19  H   UNL     1       7.825  -6.011   8.732  0.00  0.00    +0.000 HD
ENDBRANCH  15  18
BRANCH  17  20
ATOM     20  O   UNL     1       6.781  -4.567  10.544  0.00  0.00    +0.000 OA
ATOM     21  H   UNL     1       6.291  -3.982  11.150  0.00  0.00    +0.000 HD
ENDBRANCH  17  20
ENDBRANCH   5  12
BRANCH   8  22
ATOM     22  O   UNL     1       3.175 -14.435  12.827  0.00  0.00    +0.000 OA
ATOM     23  H   UNL     1       2.783 -15.146  12.275  0.00  0.00    +0.000 HD
ENDBRANCH   8  22
BRANCH  10  24
ATOM     24  O   UNL     1       7.370 -15.486  10.860  0.00  0.00    +0.000 OA
ATOM     25  H   UNL     1       8.260 -15.133  11.039  0.00  0.00    +0.000 HD
ENDBRANCH  10  24
TORSDOF 5
ENDMDL
MODEL 7
REMARK VINA RESULT:      -5.6     17.913     21.368
REMARK  Name = 5280445_Luteolin.pdbqt.pdb
REMARK  5 active torsions:
REMARK  status: ('A' for Active; 'I' for Inactive)
REMARK    1  A    between atoms: C_5  and  C_12
REMARK    2  A    between atoms: C_8  and  O_22
REMARK    3  A    between atoms: C_10  and  O_24
REMARK    4  A    between atoms: C_15  and  O_18
REMARK    5  A    between atoms: C_17  and  O_20
REMARK                            x       y       z     vdW  Elec       q    Type
REMARK                         _______ _______ _______ _____ _____    ______ ____
ROOT
ATOM      1  O   UNL     1     -12.499 -16.858  12.872  0.00  0.00    +0.000 OA
ATOM      2  O   UNL     1     -15.836 -14.559  13.578  0.00  0.00    +0.000 OA
ATOM      3  C   UNL     1     -14.346 -16.242  14.423  0.00  0.00    +0.000 A 
ATOM      4  C   UNL     1     -13.189 -16.985  14.081  0.00  0.00    +0.000 A 
ATOM      5  C   UNL     1     -12.966 -15.944  11.920  0.00  0.00    +0.000 A 
ATOM      6  C   UNL     1     -14.858 -15.271  13.437  0.00  0.00    +0.000 A 
ATOM      7  C   UNL     1     -14.021 -15.301  12.293  0.00  0.00    +0.000 A 
ATOM      8  C   UNL     1     -14.973 -16.429  15.654  0.00  0.00    +0.000 A 
ATOM      9  C   UNL     1     -12.675 -17.909  14.985  0.00  0.00    +0.000 A 
ATOM     10  C   UNL     1     -13.314 -18.085  16.211  0.00  0.00    +0.000 A 
ATOM     11  C   UNL     1     -14.454 -17.356  16.552  0.00  0.00    +0.000 A 
ENDROOT
BRANCH   5  12
ATOM     12  C   UNL     1     -12.245 -15.814  10.660  0.00  0.00    +0.000 A 
ATOM     13  C   UNL     1     -10.849 -15.887  10.633  0.00  0.00    +0.000 A 
ATOM     14  C   UNL     1     -12.936 -15.616   9.457  0.00  0.00    +0.000 A 
ATOM     15  C   UNL     1     -10.172 -15.761   9.426  0.00  0.00    +0.000 A 
ATOM     16  C   UNL     1     -12.257 -15.490   8.245  0.00  0.00    +0.000 A 
ATOM     17  C   UNL     1     -10.870 -15.565   8.240  0.00  0.00    +0.000 A 
BRANCH  15  18
ATOM     18  O   UNL     1      -8.809 -15.834   9.414  0.00  0.00    +0.000 OA
ATOM     19  H   UNL     1      -8.526 -15.210   8.716  0.00  0.00    +0.000 HD
ENDBRANCH  15  18
BRANCH  17  20
ATOM     20  O   UNL     1     -10.157 -15.447   7.079  0.00  0.00    +0.000 OA
ATOM     21  H   UNL     1     -10.790 -15.476   6.339  0.00  0.00    +0.000 HD
ENDBRANCH  17  20
ENDBRANCH   5  12
BRANCH   8  22
ATOM     22  O   UNL     1     -16.091 -15.743  16.039  0.00  0.00    +0.000 OA
ATOM     23  H   UNL     1     -16.783 -15.827  15.347  0.00  0.00    +0.000 HD
ENDBRANCH   8  22
BRANCH  10  24
ATOM     24  O   UNL     1     -12.793 -18.999  17.083  0.00  0.00    +0.000 OA
ATOM     25  H   UNL     1     -11.943 -18.657  17.411  0.00  0.00    +0.000 HD
ENDBRANCH  10  24
TORSDOF 5
ENDMDL
MODEL 8
REMARK VINA RESULT:      -5.6     17.722     21.143
REMARK  Name = 5280445_Luteolin.pdbqt.pdb
REMARK  5 active torsions:
REMARK  status: ('A' for Active; 'I' for Inactive)
REMARK    1  A    between atoms: C_5  and  C_12
REMARK    2  A    between atoms: C_8  and  O_22
REMARK    3  A    between atoms: C_10  and  O_24
REMARK    4  A    between atoms: C_15  and  O_18
REMARK    5  A    between atoms: C_17  and  O_20
REMARK                            x       y       z     vdW  Elec       q    Type
REMARK                         _______ _______ _______ _____ _____    ______ ____
ROOT
ATOM      1  O   UNL     1     -13.644 -15.372  11.011  0.00  0.00    +0.000 OA
ATOM      2  O   UNL     1     -14.024 -16.596  14.920  0.00  0.00    +0.000 OA
ATOM      3  C   UNL     1     -14.979 -15.338  13.112  0.00  0.00    +0.000 A 
ATOM      4  C   UNL     1     -14.754 -14.972  11.761  0.00  0.00    +0.000 A 
ATOM      5  C   UNL     1     -12.678 -16.187  11.614  0.00  0.00    +0.000 A 
ATOM      6  C   UNL     1     -13.977 -16.197  13.771  0.00  0.00    +0.000 A 
ATOM      7  C   UNL     1     -12.944 -16.483  12.842  0.00  0.00    +0.000 A 
ATOM      8  C   UNL     1     -16.115 -14.896  13.788  0.00  0.00    +0.000 A 
ATOM      9  C   UNL     1     -15.677 -14.164  11.106  0.00  0.00    +0.000 A 
ATOM     10  C   UNL     1     -16.807 -13.730  11.795  0.00  0.00    +0.000 A 
ATOM     11  C   UNL     1     -17.034 -14.087  13.126  0.00  0.00    +0.000 A 
ENDROOT
BRANCH   5  12
ATOM     12  C   UNL     1     -11.523 -16.603  10.830  0.00  0.00    +0.000 A 
ATOM     13  C   UNL     1     -11.380 -17.936  10.433  0.00  0.00    +0.000 A 
ATOM     14  C   UNL     1     -10.538 -15.677  10.460  0.00  0.00    +0.000 A 
ATOM     15  C   UNL     1     -10.274 -18.322   9.686  0.00  0.00    +0.000 A 
ATOM     16  C   UNL     1      -9.428 -16.064   9.709  0.00  0.00    +0.000 A 
ATOM     17  C   UNL     1      -9.304 -17.393   9.325  0.00  0.00    +0.000 A 
BRANCH  15  18
ATOM     18  O   UNL     1     -10.147 -19.627   9.304  0.00  0.00    +0.000 OA
ATOM     19  H   UNL     1     -10.264 -19.621   8.333  0.00  0.00    +0.000 HD
ENDBRANCH  15  18
BRANCH  17  20
ATOM     20  O   UNL     1      -8.235 -17.823   8.589  0.00  0.00    +0.000 OA
ATOM     21  H   UNL     1      -8.249 -18.797   8.588  0.00  0.00    +0.000 HD
ENDBRANCH  17  20
ENDBRANCH   5  12
BRANCH   8  22
ATOM     22  O   UNL     1     -16.387 -15.214  15.090  0.00  0.00    +0.000 OA
ATOM     23  H   UNL     1     -17.225 -15.724  15.136  0.00  0.00    +0.000 HD
ENDBRANCH   8  22
BRANCH  10  24
ATOM     24  O   UNL     1     -17.700 -12.936  11.133  0.00  0.00    +0.000 OA
ATOM     25  H   UNL     1     -18.301 -13.511  10.626  0.00  0.00    +0.000 HD
ENDBRANCH  10  24
TORSDOF 5
ENDMDL
MODEL 9
REMARK VINA RESULT:      -5.6      2.040      2.258
REMARK  Name = 5280445_Luteolin.pdbqt.pdb
REMARK  5 active torsions:
REMARK  status: ('A' for Active; 'I' for Inactive)
REMARK    1  A    between atoms: C_5  and  C_12
REMARK    2  A    between atoms: C_8  and  O_22
REMARK    3  A    between atoms: C_10  and  O_24
REMARK    4  A    between atoms: C_15  and  O_18
REMARK    5  A    between atoms: C_17  and  O_20
REMARK                            x       y       z     vdW  Elec       q    Type
REMARK                         _______ _______ _______ _____ _____    ______ ____
ROOT
ATOM      1  O   UNL     1       5.410  -7.275  10.750  0.00  0.00    +0.000 OA
ATOM      2  O   UNL     1       9.409  -8.216  10.547  0.00  0.00    +0.000 OA
ATOM      3  C   UNL     1       7.686  -6.647   9.964  0.00  0.00    +0.000 A 
ATOM      4  C   UNL     1       6.294  -6.417  10.090  0.00  0.00    +0.000 A 
ATOM      5  C   UNL     1       5.911  -8.446  11.331  0.00  0.00    +0.000 A 
ATOM      6  C   UNL     1       8.240  -7.874  10.568  0.00  0.00    +0.000 A 
ATOM      7  C   UNL     1       7.184  -8.596  11.181  0.00  0.00    +0.000 A 
ATOM      8  C   UNL     1       8.499  -5.738   9.289  0.00  0.00    +0.000 A 
ATOM      9  C   UNL     1       5.735  -5.271   9.535  0.00  0.00    +0.000 A 
ATOM     10  C   UNL     1       6.560  -4.371   8.863  0.00  0.00    +0.000 A 
ATOM     11  C   UNL     1       7.932  -4.594   8.735  0.00  0.00    +0.000 A 
ENDROOT
BRANCH   5  12
ATOM     12  C   UNL     1       4.987  -9.339  12.019  0.00  0.00    +0.000 A 
ATOM     13  C   UNL     1       3.915  -9.915  11.330  0.00  0.00    +0.000 A 
ATOM     14  C   UNL     1       5.156  -9.636  13.378  0.00  0.00    +0.000 A 
ATOM     15  C   UNL     1       3.040 -10.764  11.996  0.00  0.00    +0.000 A 
ATOM     16  C   UNL     1       4.277 -10.489  14.047  0.00  0.00    +0.000 A 
ATOM     17  C   UNL     1       3.219 -11.050  13.344  0.00  0.00    +0.000 A 
BRANCH  15  18
ATOM     18  O   UNL     1       1.997 -11.320  11.311  0.00  0.00    +0.000 OA
ATOM     19  H   UNL     1       1.231 -11.257  11.917  0.00  0.00    +0.000 HD
ENDBRANCH  15  18
BRANCH  17  20
ATOM     20  O   UNL     1       2.329 -11.892  13.953  0.00  0.00    +0.000 OA
ATOM     21  H   UNL     1       2.274 -11.636  14.892  0.00  0.00    +0.000 HD
ENDBRANCH  17  20
ENDBRANCH   5  12
BRANCH   8  22
ATOM     22  O   UNL     1       9.847  -5.906   9.134  0.00  0.00    +0.000 OA
ATOM     23  H   UNL     1      10.017  -6.624   8.486  0.00  0.00    +0.000 HD
ENDBRANCH   8  22
BRANCH  10  24
ATOM     24  O   UNL     1       5.990  -3.253   8.324  0.00  0.00    +0.000 OA
ATOM     25  H   UNL     1       6.657  -2.544   8.319  0.00  0.00    +0.000 HD
ENDBRANCH  10  24
TORSDOF 5
ENDMDL
