MODEL 1
REMARK VINA RESULT:      -4.9      0.000      0.000
REMARK  Name = 5281416_Esculetin.pdbqt.pdb
REMARK  2 active torsions:
REMARK  status: ('A' for Active; 'I' for Inactive)
REMARK    1  A    between atoms: C_7  and  O_12
REMARK    2  A    between atoms: C_8  and  O_14
REMARK                            x       y       z     vdW  Elec       q    Type
REMARK                         _______ _______ _______ _____ _____    ______ ____
ROOT
ATOM      1  O   UNL     1       5.984  -7.158  12.173  0.00  0.00    +0.000 OA
ATOM      2  O   UNL     1       5.840  -9.425  12.760  0.00  0.00    +0.000 OA
ATOM      3  C   UNL     1       5.619  -6.614   9.767  0.00  0.00    +0.000 A 
ATOM      4  C   UNL     1       5.899  -6.195  11.096  0.00  0.00    +0.000 A 
ATOM      5  C   UNL     1       5.536  -5.698   8.731  0.00  0.00    +0.000 A 
ATOM      6  C   UNL     1       6.100  -4.857  11.406  0.00  0.00    +0.000 A 
ATOM      7  C   UNL     1       5.738  -4.356   9.045  0.00  0.00    +0.000 A 
ATOM      8  C   UNL     1       6.015  -3.946  10.359  0.00  0.00    +0.000 A 
ATOM      9  C   UNL     1       5.441  -8.013   9.628  0.00  0.00    +0.000 A 
ATOM     10  C   UNL     1       5.515  -8.791  10.530  0.00  0.00    +0.000 A 
ATOM     11  C   UNL     1       5.788  -8.543  11.919  0.00  0.00    +0.000 A 
ENDROOT
BRANCH   7  12
ATOM     12  O   UNL     1       5.673  -3.389   8.077  0.00  0.00    +0.000 OA
ATOM     13  H   UNL     1       6.284  -3.642   7.360  0.00  0.00    +0.000 HD
ENDBRANCH   7  12
BRANCH   8  14
ATOM     14  O   UNL     1       6.207  -2.617  10.622  0.00  0.00    +0.000 OA
ATOM     15  H   UNL     1       7.037  -2.574  11.138  0.00  0.00    +0.000 HD
ENDBRANCH   8  14
TORSDOF 2
ENDMDL
MODEL 2
REMARK VINA RESULT:      -4.7     20.118     20.852
REMARK  Name = 5281416_Esculetin.pdbqt.pdb
REMARK  2 active torsions:
REMARK  status: ('A' for Active; 'I' for Inactive)
REMARK    1  A    between atoms: C_7  and  O_12
REMARK    2  A    between atoms: C_8  and  O_14
REMARK                            x       y       z     vdW  Elec       q    Type
REMARK                         _______ _______ _______ _____ _____    ______ ____
ROOT
ATOM      1  O   UNL     1     -12.939  -8.655   3.215  0.00  0.00    +0.000 OA
ATOM      2  O   UNL     1     -13.614  -8.706   0.968  0.00  0.00    +0.000 OA
ATOM      3  C   UNL     1     -14.627  -7.838   4.858  0.00  0.00    +0.000 A 
ATOM      4  C   UNL     1     -13.327  -8.340   4.572  0.00  0.00    +0.000 A 
ATOM      5  C   UNL     1     -15.006  -7.534   6.155  0.00  0.00    +0.000 A 
ATOM      6  C   UNL     1     -12.393  -8.543   5.578  0.00  0.00    +0.000 A 
ATOM      7  C   UNL     1     -14.065  -7.738   7.162  0.00  0.00    +0.000 A 
ATOM      8  C   UNL     1     -12.784  -8.234   6.876  0.00  0.00    +0.000 A 
ATOM      9  C   UNL     1     -15.453  -7.691   3.716  0.00  0.00    +0.000 A 
ATOM     10  C   UNL     1     -15.113  -7.958   2.604  0.00  0.00    +0.000 A 
ATOM     11  C   UNL     1     -13.852  -8.469   2.141  0.00  0.00    +0.000 A 
ENDROOT
BRANCH   7  12
ATOM     12  O   UNL     1     -14.363  -7.462   8.470  0.00  0.00    +0.000 OA
ATOM     13  H   UNL     1     -13.920  -6.626   8.707  0.00  0.00    +0.000 HD
ENDBRANCH   7  12
BRANCH   8  14
ATOM     14  O   UNL     1     -11.892  -8.420   7.896  0.00  0.00    +0.000 OA
ATOM     15  H   UNL     1     -11.038  -8.081   7.558  0.00  0.00    +0.000 HD
ENDBRANCH   8  14
TORSDOF 2
ENDMDL
MODEL 3
REMARK VINA RESULT:      -4.5      1.679      3.068
REMARK  Name = 5281416_Esculetin.pdbqt.pdb
REMARK  2 active torsions:
REMARK  status: ('A' for Active; 'I' for Inactive)
REMARK    1  A    between atoms: C_7  and  O_12
REMARK    2  A    between atoms: C_8  and  O_14
REMARK                            x       y       z     vdW  Elec       q    Type
REMARK                         _______ _______ _______ _____ _____    ______ ____
ROOT
ATOM      1  O   UNL     1       5.085  -9.807  11.614  0.00  0.00    +0.000 OA
ATOM      2  O   UNL     1       4.888 -10.942  13.658  0.00  0.00    +0.000 OA
ATOM      3  C   UNL     1       5.674  -7.387  11.746  0.00  0.00    +0.000 A 
ATOM      4  C   UNL     1       5.367  -8.540  10.973  0.00  0.00    +0.000 A 
ATOM      5  C   UNL     1       5.945  -6.172  11.140  0.00  0.00    +0.000 A 
ATOM      6  C   UNL     1       5.326  -8.492   9.587  0.00  0.00    +0.000 A 
ATOM      7  C   UNL     1       5.903  -6.127   9.748  0.00  0.00    +0.000 A 
ATOM      8  C   UNL     1       5.600  -7.267   8.988  0.00  0.00    +0.000 A 
ATOM      9  C   UNL     1       5.672  -7.612  13.145  0.00  0.00    +0.000 A 
ATOM     10  C   UNL     1       5.437  -8.666  13.654  0.00  0.00    +0.000 A 
ATOM     11  C   UNL     1       5.111  -9.919  13.031  0.00  0.00    +0.000 A 
ENDROOT
BRANCH   7  12
ATOM     12  O   UNL     1       6.159  -4.962   9.073  0.00  0.00    +0.000 OA
ATOM     13  H   UNL     1       5.975  -4.220   9.678  0.00  0.00    +0.000 HD
ENDBRANCH   7  12
BRANCH   8  14
ATOM     14  O   UNL     1       5.570  -7.177   7.624  0.00  0.00    +0.000 OA
ATOM     15  H   UNL     1       5.993  -7.999   7.302  0.00  0.00    +0.000 HD
ENDBRANCH   8  14
TORSDOF 2
ENDMDL
MODEL 4
REMARK VINA RESULT:      -4.4     21.249     22.600
REMARK  Name = 5281416_Esculetin.pdbqt.pdb
REMARK  2 active torsions:
REMARK  status: ('A' for Active; 'I' for Inactive)
REMARK    1  A    between atoms: C_7  and  O_12
REMARK    2  A    between atoms: C_8  and  O_14
REMARK                            x       y       z     vdW  Elec       q    Type
REMARK                         _______ _______ _______ _____ _____    ______ ____
ROOT
ATOM      1  O   UNL     1      -9.467  -4.456  27.379  0.00  0.00    +0.000 OA
ATOM      2  O   UNL     1      -8.075  -2.569  27.316  0.00  0.00    +0.000 OA
ATOM      3  C   UNL     1      -8.653  -6.471  26.156  0.00  0.00    +0.000 A 
ATOM      4  C   UNL     1      -9.639  -5.828  26.954  0.00  0.00    +0.000 A 
ATOM      5  C   UNL     1      -8.811  -7.785  25.746  0.00  0.00    +0.000 A 
ATOM      6  C   UNL     1     -10.793  -6.490  27.349  0.00  0.00    +0.000 A 
ATOM      7  C   UNL     1      -9.970  -8.445  26.144  0.00  0.00    +0.000 A 
ATOM      8  C   UNL     1     -10.942  -7.808  26.931  0.00  0.00    +0.000 A 
ATOM      9  C   UNL     1      -7.539  -5.652  25.844  0.00  0.00    +0.000 A 
ATOM     10  C   UNL     1      -7.416  -4.521  26.205  0.00  0.00    +0.000 A 
ATOM     11  C   UNL     1      -8.306  -3.726  27.006  0.00  0.00    +0.000 A 
ENDROOT
BRANCH   7  12
ATOM     12  O   UNL     1     -10.201  -9.746  25.779  0.00  0.00    +0.000 OA
ATOM     13  H   UNL     1     -11.050  -9.776  25.300  0.00  0.00    +0.000 HD
ENDBRANCH   7  12
BRANCH   8  14
ATOM     14  O   UNL     1     -12.066  -8.495  27.300  0.00  0.00    +0.000 OA
ATOM     15  H   UNL     1     -12.804  -7.864  27.183  0.00  0.00    +0.000 HD
ENDBRANCH   8  14
TORSDOF 2
ENDMDL
MODEL 5
REMARK VINA RESULT:      -4.4      1.895      5.009
REMARK  Name = 5281416_Esculetin.pdbqt.pdb
REMARK  2 active torsions:
REMARK  status: ('A' for Active; 'I' for Inactive)
REMARK    1  A    between atoms: C_7  and  O_12
REMARK    2  A    between atoms: C_8  and  O_14
REMARK                            x       y       z     vdW  Elec       q    Type
REMARK                         _______ _______ _______ _____ _____    ______ ____
ROOT
ATOM      1  O   UNL     1       5.777  -3.071   9.081  0.00  0.00    +0.000 OA
ATOM      2  O   UNL     1       6.422  -0.920   9.761  0.00  0.00    +0.000 OA
ATOM      3  C   UNL     1       6.848  -4.977  10.280  0.00  0.00    +0.000 A 
ATOM      4  C   UNL     1       5.950  -4.492   9.289  0.00  0.00    +0.000 A 
ATOM      5  C   UNL     1       7.019  -6.336  10.485  0.00  0.00    +0.000 A 
ATOM      6  C   UNL     1       5.215  -5.359   8.494  0.00  0.00    +0.000 A 
ATOM      7  C   UNL     1       6.279  -7.203   9.685  0.00  0.00    +0.000 A 
ATOM      8  C   UNL     1       5.394  -6.721   8.708  0.00  0.00    +0.000 A 
ATOM      9  C   UNL     1       7.517  -3.958  11.002  0.00  0.00    +0.000 A 
ATOM     10  C   UNL     1       7.360  -2.789  10.814  0.00  0.00    +0.000 A 
ATOM     11  C   UNL     1       6.503  -2.133   9.866  0.00  0.00    +0.000 A 
ENDROOT
BRANCH   7  12
ATOM     12  O   UNL     1       6.392  -8.561   9.826  0.00  0.00    +0.000 OA
ATOM     13  H   UNL     1       6.673  -8.929   8.968  0.00  0.00    +0.000 HD
ENDBRANCH   7  12
BRANCH   8  14
ATOM     14  O   UNL     1       4.688  -7.609   7.944  0.00  0.00    +0.000 OA
ATOM     15  H   UNL     1       3.960  -7.087   7.550  0.00  0.00    +0.000 HD
ENDBRANCH   8  14
TORSDOF 2
ENDMDL
MODEL 6
REMARK VINA RESULT:      -4.3     19.277     20.661
REMARK  Name = 5281416_Esculetin.pdbqt.pdb
REMARK  2 active torsions:
REMARK  status: ('A' for Active; 'I' for Inactive)
REMARK    1  A    between atoms: C_7  and  O_12
REMARK    2  A    between atoms: C_8  and  O_14
REMARK                            x       y       z     vdW  Elec       q    Type
REMARK                         _______ _______ _______ _____ _____    ______ ____
ROOT
ATOM      1  O   UNL     1     -13.996 -15.847  11.068  0.00  0.00    +0.000 OA
ATOM      2  O   UNL     1     -15.104 -16.203  13.106  0.00  0.00    +0.000 OA
ATOM      3  C   UNL     1     -11.531 -16.226  11.070  0.00  0.00    +0.000 A 
ATOM      4  C   UNL     1     -12.722 -15.866  10.382  0.00  0.00    +0.000 A 
ATOM      5  C   UNL     1     -10.308 -16.246  10.419  0.00  0.00    +0.000 A 
ATOM      6  C   UNL     1     -12.705 -15.522   9.038  0.00  0.00    +0.000 A 
ATOM      7  C   UNL     1     -10.295 -15.900   9.070  0.00  0.00    +0.000 A 
ATOM      8  C   UNL     1     -11.472 -15.545   8.394  0.00  0.00    +0.000 A 
ATOM      9  C   UNL     1     -11.728 -16.548  12.436  0.00  0.00    +0.000 A 
ATOM     10  C   UNL     1     -12.788 -16.527  12.984  0.00  0.00    +0.000 A 
ATOM     11  C   UNL     1     -14.077 -16.190  12.446  0.00  0.00    +0.000 A 
ENDROOT
BRANCH   7  12
ATOM     12  O   UNL     1      -9.126 -15.895   8.356  0.00  0.00    +0.000 OA
ATOM     13  H   UNL     1      -9.254 -15.322   7.577  0.00  0.00    +0.000 HD
ENDBRANCH   7  12
BRANCH   8  14
ATOM     14  O   UNL     1     -11.413 -15.212   7.069  0.00  0.00    +0.000 OA
ATOM     15  H   UNL     1     -12.165 -14.604   6.921  0.00  0.00    +0.000 HD
ENDBRANCH   8  14
TORSDOF 2
ENDMDL
MODEL 7
REMARK VINA RESULT:      -4.2     15.461     17.678
REMARK  Name = 5281416_Esculetin.pdbqt.pdb
REMARK  2 active torsions:
REMARK  status: ('A' for Active; 'I' for Inactive)
REMARK    1  A    between atoms: C_7  and  O_12
REMARK    2  A    between atoms: C_8  and  O_14
REMARK                            x       y       z     vdW  Elec       q    Type
REMARK                         _______ _______ _______ _____ _____    ______ ____
ROOT
ATOM      1  O   UNL     1      -5.500 -17.009  21.030  0.00  0.00    +0.000 OA
ATOM      2  O   UNL     1      -7.219 -17.630  22.501  0.00  0.00    +0.000 OA
ATOM      3  C   UNL     1      -6.185 -16.476  18.692  0.00  0.00    +0.000 A 
ATOM      4  C   UNL     1      -5.170 -16.604  19.680  0.00  0.00    +0.000 A 
ATOM      5  C   UNL     1      -5.877 -16.090  17.398  0.00  0.00    +0.000 A 
ATOM      6  C   UNL     1      -3.839 -16.349  19.387  0.00  0.00    +0.000 A 
ATOM      7  C   UNL     1      -4.539 -15.834  17.107  0.00  0.00    +0.000 A 
ATOM      8  C   UNL     1      -3.540 -15.961  18.085  0.00  0.00    +0.000 A 
ATOM      9  C   UNL     1      -7.489 -16.775  19.160  0.00  0.00    +0.000 A 
ATOM     10  C   UNL     1      -7.740 -17.107  20.279  0.00  0.00    +0.000 A 
ATOM     11  C   UNL     1      -6.848 -17.285  21.391  0.00  0.00    +0.000 A 
ENDROOT
BRANCH   7  12
ATOM     12  O   UNL     1      -4.153 -15.447  15.851  0.00  0.00    +0.000 OA
ATOM     13  H   UNL     1      -4.574 -14.588  15.660  0.00  0.00    +0.000 HD
ENDBRANCH   7  12
BRANCH   8  14
ATOM     14  O   UNL     1      -2.239 -15.700  17.755  0.00  0.00    +0.000 OA
ATOM     15  H   UNL     1      -2.280 -14.979  17.095  0.00  0.00    +0.000 HD
ENDBRANCH   8  14
TORSDOF 2
ENDMDL
MODEL 8
REMARK VINA RESULT:      -4.0     21.154     21.964
REMARK  Name = 5281416_Esculetin.pdbqt.pdb
REMARK  2 active torsions:
REMARK  status: ('A' for Active; 'I' for Inactive)
REMARK    1  A    between atoms: C_7  and  O_12
REMARK    2  A    between atoms: C_8  and  O_14
REMARK                            x       y       z     vdW  Elec       q    Type
REMARK                         _______ _______ _______ _____ _____    ______ ____
ROOT
ATOM      1  O   UNL     1      -7.304  -4.633  25.564  0.00  0.00    +0.000 OA
ATOM      2  O   UNL     1      -7.031  -6.905  25.043  0.00  0.00    +0.000 OA
ATOM      3  C   UNL     1      -9.164  -4.073  27.127  0.00  0.00    +0.000 A 
ATOM      4  C   UNL     1      -8.075  -3.662  26.310  0.00  0.00    +0.000 A 
ATOM      5  C   UNL     1      -9.907  -3.150  27.844  0.00  0.00    +0.000 A 
ATOM      6  C   UNL     1      -7.716  -2.327  26.200  0.00  0.00    +0.000 A 
ATOM      7  C   UNL     1      -9.544  -1.810  27.732  0.00  0.00    +0.000 A 
ATOM      8  C   UNL     1      -8.469  -1.408  26.925  0.00  0.00    +0.000 A 
ATOM      9  C   UNL     1      -9.393  -5.472  27.124  0.00  0.00    +0.000 A 
ATOM     10  C   UNL     1      -8.745  -6.256  26.501  0.00  0.00    +0.000 A 
ATOM     11  C   UNL     1      -7.623  -6.017  25.635  0.00  0.00    +0.000 A 
ENDROOT
BRANCH   7  12
ATOM     12  O   UNL     1     -10.229  -0.836  28.410  0.00  0.00    +0.000 OA
ATOM     13  H   UNL     1     -10.561  -0.194  27.755  0.00  0.00    +0.000 HD
ENDBRANCH   7  12
BRANCH   8  14
ATOM     14  O   UNL     1      -8.147  -0.081  26.844  0.00  0.00    +0.000 OA
ATOM     15  H   UNL     1      -8.994   0.397  26.952  0.00  0.00    +0.000 HD
ENDBRANCH   8  14
TORSDOF 2
ENDMDL
MODEL 9
REMARK VINA RESULT:      -4.0     27.603     27.892
REMARK  Name = 5281416_Esculetin.pdbqt.pdb
REMARK  2 active torsions:
REMARK  status: ('A' for Active; 'I' for Inactive)
REMARK    1  A    between atoms: C_7  and  O_12
REMARK    2  A    between atoms: C_8  and  O_14
REMARK                            x       y       z     vdW  Elec       q    Type
REMARK                         _______ _______ _______ _____ _____    ______ ____
ROOT
ATOM      1  O   UNL     1     -21.401  -3.232  20.620  0.00  0.00    +0.000 OA
ATOM      2  O   UNL     1     -21.142  -2.723  22.896  0.00  0.00    +0.000 OA
ATOM      3  C   UNL     1     -19.659  -4.703  19.611  0.00  0.00    +0.000 A 
ATOM      4  C   UNL     1     -20.853  -3.941  19.484  0.00  0.00    +0.000 A 
ATOM      5  C   UNL     1     -19.128  -5.384  18.528  0.00  0.00    +0.000 A 
ATOM      6  C   UNL     1     -21.529  -3.850  18.276  0.00  0.00    +0.000 A 
ATOM      7  C   UNL     1     -19.809  -5.291  17.316  0.00  0.00    +0.000 A 
ATOM      8  C   UNL     1     -20.987  -4.538  17.195  0.00  0.00    +0.000 A 
ATOM      9  C   UNL     1     -19.099  -4.688  20.913  0.00  0.00    +0.000 A 
ATOM     10  C   UNL     1     -19.568  -4.096  21.837  0.00  0.00    +0.000 A 
ATOM     11  C   UNL     1     -20.754  -3.286  21.886  0.00  0.00    +0.000 A 
ENDROOT
BRANCH   7  12
ATOM     12  O   UNL     1     -19.348  -5.935  16.198  0.00  0.00    +0.000 OA
ATOM     13  H   UNL     1     -19.671  -5.448  15.418  0.00  0.00    +0.000 HD
ENDBRANCH   7  12
BRANCH   8  14
ATOM     14  O   UNL     1     -21.623  -4.474  15.986  0.00  0.00    +0.000 OA
ATOM     15  H   UNL     1     -22.396  -5.068  16.070  0.00  0.00    +0.000 HD
ENDBRANCH   8  14
TORSDOF 2
ENDMDL
