MODEL 1
REMARK VINA RESULT:      -6.0      0.000      0.000
REMARK  Name = 5281698_sexangularetin.pdbqt.pdb
REMARK  6 active torsions:
REMARK  status: ('A' for Active; 'I' for Inactive)
REMARK    1  A    between atoms: C_5  and  C_12
REMARK    2  A    between atoms: C_6  and  O_20
REMARK    3  A    between atoms: C_8  and  O_22
REMARK    4  A    between atoms: C_9  and  O_24
REMARK    5  A    between atoms: C_10  and  O_26
REMARK    6  A    between atoms: C_17  and  O_18
REMARK                            x       y       z     vdW  Elec       q    Type
REMARK                         _______ _______ _______ _____ _____    ______ ____
ROOT
ATOM      1  O   UNL     1       5.397  -8.676  11.151  0.00  0.00    +0.000 OA
ATOM      2  O   UNL     1       9.129 -10.130  10.543  0.00  0.00    +0.000 OA
ATOM      3  C   UNL     1       6.946 -10.530  11.326  0.00  0.00    +0.000 A 
ATOM      4  C   UNL     1       5.686  -9.966  11.519  0.00  0.00    +0.000 A 
ATOM      5  C   UNL     1       6.397  -7.870  10.620  0.00  0.00    +0.000 A 
ATOM      6  C   UNL     1       4.664 -10.739  12.088  0.00  0.00    +0.000 A 
ATOM      7  C   UNL     1       7.998  -9.695  10.743  0.00  0.00    +0.000 A 
ATOM      8  C   UNL     1       7.653  -8.299  10.393  0.00  0.00    +0.000 A 
ATOM      9  C   UNL     1       7.186 -11.864  11.675  0.00  0.00    +0.000 A 
ATOM     10  C   UNL     1       4.901 -12.083  12.396  0.00  0.00    +0.000 A 
ATOM     11  C   UNL     1       6.161 -12.643  12.202  0.00  0.00    +0.000 A 
ENDROOT
BRANCH   5  12
ATOM     12  C   UNL     1       5.930  -6.503  10.314  0.00  0.00    +0.000 A 
ATOM     13  C   UNL     1       5.933  -5.528  11.319  0.00  0.00    +0.000 A 
ATOM     14  C   UNL     1       5.545  -6.122   9.024  0.00  0.00    +0.000 A 
ATOM     15  C   UNL     1       5.540  -4.218  11.054  0.00  0.00    +0.000 A 
ATOM     16  C   UNL     1       5.148  -4.815   8.746  0.00  0.00    +0.000 A 
ATOM     17  C   UNL     1       5.149  -3.872   9.766  0.00  0.00    +0.000 A 
BRANCH  17  18
ATOM     18  O   UNL     1       4.759  -2.598   9.474  0.00  0.00    +0.000 OA
ATOM     19  H   UNL     1       5.314  -2.271   8.743  0.00  0.00    +0.000 HD
ENDBRANCH  17  18
ENDBRANCH   5  12
BRANCH   6  20
ATOM     20  O   UNL     1       3.400 -10.231  12.267  0.00  0.00    +0.000 OA
ATOM     21  C   UNL     1       2.548 -10.606  11.210  0.00  0.00    +0.000 C 
ENDBRANCH   6  20
BRANCH   8  22
ATOM     22  O   UNL     1       8.653  -7.529   9.830  0.00  0.00    +0.000 OA
ATOM     23  H   UNL     1       8.429  -7.458   8.878  0.00  0.00    +0.000 HD
ENDBRANCH   8  22
BRANCH   9  24
ATOM     24  O   UNL     1       8.397 -12.477  11.508  0.00  0.00    +0.000 OA
ATOM     25  H   UNL     1       8.859 -12.510  12.376  0.00  0.00    +0.000 HD
ENDBRANCH   9  24
BRANCH  10  26
ATOM     26  O   UNL     1       3.886 -12.862  12.876  0.00  0.00    +0.000 OA
ATOM     27  H   UNL     1       4.180 -13.792  12.878  0.00  0.00    +0.000 HD
ENDBRANCH  10  26
TORSDOF 6
ENDMDL
MODEL 2
REMARK VINA RESULT:      -5.6     14.121     16.901
REMARK  Name = 5281698_sexangularetin.pdbqt.pdb
REMARK  6 active torsions:
REMARK  status: ('A' for Active; 'I' for Inactive)
REMARK    1  A    between atoms: C_5  and  C_12
REMARK    2  A    between atoms: C_6  and  O_20
REMARK    3  A    between atoms: C_8  and  O_22
REMARK    4  A    between atoms: C_9  and  O_24
REMARK    5  A    between atoms: C_10  and  O_26
REMARK    6  A    between atoms: C_17  and  O_18
REMARK                            x       y       z     vdW  Elec       q    Type
REMARK                         _______ _______ _______ _____ _____    ______ ____
ROOT
ATOM      1  O   UNL     1      -2.388  -5.379  -1.652  0.00  0.00    +0.000 OA
ATOM      2  O   UNL     1      -1.806  -2.182  -4.072  0.00  0.00    +0.000 OA
ATOM      3  C   UNL     1      -3.080  -3.166  -2.354  0.00  0.00    +0.000 A 
ATOM      4  C   UNL     1      -3.233  -4.301  -1.559  0.00  0.00    +0.000 A 
ATOM      5  C   UNL     1      -1.375  -5.381  -2.604  0.00  0.00    +0.000 A 
ATOM      6  C   UNL     1      -4.268  -4.348  -0.615  0.00  0.00    +0.000 A 
ATOM      7  C   UNL     1      -1.999  -3.151  -3.342  0.00  0.00    +0.000 A 
ATOM      8  C   UNL     1      -1.133  -4.347  -3.432  0.00  0.00    +0.000 A 
ATOM      9  C   UNL     1      -3.936  -2.071  -2.196  0.00  0.00    +0.000 A 
ATOM     10  C   UNL     1      -5.094  -3.233  -0.437  0.00  0.00    +0.000 A 
ATOM     11  C   UNL     1      -4.939  -2.101  -1.232  0.00  0.00    +0.000 A 
ENDROOT
BRANCH   5  12
ATOM     12  C   UNL     1      -0.583  -6.628  -2.596  0.00  0.00    +0.000 A 
ATOM     13  C   UNL     1      -0.150  -7.182  -3.808  0.00  0.00    +0.000 A 
ATOM     14  C   UNL     1      -0.186  -7.247  -1.407  0.00  0.00    +0.000 A 
ATOM     15  C   UNL     1       0.635  -8.332  -3.835  0.00  0.00    +0.000 A 
ATOM     16  C   UNL     1       0.598  -8.400  -1.420  0.00  0.00    +0.000 A 
ATOM     17  C   UNL     1       1.002  -8.933  -2.637  0.00  0.00    +0.000 A 
BRANCH  17  18
ATOM     18  O   UNL     1       1.770 -10.061  -2.629  0.00  0.00    +0.000 OA
ATOM     19  H   UNL     1       1.483 -10.618  -1.884  0.00  0.00    +0.000 HD
ENDBRANCH  17  18
ENDBRANCH   5  12
BRANCH   6  20
ATOM     20  O   UNL     1      -4.433  -5.436   0.208  0.00  0.00    +0.000 OA
ATOM     21  C   UNL     1      -5.323  -6.370  -0.357  0.00  0.00    +0.000 C 
ENDBRANCH   6  20
BRANCH   8  22
ATOM     22  O   UNL     1      -0.109  -4.311  -4.359  0.00  0.00    +0.000 OA
ATOM     23  H   UNL     1      -0.408  -4.869  -5.107  0.00  0.00    +0.000 HD
ENDBRANCH   8  22
BRANCH   9  24
ATOM     24  O   UNL     1      -3.838  -0.928  -2.941  0.00  0.00    +0.000 OA
ATOM     25  H   UNL     1      -4.719  -0.724  -3.330  0.00  0.00    +0.000 HD
ENDBRANCH   9  24
BRANCH  10  26
ATOM     26  O   UNL     1      -6.052  -3.245   0.537  0.00  0.00    +0.000 OA
ATOM     27  H   UNL     1      -5.744  -2.699   1.285  0.00  0.00    +0.000 HD
ENDBRANCH  10  26
TORSDOF 6
ENDMDL
MODEL 3
REMARK VINA RESULT:      -5.5     14.708     16.452
REMARK  Name = 5281698_sexangularetin.pdbqt.pdb
REMARK  6 active torsions:
REMARK  status: ('A' for Active; 'I' for Inactive)
REMARK    1  A    between atoms: C_5  and  C_12
REMARK    2  A    between atoms: C_6  and  O_20
REMARK    3  A    between atoms: C_8  and  O_22
REMARK    4  A    between atoms: C_9  and  O_24
REMARK    5  A    between atoms: C_10  and  O_26
REMARK    6  A    between atoms: C_17  and  O_18
REMARK                            x       y       z     vdW  Elec       q    Type
REMARK                         _______ _______ _______ _____ _____    ______ ____
ROOT
ATOM      1  O   UNL     1      -2.337  -5.326  -1.931  0.00  0.00    +0.000 OA
ATOM      2  O   UNL     1      -0.133  -3.389  -4.725  0.00  0.00    +0.000 OA
ATOM      3  C   UNL     1      -0.380  -5.289  -3.359  0.00  0.00    +0.000 A 
ATOM      4  C   UNL     1      -1.177  -5.898  -2.390  0.00  0.00    +0.000 A 
ATOM      5  C   UNL     1      -2.717  -4.071  -2.394  0.00  0.00    +0.000 A 
ATOM      6  C   UNL     1      -0.804  -7.146  -1.874  0.00  0.00    +0.000 A 
ATOM      7  C   UNL     1      -0.788  -3.979  -3.869  0.00  0.00    +0.000 A 
ATOM      8  C   UNL     1      -2.027  -3.382  -3.322  0.00  0.00    +0.000 A 
ATOM      9  C   UNL     1       0.771  -5.928  -3.832  0.00  0.00    +0.000 A 
ATOM     10  C   UNL     1       0.328  -7.795  -2.381  0.00  0.00    +0.000 A 
ATOM     11  C   UNL     1       1.121  -7.185  -3.349  0.00  0.00    +0.000 A 
ENDROOT
BRANCH   5  12
ATOM     12  C   UNL     1      -3.966  -3.584  -1.773  0.00  0.00    +0.000 A 
ATOM     13  C   UNL     1      -3.903  -2.663  -0.720  0.00  0.00    +0.000 A 
ATOM     14  C   UNL     1      -5.226  -3.961  -2.248  0.00  0.00    +0.000 A 
ATOM     15  C   UNL     1      -5.062  -2.151  -0.141  0.00  0.00    +0.000 A 
ATOM     16  C   UNL     1      -6.393  -3.458  -1.676  0.00  0.00    +0.000 A 
ATOM     17  C   UNL     1      -6.300  -2.555  -0.625  0.00  0.00    +0.000 A 
BRANCH  17  18
ATOM     18  O   UNL     1      -7.454  -2.072  -0.080  0.00  0.00    +0.000 OA
ATOM     19  H   UNL     1      -7.869  -1.476  -0.728  0.00  0.00    +0.000 HD
ENDBRANCH  17  18
ENDBRANCH   5  12
BRANCH   6  20
ATOM     20  O   UNL     1      -1.577  -7.793  -0.941  0.00  0.00    +0.000 OA
ATOM     21  C   UNL     1      -2.553  -8.599  -1.561  0.00  0.00    +0.000 C 
ENDBRANCH   6  20
BRANCH   8  22
ATOM     22  O   UNL     1      -2.405  -2.152  -3.825  0.00  0.00    +0.000 OA
ATOM     23  H   UNL     1      -3.341  -2.033  -3.559  0.00  0.00    +0.000 HD
ENDBRANCH   8  22
BRANCH   9  24
ATOM     24  O   UNL     1       1.593  -5.387  -4.782  0.00  0.00    +0.000 OA
ATOM     25  H   UNL     1       2.436  -5.894  -4.801  0.00  0.00    +0.000 HD
ENDBRANCH   9  24
BRANCH  10  26
ATOM     26  O   UNL     1       0.650  -9.047  -1.939  0.00  0.00    +0.000 OA
ATOM     27  H   UNL     1       0.458  -9.688  -2.649  0.00  0.00    +0.000 HD
ENDBRANCH  10  26
TORSDOF 6
ENDMDL
MODEL 4
REMARK VINA RESULT:      -5.4     10.439     12.096
REMARK  Name = 5281698_sexangularetin.pdbqt.pdb
REMARK  6 active torsions:
REMARK  status: ('A' for Active; 'I' for Inactive)
REMARK    1  A    between atoms: C_5  and  C_12
REMARK    2  A    between atoms: C_6  and  O_20
REMARK    3  A    between atoms: C_8  and  O_22
REMARK    4  A    between atoms: C_9  and  O_24
REMARK    5  A    between atoms: C_10  and  O_26
REMARK    6  A    between atoms: C_17  and  O_18
REMARK                            x       y       z     vdW  Elec       q    Type
REMARK                         _______ _______ _______ _____ _____    ______ ____
ROOT
ATOM      1  O   UNL     1       4.440  -0.540  19.781  0.00  0.00    +0.000 OA
ATOM      2  O   UNL     1       2.394  -3.794  18.501  0.00  0.00    +0.000 OA
ATOM      3  C   UNL     1       3.555  -2.744  20.258  0.00  0.00    +0.000 A 
ATOM      4  C   UNL     1       4.260  -1.601  20.633  0.00  0.00    +0.000 A 
ATOM      5  C   UNL     1       3.962  -0.613  18.478  0.00  0.00    +0.000 A 
ATOM      6  C   UNL     1       4.789  -1.510  21.928  0.00  0.00    +0.000 A 
ATOM      7  C   UNL     1       3.027  -2.817  18.895  0.00  0.00    +0.000 A 
ATOM      8  C   UNL     1       3.273  -1.666  17.998  0.00  0.00    +0.000 A 
ATOM      9  C   UNL     1       3.356  -3.784  21.173  0.00  0.00    +0.000 A 
ATOM     10  C   UNL     1       4.551  -2.537  22.847  0.00  0.00    +0.000 A 
ATOM     11  C   UNL     1       3.847  -3.678  22.470  0.00  0.00    +0.000 A 
ENDROOT
BRANCH   5  12
ATOM     12  C   UNL     1       4.272   0.594  17.684  0.00  0.00    +0.000 A 
ATOM     13  C   UNL     1       3.726   1.828  18.058  0.00  0.00    +0.000 A 
ATOM     14  C   UNL     1       5.154   0.562  16.600  0.00  0.00    +0.000 A 
ATOM     15  C   UNL     1       4.032   2.993  17.358  0.00  0.00    +0.000 A 
ATOM     16  C   UNL     1       5.466   1.720  15.889  0.00  0.00    +0.000 A 
ATOM     17  C   UNL     1       4.901   2.928  16.276  0.00  0.00    +0.000 A 
BRANCH  17  18
ATOM     18  O   UNL     1       5.221   4.051  15.570  0.00  0.00    +0.000 OA
ATOM     19  H   UNL     1       6.190   4.137  15.559  0.00  0.00    +0.000 HD
ENDBRANCH  17  18
ENDBRANCH   5  12
BRANCH   6  20
ATOM     20  O   UNL     1       5.463  -0.388  22.346  0.00  0.00    +0.000 OA
ATOM     21  C   UNL     1       6.845  -0.503  22.099  0.00  0.00    +0.000 C 
ENDBRANCH   6  20
BRANCH   8  22
ATOM     22  O   UNL     1       2.755  -1.745  16.720  0.00  0.00    +0.000 OA
ATOM     23  H   UNL     1       3.349  -1.203  16.159  0.00  0.00    +0.000 HD
ENDBRANCH   8  22
BRANCH   9  24
ATOM     24  O   UNL     1       2.673  -4.929  20.869  0.00  0.00    +0.000 OA
ATOM     25  H   UNL     1       3.279  -5.549  20.403  0.00  0.00    +0.000 HD
ENDBRANCH   9  24
BRANCH  10  26
ATOM     26  O   UNL     1       4.996  -2.416  24.134  0.00  0.00    +0.000 OA
ATOM     27  H   UNL     1       4.389  -2.904  24.721  0.00  0.00    +0.000 HD
ENDBRANCH  10  26
TORSDOF 6
ENDMDL
MODEL 5
REMARK VINA RESULT:      -5.4     14.824     17.916
REMARK  Name = 5281698_sexangularetin.pdbqt.pdb
REMARK  6 active torsions:
REMARK  status: ('A' for Active; 'I' for Inactive)
REMARK    1  A    between atoms: C_5  and  C_12
REMARK    2  A    between atoms: C_6  and  O_20
REMARK    3  A    between atoms: C_8  and  O_22
REMARK    4  A    between atoms: C_9  and  O_24
REMARK    5  A    between atoms: C_10  and  O_26
REMARK    6  A    between atoms: C_17  and  O_18
REMARK                            x       y       z     vdW  Elec       q    Type
REMARK                         _______ _______ _______ _____ _____    ______ ____
ROOT
ATOM      1  O   UNL     1      -4.492  -5.425  -1.767  0.00  0.00    +0.000 OA
ATOM      2  O   UNL     1      -5.015  -1.539  -0.745  0.00  0.00    +0.000 OA
ATOM      3  C   UNL     1      -4.276  -3.085  -2.359  0.00  0.00    +0.000 A 
ATOM      4  C   UNL     1      -4.112  -4.440  -2.644  0.00  0.00    +0.000 A 
ATOM      5  C   UNL     1      -5.006  -5.078  -0.523  0.00  0.00    +0.000 A 
ATOM      6  C   UNL     1      -3.560  -4.824  -3.875  0.00  0.00    +0.000 A 
ATOM      7  C   UNL     1      -4.841  -2.714  -1.060  0.00  0.00    +0.000 A 
ATOM      8  C   UNL     1      -5.205  -3.806  -0.130  0.00  0.00    +0.000 A 
ATOM      9  C   UNL     1      -3.916  -2.115  -3.300  0.00  0.00    +0.000 A 
ATOM     10  C   UNL     1      -3.241  -3.848  -4.825  0.00  0.00    +0.000 A 
ATOM     11  C   UNL     1      -3.406  -2.496  -4.537  0.00  0.00    +0.000 A 
ENDROOT
BRANCH   5  12
ATOM     12  C   UNL     1      -5.329  -6.254   0.312  0.00  0.00    +0.000 A 
ATOM     13  C   UNL     1      -5.631  -7.476  -0.300  0.00  0.00    +0.000 A 
ATOM     14  C   UNL     1      -5.277  -6.208   1.709  0.00  0.00    +0.000 A 
ATOM     15  C   UNL     1      -5.897  -8.615   0.457  0.00  0.00    +0.000 A 
ATOM     16  C   UNL     1      -5.544  -7.339   2.478  0.00  0.00    +0.000 A 
ATOM     17  C   UNL     1      -5.852  -8.536   1.844  0.00  0.00    +0.000 A 
BRANCH  17  18
ATOM     18  O   UNL     1      -6.108  -9.633   2.614  0.00  0.00    +0.000 OA
ATOM     19  H   UNL     1      -5.279 -10.133   2.714  0.00  0.00    +0.000 HD
ENDBRANCH  17  18
ENDBRANCH   5  12
BRANCH   6  20
ATOM     20  O   UNL     1      -3.411  -6.148  -4.207  0.00  0.00    +0.000 OA
ATOM     21  C   UNL     1      -2.145  -6.629  -3.819  0.00  0.00    +0.000 C 
ENDBRANCH   6  20
BRANCH   8  22
ATOM     22  O   UNL     1      -5.750  -3.439   1.085  0.00  0.00    +0.000 OA
ATOM     23  H   UNL     1      -6.255  -4.220   1.397  0.00  0.00    +0.000 HD
ENDBRANCH   8  22
BRANCH   9  24
ATOM     24  O   UNL     1      -4.055  -0.771  -3.082  0.00  0.00    +0.000 OA
ATOM     25  H   UNL     1      -4.118  -0.312  -3.950  0.00  0.00    +0.000 HD
ENDBRANCH   9  24
BRANCH  10  26
ATOM     26  O   UNL     1      -2.779  -4.221  -6.056  0.00  0.00    +0.000 OA
ATOM     27  H   UNL     1      -3.049  -3.548  -6.708  0.00  0.00    +0.000 HD
ENDBRANCH  10  26
TORSDOF 6
ENDMDL
MODEL 6
REMARK VINA RESULT:      -5.3     15.795     18.206
REMARK  Name = 5281698_sexangularetin.pdbqt.pdb
REMARK  6 active torsions:
REMARK  status: ('A' for Active; 'I' for Inactive)
REMARK    1  A    between atoms: C_5  and  C_12
REMARK    2  A    between atoms: C_6  and  O_20
REMARK    3  A    between atoms: C_8  and  O_22
REMARK    4  A    between atoms: C_9  and  O_24
REMARK    5  A    between atoms: C_10  and  O_26
REMARK    6  A    between atoms: C_17  and  O_18
REMARK                            x       y       z     vdW  Elec       q    Type
REMARK                         _______ _______ _______ _____ _____    ______ ____
ROOT
ATOM      1  O   UNL     1      -5.103  -5.171  -2.916  0.00  0.00    +0.000 OA
ATOM      2  O   UNL     1      -5.389  -3.359   0.697  0.00  0.00    +0.000 OA
ATOM      3  C   UNL     1      -5.174  -5.373  -0.503  0.00  0.00    +0.000 A 
ATOM      4  C   UNL     1      -5.091  -5.935  -1.776  0.00  0.00    +0.000 A 
ATOM      5  C   UNL     1      -5.260  -3.792  -2.820  0.00  0.00    +0.000 A 
ATOM      6  C   UNL     1      -4.971  -7.325  -1.911  0.00  0.00    +0.000 A 
ATOM      7  C   UNL     1      -5.314  -3.920  -0.394  0.00  0.00    +0.000 A 
ATOM      8  C   UNL     1      -5.357  -3.136  -1.649  0.00  0.00    +0.000 A 
ATOM      9  C   UNL     1      -5.113  -6.185   0.635  0.00  0.00    +0.000 A 
ATOM     10  C   UNL     1      -4.870  -8.125  -0.767  0.00  0.00    +0.000 A 
ATOM     11  C   UNL     1      -4.953  -7.561   0.503  0.00  0.00    +0.000 A 
ENDROOT
BRANCH   5  12
ATOM     12  C   UNL     1      -5.289  -3.125  -4.138  0.00  0.00    +0.000 A 
ATOM     13  C   UNL     1      -6.404  -3.283  -4.970  0.00  0.00    +0.000 A 
ATOM     14  C   UNL     1      -4.262  -2.277  -4.563  0.00  0.00    +0.000 A 
ATOM     15  C   UNL     1      -6.484  -2.634  -6.200  0.00  0.00    +0.000 A 
ATOM     16  C   UNL     1      -4.328  -1.623  -5.792  0.00  0.00    +0.000 A 
ATOM     17  C   UNL     1      -5.441  -1.808  -6.602  0.00  0.00    +0.000 A 
BRANCH  17  18
ATOM     18  O   UNL     1      -5.488  -1.158  -7.801  0.00  0.00    +0.000 OA
ATOM     19  H   UNL     1      -4.574  -0.995  -8.093  0.00  0.00    +0.000 HD
ENDBRANCH  17  18
ENDBRANCH   5  12
BRANCH   6  20
ATOM     20  O   UNL     1      -4.855  -7.915  -3.146  0.00  0.00    +0.000 OA
ATOM     21  C   UNL     1      -3.509  -7.969  -3.558  0.00  0.00    +0.000 C 
ENDBRANCH   6  20
BRANCH   8  22
ATOM     22  O   UNL     1      -5.475  -1.765  -1.528  0.00  0.00    +0.000 OA
ATOM     23  H   UNL     1      -5.175  -1.552  -0.619  0.00  0.00    +0.000 HD
ENDBRANCH   8  22
BRANCH   9  24
ATOM     24  O   UNL     1      -5.186  -5.696   1.910  0.00  0.00    +0.000 OA
ATOM     25  H   UNL     1      -5.951  -6.112   2.368  0.00  0.00    +0.000 HD
ENDBRANCH   9  24
BRANCH  10  26
ATOM     26  O   UNL     1      -4.672  -9.471  -0.893  0.00  0.00    +0.000 OA
ATOM     27  H   UNL     1      -3.795  -9.621  -1.293  0.00  0.00    +0.000 HD
ENDBRANCH  10  26
TORSDOF 6
ENDMDL
MODEL 7
REMARK VINA RESULT:      -5.3     14.396     17.152
REMARK  Name = 5281698_sexangularetin.pdbqt.pdb
REMARK  6 active torsions:
REMARK  status: ('A' for Active; 'I' for Inactive)
REMARK    1  A    between atoms: C_5  and  C_12
REMARK    2  A    between atoms: C_6  and  O_20
REMARK    3  A    between atoms: C_8  and  O_22
REMARK    4  A    between atoms: C_9  and  O_24
REMARK    5  A    between atoms: C_10  and  O_26
REMARK    6  A    between atoms: C_17  and  O_18
REMARK                            x       y       z     vdW  Elec       q    Type
REMARK                         _______ _______ _______ _____ _____    ______ ____
ROOT
ATOM      1  O   UNL     1      -2.110  -5.459  -2.377  0.00  0.00    +0.000 OA
ATOM      2  O   UNL     1      -5.401  -6.407  -0.211  0.00  0.00    +0.000 OA
ATOM      3  C   UNL     1      -4.174  -4.740  -1.332  0.00  0.00    +0.000 A 
ATOM      4  C   UNL     1      -3.017  -4.478  -2.063  0.00  0.00    +0.000 A 
ATOM      5  C   UNL     1      -2.307  -6.754  -1.909  0.00  0.00    +0.000 A 
ATOM      6  C   UNL     1      -2.767  -3.175  -2.518  0.00  0.00    +0.000 A 
ATOM      7  C   UNL     1      -4.400  -6.106  -0.858  0.00  0.00    +0.000 A 
ATOM      8  C   UNL     1      -3.381  -7.127  -1.189  0.00  0.00    +0.000 A 
ATOM      9  C   UNL     1      -5.094  -3.718  -1.073  0.00  0.00    +0.000 A 
ATOM     10  C   UNL     1      -3.713  -2.169  -2.288  0.00  0.00    +0.000 A 
ATOM     11  C   UNL     1      -4.868  -2.434  -1.558  0.00  0.00    +0.000 A 
ENDROOT
BRANCH   5  12
ATOM     12  C   UNL     1      -1.223  -7.677  -2.303  0.00  0.00    +0.000 A 
ATOM     13  C   UNL     1      -0.104  -7.826  -1.475  0.00  0.00    +0.000 A 
ATOM     14  C   UNL     1      -1.305  -8.469  -3.453  0.00  0.00    +0.000 A 
ATOM     15  C   UNL     1       0.916  -8.720  -1.794  0.00  0.00    +0.000 A 
ATOM     16  C   UNL     1      -0.291  -9.365  -3.786  0.00  0.00    +0.000 A 
ATOM     17  C   UNL     1       0.813  -9.483  -2.951  0.00  0.00    +0.000 A 
BRANCH  17  18
ATOM     18  O   UNL     1       1.794 -10.368  -3.293  0.00  0.00    +0.000 OA
ATOM     19  H   UNL     1       1.642 -11.194  -2.802  0.00  0.00    +0.000 HD
ENDBRANCH  17  18
ENDBRANCH   5  12
BRANCH   6  20
ATOM     20  O   UNL     1      -1.654  -2.881  -3.268  0.00  0.00    +0.000 OA
ATOM     21  C   UNL     1      -1.895  -3.095  -4.639  0.00  0.00    +0.000 C 
ENDBRANCH   6  20
BRANCH   8  22
ATOM     22  O   UNL     1      -3.617  -8.415  -0.747  0.00  0.00    +0.000 OA
ATOM     23  H   UNL     1      -2.867  -8.952  -1.080  0.00  0.00    +0.000 HD
ENDBRANCH   8  22
BRANCH   9  24
ATOM     24  O   UNL     1      -6.248  -3.910  -0.365  0.00  0.00    +0.000 OA
ATOM     25  H   UNL     1      -6.764  -4.635  -0.786  0.00  0.00    +0.000 HD
ENDBRANCH   9  24
BRANCH  10  26
ATOM     26  O   UNL     1      -3.512  -0.917  -2.799  0.00  0.00    +0.000 OA
ATOM     27  H   UNL     1      -3.163  -1.002  -3.705  0.00  0.00    +0.000 HD
ENDBRANCH  10  26
TORSDOF 6
ENDMDL
MODEL 8
REMARK VINA RESULT:      -5.1     13.001     15.523
REMARK  Name = 5281698_sexangularetin.pdbqt.pdb
REMARK  6 active torsions:
REMARK  status: ('A' for Active; 'I' for Inactive)
REMARK    1  A    between atoms: C_5  and  C_12
REMARK    2  A    between atoms: C_6  and  O_20
REMARK    3  A    between atoms: C_8  and  O_22
REMARK    4  A    between atoms: C_9  and  O_24
REMARK    5  A    between atoms: C_10  and  O_26
REMARK    6  A    between atoms: C_17  and  O_18
REMARK                            x       y       z     vdW  Elec       q    Type
REMARK                         _______ _______ _______ _____ _____    ______ ____
ROOT
ATOM      1  O   UNL     1      -3.352 -18.273  18.597  0.00  0.00    +0.000 OA
ATOM      2  O   UNL     1      -0.357 -15.545  18.620  0.00  0.00    +0.000 OA
ATOM      3  C   UNL     1      -1.028 -17.753  18.156  0.00  0.00    +0.000 A 
ATOM      4  C   UNL     1      -2.098 -18.646  18.184  0.00  0.00    +0.000 A 
ATOM      5  C   UNL     1      -3.569 -16.980  19.062  0.00  0.00    +0.000 A 
ATOM      6  C   UNL     1      -1.905 -19.967  17.758  0.00  0.00    +0.000 A 
ATOM      7  C   UNL     1      -1.255 -16.383  18.621  0.00  0.00    +0.000 A 
ATOM      8  C   UNL     1      -2.614 -16.032  19.090  0.00  0.00    +0.000 A 
ATOM      9  C   UNL     1       0.225 -18.163  17.685  0.00  0.00    +0.000 A 
ATOM     10  C   UNL     1      -0.660 -20.357  17.251  0.00  0.00    +0.000 A 
ATOM     11  C   UNL     1       0.406 -19.463  17.225  0.00  0.00    +0.000 A 
ENDROOT
BRANCH   5  12
ATOM     12  C   UNL     1      -4.961 -16.755  19.502  0.00  0.00    +0.000 A 
ATOM     13  C   UNL     1      -5.290 -16.889  20.856  0.00  0.00    +0.000 A 
ATOM     14  C   UNL     1      -5.961 -16.341  18.616  0.00  0.00    +0.000 A 
ATOM     15  C   UNL     1      -6.583 -16.642  21.312  0.00  0.00    +0.000 A 
ATOM     16  C   UNL     1      -7.259 -16.092  19.058  0.00  0.00    +0.000 A 
ATOM     17  C   UNL     1      -7.559 -16.245  20.406  0.00  0.00    +0.000 A 
BRANCH  17  18
ATOM     18  O   UNL     1      -8.835 -15.995  20.820  0.00  0.00    +0.000 OA
ATOM     19  H   UNL     1      -9.368 -15.766  20.038  0.00  0.00    +0.000 HD
ENDBRANCH  17  18
ENDBRANCH   5  12
BRANCH   6  20
ATOM     20  O   UNL     1      -2.941 -20.870  17.740  0.00  0.00    +0.000 OA
ATOM     21  C   UNL     1      -3.030 -21.565  18.962  0.00  0.00    +0.000 C 
ENDBRANCH   6  20
BRANCH   8  22
ATOM     22  O   UNL     1      -2.815 -14.731  19.511  0.00  0.00    +0.000 OA
ATOM     23  H   UNL     1      -3.785 -14.589  19.477  0.00  0.00    +0.000 HD
ENDBRANCH   8  22
BRANCH   9  24
ATOM     24  O   UNL     1       1.313 -17.336  17.630  0.00  0.00    +0.000 OA
ATOM     25  H   UNL     1       1.314 -16.868  16.765  0.00  0.00    +0.000 HD
ENDBRANCH   9  24
BRANCH  10  26
ATOM     26  O   UNL     1      -0.491 -21.621  16.761  0.00  0.00    +0.000 OA
ATOM     27  H   UNL     1       0.451 -21.746  16.538  0.00  0.00    +0.000 HD
ENDBRANCH  10  26
TORSDOF 6
ENDMDL
MODEL 9
REMARK VINA RESULT:      -5.0     15.671     16.527
REMARK  Name = 5281698_sexangularetin.pdbqt.pdb
REMARK  6 active torsions:
REMARK  status: ('A' for Active; 'I' for Inactive)
REMARK    1  A    between atoms: C_5  and  C_12
REMARK    2  A    between atoms: C_6  and  O_20
REMARK    3  A    between atoms: C_8  and  O_22
REMARK    4  A    between atoms: C_9  and  O_24
REMARK    5  A    between atoms: C_10  and  O_26
REMARK    6  A    between atoms: C_17  and  O_18
REMARK                            x       y       z     vdW  Elec       q    Type
REMARK                         _______ _______ _______ _____ _____    ______ ____
ROOT
ATOM      1  O   UNL     1      -3.011  -5.744  -2.248  0.00  0.00    +0.000 OA
ATOM      2  O   UNL     1      -5.304  -4.185   0.706  0.00  0.00    +0.000 OA
ATOM      3  C   UNL     1      -4.616  -6.105  -0.470  0.00  0.00    +0.000 A 
ATOM      4  C   UNL     1      -3.813  -6.575  -1.507  0.00  0.00    +0.000 A 
ATOM      5  C   UNL     1      -3.030  -4.374  -2.008  0.00  0.00    +0.000 A 
ATOM      6  C   UNL     1      -3.799  -7.946  -1.802  0.00  0.00    +0.000 A 
ATOM      7  C   UNL     1      -4.622  -4.667  -0.195  0.00  0.00    +0.000 A 
ATOM      8  C   UNL     1      -3.769  -3.801  -1.039  0.00  0.00    +0.000 A 
ATOM      9  C   UNL     1      -5.386  -6.993   0.289  0.00  0.00    +0.000 A 
ATOM     10  C   UNL     1      -4.540  -8.832  -1.012  0.00  0.00    +0.000 A 
ATOM     11  C   UNL     1      -5.342  -8.358   0.023  0.00  0.00    +0.000 A 
ENDROOT
BRANCH   5  12
ATOM     12  C   UNL     1      -2.139  -3.620  -2.914  0.00  0.00    +0.000 A 
ATOM     13  C   UNL     1      -0.755  -3.820  -2.849  0.00  0.00    +0.000 A 
ATOM     14  C   UNL     1      -2.638  -2.754  -3.892  0.00  0.00    +0.000 A 
ATOM     15  C   UNL     1       0.110  -3.158  -3.718  0.00  0.00    +0.000 A 
ATOM     16  C   UNL     1      -1.783  -2.084  -4.765  0.00  0.00    +0.000 A 
ATOM     17  C   UNL     1      -0.413  -2.293  -4.670  0.00  0.00    +0.000 A 
BRANCH  17  18
ATOM     18  O   UNL     1       0.407  -1.629  -5.536  0.00  0.00    +0.000 OA
ATOM     19  H   UNL     1      -0.147  -1.072  -6.111  0.00  0.00    +0.000 HD
ENDBRANCH  17  18
ENDBRANCH   5  12
BRANCH   6  20
ATOM     20  O   UNL     1      -2.998  -8.454  -2.796  0.00  0.00    +0.000 OA
ATOM     21  C   UNL     1      -1.714  -8.763  -2.304  0.00  0.00    +0.000 C 
ENDBRANCH   6  20
BRANCH   8  22
ATOM     22  O   UNL     1      -3.774  -2.448  -0.757  0.00  0.00    +0.000 OA
ATOM     23  H   UNL     1      -2.843  -2.155  -0.843  0.00  0.00    +0.000 HD
ENDBRANCH   8  22
BRANCH   9  24
ATOM     24  O   UNL     1      -6.191  -6.596   1.320  0.00  0.00    +0.000 OA
ATOM     25  H   UNL     1      -6.706  -7.371   1.640  0.00  0.00    +0.000 HD
ENDBRANCH   9  24
BRANCH  10  26
ATOM     26  O   UNL     1      -4.466 -10.176  -1.245  0.00  0.00    +0.000 OA
ATOM     27  H   UNL     1      -5.144 -10.416  -1.904  0.00  0.00    +0.000 HD
ENDBRANCH  10  26
TORSDOF 6
ENDMDL
