MODEL 1
REMARK VINA RESULT:      -5.8      0.000      0.000
REMARK  Name = 5281239_Fucoxanthin.pdbqt.pdb
REMARK  19 active torsions:
REMARK  status: ('A' for Active; 'I' for Inactive)
REMARK    1  A    between atoms: C_1  and  C_5
REMARK    2  A    between atoms: C_2  and  C_26
REMARK    3  A    between atoms: C_3  and  C_5
REMARK    4  A    between atoms: C_3  and  C_7
REMARK    5  A    between atoms: C_6  and  C_10
REMARK    6  A    between atoms: C_8  and  C_10
REMARK    7  A    between atoms: C_8  and  C_12
REMARK    8  A    between atoms: C_12  and  C_13
REMARK    9  A    between atoms: C_13  and  C_15
REMARK   10  A    between atoms: C_20  and  O_24
REMARK   11  A    between atoms: C_26  and  C_27
REMARK   12  A    between atoms: C_27  and  C_30
REMARK   13  A    between atoms: C_29  and  C_33
REMARK   14  A    between atoms: C_31  and  C_33
REMARK   15  A    between atoms: C_31  and  C_44
REMARK   16  A    between atoms: C_35  and  O_45
REMARK   17  A    between atoms: C_37  and  O_47
REMARK   18  A    between atoms: C_39  and  C_43
REMARK   19  A    between atoms: O_47  and  C_49
REMARK                            x       y       z     vdW  Elec       q    Type
REMARK                         _______ _______ _______ _____ _____    ______ ____
ROOT
ATOM      1  C   UNL     1      12.576  -6.066   7.509  0.00  0.00    +0.000 C 
ATOM      2  C   UNL     1      12.579  -5.228   6.650  0.00  0.00    +0.000 C 
ENDROOT
BRANCH   2   3
ATOM      3  C   UNL     1      12.579  -4.162   5.549  0.00  0.00    +0.000 C 
BRANCH   3   4
ATOM      4  C   UNL     1      12.574  -3.260   4.617  0.00  0.00    +0.000 C 
ATOM      5  C   UNL     1      13.866  -2.660   4.152  0.00  0.00    +0.000 C 
BRANCH   4   7
ATOM      6  C   UNL     1      10.320  -2.565   3.487  0.00  0.00    +0.000 C 
ATOM      7  C   UNL     1      11.355  -2.883   4.006  0.00  0.00    +0.000 C 
BRANCH   6   8
ATOM      8  C   UNL     1       8.996  -2.164   2.825  0.00  0.00    +0.000 C 
BRANCH   8   9
ATOM      9  C   UNL     1       7.872  -1.830   2.272  0.00  0.00    +0.000 C 
ATOM     10  C   UNL     1       7.124  -2.815   1.428  0.00  0.00    +0.000 C 
BRANCH   9  12
ATOM     11  C   UNL     1       7.020   0.641   2.455  0.00  0.00    +0.000 C 
ATOM     12  C   UNL     1       7.408  -0.494   2.372  0.00  0.00    +0.000 C 
BRANCH  11  18
ATOM     13  C   UNL     1       5.210   2.326   2.049  0.00  0.00    +0.000 C 
ATOM     14  C   UNL     1       7.493   2.980   3.111  0.00  0.00    +0.000 C 
ATOM     15  C   UNL     1       4.870   3.670   2.534  0.00  0.00    +0.000 C 
ATOM     16  C   UNL     1       5.465   4.730   3.245  0.00  0.00    +0.000 C 
ATOM     17  C   UNL     1       6.752   4.191   3.444  0.00  0.00    +0.000 C 
ATOM     18  C   UNL     1       6.597   1.887   2.548  0.00  0.00    +0.000 C 
ATOM     19  C   UNL     1       5.215   2.308   0.497  0.00  0.00    +0.000 C 
ATOM     20  C   UNL     1       4.136   1.331   2.587  0.00  0.00    +0.000 C 
ATOM     21  C   UNL     1       8.654   3.279   2.158  0.00  0.00    +0.000 C 
BRANCH  14  22
ATOM     22  O   UNL     1       8.104   2.513   4.293  0.00  0.00    +0.000 OA
ATOM     23  H   UNL     1       7.877   3.223   4.921  0.00  0.00    +0.000 HD
ENDBRANCH  14  22
BRANCH  16  24
ATOM     24  O   UNL     1       5.310   6.029   2.778  0.00  0.00    +0.000 OA
BRANCH  24  26
ATOM     25  O   UNL     1       5.450   7.604   4.512  0.00  0.00    +0.000 OA
ATOM     26  C   UNL     1       4.863   6.830   3.777  0.00  0.00    +0.000 C 
ATOM     27  C   UNL     1       3.399   6.737   4.023  0.00  0.00    +0.000 C 
ENDBRANCH  24  26
ENDBRANCH  16  24
ENDBRANCH  11  18
ENDBRANCH   9  12
ENDBRANCH   8   9
ENDBRANCH   6   8
ENDBRANCH   4   7
ENDBRANCH   3   4
ENDBRANCH   2   3
BRANCH   1  28
ATOM     28  C   UNL     1      12.569  -7.144   8.599  0.00  0.00    +0.000 C 
BRANCH  28  29
ATOM     29  C   UNL     1      12.553  -8.051   9.524  0.00  0.00    +0.000 C 
ATOM     30  C   UNL     1      13.828  -8.452  10.202  0.00  0.00    +0.000 C 
BRANCH  29  32
ATOM     31  C   UNL     1      10.304  -9.222  10.169  0.00  0.00    +0.000 C 
ATOM     32  C   UNL     1      11.336  -8.687   9.866  0.00  0.00    +0.000 C 
BRANCH  31  33
ATOM     33  C   UNL     1       8.990  -9.901  10.571  0.00  0.00    +0.000 C 
BRANCH  33  34
ATOM     34  C   UNL     1       7.879 -10.485  10.912  0.00  0.00    +0.000 C 
ATOM     35  C   UNL     1       7.933 -11.984  11.123  0.00  0.00    +0.000 C 
BRANCH  34  37
ATOM     36  O   UNL     1       5.601 -10.153  11.552  0.00  0.00    +0.000 OA
ATOM     37  C   UNL     1       6.616  -9.695  11.035  0.00  0.00    +0.000 C 
BRANCH  37  38
ATOM     38  C   UNL     1       6.537  -8.339  10.547  0.00  0.00    +0.000 C 
BRANCH  38  40
ATOM     39  O   UNL     1       6.835  -6.965   8.632  0.00  0.00    +0.000 OA
ATOM     40  C   UNL     1       6.437  -6.987  10.031  0.00  0.00    +0.000 C 
ATOM     41  C   UNL     1       5.457  -6.691   8.876  0.00  0.00    +0.000 C 
ATOM     42  C   UNL     1       6.921  -5.783  10.916  0.00  0.00    +0.000 C 
ATOM     43  C   UNL     1       5.128  -5.324   8.633  0.00  0.00    +0.000 C 
ATOM     44  C   UNL     1       6.432  -4.559  10.277  0.00  0.00    +0.000 C 
ATOM     45  C   UNL     1       5.573  -4.138   9.243  0.00  0.00    +0.000 C 
ATOM     46  C   UNL     1       4.516  -7.748   8.292  0.00  0.00    +0.000 C 
ATOM     47  C   UNL     1       6.257  -5.994  12.299  0.00  0.00    +0.000 C 
ATOM     48  C   UNL     1       8.460  -5.891  10.977  0.00  0.00    +0.000 C 
BRANCH  45  49
ATOM     49  O   UNL     1       4.781  -3.039   9.381  0.00  0.00    +0.000 OA
ATOM     50  H   UNL     1       5.238  -2.306   9.830  0.00  0.00    +0.000 HD
ENDBRANCH  45  49
ENDBRANCH  38  40
ENDBRANCH  37  38
ENDBRANCH  34  37
ENDBRANCH  33  34
ENDBRANCH  31  33
ENDBRANCH  29  32
ENDBRANCH  28  29
ENDBRANCH   1  28
TORSDOF 19
ENDMDL
MODEL 2
REMARK VINA RESULT:      -5.6      4.745     16.042
REMARK  Name = 5281239_Fucoxanthin.pdbqt.pdb
REMARK  19 active torsions:
REMARK  status: ('A' for Active; 'I' for Inactive)
REMARK    1  A    between atoms: C_1  and  C_5
REMARK    2  A    between atoms: C_2  and  C_26
REMARK    3  A    between atoms: C_3  and  C_5
REMARK    4  A    between atoms: C_3  and  C_7
REMARK    5  A    between atoms: C_6  and  C_10
REMARK    6  A    between atoms: C_8  and  C_10
REMARK    7  A    between atoms: C_8  and  C_12
REMARK    8  A    between atoms: C_12  and  C_13
REMARK    9  A    between atoms: C_13  and  C_15
REMARK   10  A    between atoms: C_20  and  O_24
REMARK   11  A    between atoms: C_26  and  C_27
REMARK   12  A    between atoms: C_27  and  C_30
REMARK   13  A    between atoms: C_29  and  C_33
REMARK   14  A    between atoms: C_31  and  C_33
REMARK   15  A    between atoms: C_31  and  C_44
REMARK   16  A    between atoms: C_35  and  O_45
REMARK   17  A    between atoms: C_37  and  O_47
REMARK   18  A    between atoms: C_39  and  C_43
REMARK   19  A    between atoms: O_47  and  C_49
REMARK                            x       y       z     vdW  Elec       q    Type
REMARK                         _______ _______ _______ _____ _____    ______ ____
ROOT
ATOM      1  C   UNL     1       4.634   4.159   6.879  0.00  0.00    +0.000 C 
ATOM      2  C   UNL     1       4.783   3.472   7.852  0.00  0.00    +0.000 C 
ENDROOT
BRANCH   2   3
ATOM      3  C   UNL     1       4.968   2.591   9.093  0.00  0.00    +0.000 C 
BRANCH   3   4
ATOM      4  C   UNL     1       5.127   1.845  10.141  0.00  0.00    +0.000 C 
ATOM      5  C   UNL     1       4.410   2.178  11.413  0.00  0.00    +0.000 C 
BRANCH   4   7
ATOM      6  C   UNL     1       6.629  -0.294  10.003  0.00  0.00    +0.000 C 
ATOM      7  C   UNL     1       5.938   0.687  10.065  0.00  0.00    +0.000 C 
BRANCH   6   8
ATOM      8  C   UNL     1       7.512  -1.545   9.929  0.00  0.00    +0.000 C 
BRANCH   8   9
ATOM      9  C   UNL     1       8.265  -2.599   9.872  0.00  0.00    +0.000 C 
ATOM     10  C   UNL     1       9.597  -2.537   9.191  0.00  0.00    +0.000 C 
BRANCH   9  12
ATOM     11  C   UNL     1       7.359  -4.890  10.764  0.00  0.00    +0.000 C 
ATOM     12  C   UNL     1       7.777  -3.839  10.353  0.00  0.00    +0.000 C 
BRANCH  11  18
ATOM     13  C   UNL     1       6.195  -6.165  12.580  0.00  0.00    +0.000 C 
ATOM     14  C   UNL     1       7.101  -7.329  10.437  0.00  0.00    +0.000 C 
ATOM     15  C   UNL     1       5.526  -7.466  12.715  0.00  0.00    +0.000 C 
ATOM     16  C   UNL     1       5.407  -8.682  12.016  0.00  0.00    +0.000 C 
ATOM     17  C   UNL     1       6.251  -8.411  10.920  0.00  0.00    +0.000 C 
ATOM     18  C   UNL     1       6.902  -6.039  11.218  0.00  0.00    +0.000 C 
ATOM     19  C   UNL     1       7.253  -5.993  13.703  0.00  0.00    +0.000 C 
ATOM     20  C   UNL     1       5.112  -5.049  12.697  0.00  0.00    +0.000 C 
ATOM     21  C   UNL     1       8.576  -7.739  10.428  0.00  0.00    +0.000 C 
BRANCH  14  22
ATOM     22  O   UNL     1       6.778  -7.103   9.083  0.00  0.00    +0.000 OA
ATOM     23  H   UNL     1       7.609  -6.718   8.748  0.00  0.00    +0.000 HD
ENDBRANCH  14  22
BRANCH  16  24
ATOM     24  O   UNL     1       5.522  -9.877  12.713  0.00  0.00    +0.000 OA
BRANCH  24  26
ATOM     25  O   UNL     1       3.627 -10.874  11.753  0.00  0.00    +0.000 OA
ATOM     26  C   UNL     1       4.793 -10.843  12.101  0.00  0.00    +0.000 C 
ATOM     27  C   UNL     1       5.554 -12.090  11.815  0.00  0.00    +0.000 C 
ENDBRANCH  24  26
ENDBRANCH  16  24
ENDBRANCH  11  18
ENDBRANCH   9  12
ENDBRANCH   8   9
ENDBRANCH   6   8
ENDBRANCH   4   7
ENDBRANCH   3   4
ENDBRANCH   2   3
BRANCH   1  28
ATOM     28  C   UNL     1       4.435   5.030   5.634  0.00  0.00    +0.000 C 
BRANCH  28  29
ATOM     29  C   UNL     1       4.272   5.774   4.586  0.00  0.00    +0.000 C 
ATOM     30  C   UNL     1       5.163   5.596   3.394  0.00  0.00    +0.000 C 
BRANCH  29  32
ATOM     31  C   UNL     1       2.430   7.633   4.600  0.00  0.00    +0.000 C 
ATOM     32  C   UNL     1       3.277   6.781   4.586  0.00  0.00    +0.000 C 
BRANCH  31  33
ATOM     33  C   UNL     1       1.347   8.717   4.633  0.00  0.00    +0.000 C 
BRANCH  33  34
ATOM     34  C   UNL     1       0.428   9.636   4.652  0.00  0.00    +0.000 C 
ATOM     35  C   UNL     1       0.481  10.678   3.554  0.00  0.00    +0.000 C 
BRANCH  34  37
ATOM     36  O   UNL     1      -1.796   9.571   5.526  0.00  0.00    +0.000 OA
ATOM     37  C   UNL     1      -0.592   9.664   5.746  0.00  0.00    +0.000 C 
BRANCH  37  38
ATOM     38  C   UNL     1      -0.196   9.801   7.127  0.00  0.00    +0.000 C 
BRANCH  38  40
ATOM     39  O   UNL     1       0.859   8.740   8.972  0.00  0.00    +0.000 OA
ATOM     40  C   UNL     1       0.225   9.963   8.506  0.00  0.00    +0.000 C 
ATOM     41  C   UNL     1       1.726   9.865   8.852  0.00  0.00    +0.000 C 
ATOM     42  C   UNL     1      -0.722  10.695   9.523  0.00  0.00    +0.000 C 
ATOM     43  C   UNL     1       2.137  10.368  10.123  0.00  0.00    +0.000 C 
ATOM     44  C   UNL     1       0.072  10.969  10.723  0.00  0.00    +0.000 C 
ATOM     45  C   UNL     1       1.402  10.924  11.184  0.00  0.00    +0.000 C 
ATOM     46  C   UNL     1       2.815   9.682   7.791  0.00  0.00    +0.000 C 
ATOM     47  C   UNL     1      -1.146  12.008   8.822  0.00  0.00    +0.000 C 
ATOM     48  C   UNL     1      -1.912   9.738   9.759  0.00  0.00    +0.000 C 
BRANCH  45  49
ATOM     49  O   UNL     1       1.904  11.891  12.001  0.00  0.00    +0.000 OA
ATOM     50  H   UNL     1       1.295  12.117  12.726  0.00  0.00    +0.000 HD
ENDBRANCH  45  49
ENDBRANCH  38  40
ENDBRANCH  37  38
ENDBRANCH  34  37
ENDBRANCH  33  34
ENDBRANCH  31  33
ENDBRANCH  29  32
ENDBRANCH  28  29
ENDBRANCH   1  28
TORSDOF 19
ENDMDL
MODEL 3
REMARK VINA RESULT:      -5.2      7.359     15.233
REMARK  Name = 5281239_Fucoxanthin.pdbqt.pdb
REMARK  19 active torsions:
REMARK  status: ('A' for Active; 'I' for Inactive)
REMARK    1  A    between atoms: C_1  and  C_5
REMARK    2  A    between atoms: C_2  and  C_26
REMARK    3  A    between atoms: C_3  and  C_5
REMARK    4  A    between atoms: C_3  and  C_7
REMARK    5  A    between atoms: C_6  and  C_10
REMARK    6  A    between atoms: C_8  and  C_10
REMARK    7  A    between atoms: C_8  and  C_12
REMARK    8  A    between atoms: C_12  and  C_13
REMARK    9  A    between atoms: C_13  and  C_15
REMARK   10  A    between atoms: C_20  and  O_24
REMARK   11  A    between atoms: C_26  and  C_27
REMARK   12  A    between atoms: C_27  and  C_30
REMARK   13  A    between atoms: C_29  and  C_33
REMARK   14  A    between atoms: C_31  and  C_33
REMARK   15  A    between atoms: C_31  and  C_44
REMARK   16  A    between atoms: C_35  and  O_45
REMARK   17  A    between atoms: C_37  and  O_47
REMARK   18  A    between atoms: C_39  and  C_43
REMARK   19  A    between atoms: O_47  and  C_49
REMARK                            x       y       z     vdW  Elec       q    Type
REMARK                         _______ _______ _______ _____ _____    ______ ____
ROOT
ATOM      1  C   UNL     1      11.044 -12.952  12.237  0.00  0.00    +0.000 C 
ATOM      2  C   UNL     1      10.538 -14.015  12.004  0.00  0.00    +0.000 C 
ENDROOT
BRANCH   2   3
ATOM      3  C   UNL     1       9.898 -15.375  11.705  0.00  0.00    +0.000 C 
BRANCH   3   4
ATOM      4  C   UNL     1       9.360 -16.526  11.449  0.00  0.00    +0.000 C 
ATOM      5  C   UNL     1       8.716 -17.312  12.550  0.00  0.00    +0.000 C 
BRANCH   4   7
ATOM      6  C   UNL     1       9.320 -17.433   8.995  0.00  0.00    +0.000 C 
ATOM      7  C   UNL     1       9.338 -17.016  10.121  0.00  0.00    +0.000 C 
BRANCH   6   8
ATOM      8  C   UNL     1       9.297 -17.971   7.560  0.00  0.00    +0.000 C 
BRANCH   8   9
ATOM      9  C   UNL     1       9.288 -18.426   6.346  0.00  0.00    +0.000 C 
ATOM     10  C   UNL     1      10.577 -18.715   5.639  0.00  0.00    +0.000 C 
BRANCH   9  12
ATOM     11  C   UNL     1       7.021 -18.642   5.050  0.00  0.00    +0.000 C 
ATOM     12  C   UNL     1       8.061 -18.540   5.646  0.00  0.00    +0.000 C 
BRANCH  11  18
ATOM     13  C   UNL     1       4.838 -19.830   4.734  0.00  0.00    +0.000 C 
ATOM     14  C   UNL     1       5.566 -17.850   3.212  0.00  0.00    +0.000 C 
ATOM     15  C   UNL     1       3.556 -19.556   4.070  0.00  0.00    +0.000 C 
ATOM     16  C   UNL     1       3.009 -18.656   3.136  0.00  0.00    +0.000 C 
ATOM     17  C   UNL     1       4.157 -17.893   2.839  0.00  0.00    +0.000 C 
ATOM     18  C   UNL     1       5.884 -18.754   4.393  0.00  0.00    +0.000 C 
ATOM     19  C   UNL     1       5.384 -21.211   4.282  0.00  0.00    +0.000 C 
ATOM     20  C   UNL     1       4.594 -19.835   6.274  0.00  0.00    +0.000 C 
ATOM     21  C   UNL     1       6.469 -18.173   2.018  0.00  0.00    +0.000 C 
BRANCH  14  22
ATOM     22  O   UNL     1       5.878 -16.517   3.553  0.00  0.00    +0.000 OA
ATOM     23  H   UNL     1       6.531 -16.648   4.265  0.00  0.00    +0.000 HD
ENDBRANCH  14  22
BRANCH  16  24
ATOM     24  O   UNL     1       2.207 -19.146   2.113  0.00  0.00    +0.000 OA
BRANCH  24  26
ATOM     25  O   UNL     1       0.512 -19.702   3.637  0.00  0.00    +0.000 OA
ATOM     26  C   UNL     1       1.181 -19.864   2.633  0.00  0.00    +0.000 C 
ATOM     27  C   UNL     1       0.818 -21.070   1.839  0.00  0.00    +0.000 C 
ENDBRANCH  24  26
ENDBRANCH  16  24
ENDBRANCH  11  18
ENDBRANCH   9  12
ENDBRANCH   8   9
ENDBRANCH   6   8
ENDBRANCH   4   7
ENDBRANCH   3   4
ENDBRANCH   2   3
BRANCH   1  28
ATOM     28  C   UNL     1      11.701 -11.598  12.532  0.00  0.00    +0.000 C 
BRANCH  28  29
ATOM     29  C   UNL     1      12.263 -10.459  12.786  0.00  0.00    +0.000 C 
ATOM     30  C   UNL     1      13.167 -10.318  13.973  0.00  0.00    +0.000 C 
BRANCH  29  32
ATOM     31  C   UNL     1      11.754  -8.400  11.254  0.00  0.00    +0.000 C 
ATOM     32  C   UNL     1      11.991  -9.341  11.962  0.00  0.00    +0.000 C 
BRANCH  31  33
ATOM     33  C   UNL     1      11.444  -7.209  10.339  0.00  0.00    +0.000 C 
BRANCH  33  34
ATOM     34  C   UNL     1      11.183  -6.194   9.571  0.00  0.00    +0.000 C 
ATOM     35  C   UNL     1      12.328  -5.245   9.281  0.00  0.00    +0.000 C 
BRANCH  34  37
ATOM     36  O   UNL     1       9.577  -5.397   7.991  0.00  0.00    +0.000 OA
ATOM     37  C   UNL     1       9.798  -5.974   9.051  0.00  0.00    +0.000 C 
BRANCH  37  38
ATOM     38  C   UNL     1       8.647  -6.443   9.784  0.00  0.00    +0.000 C 
BRANCH  38  40
ATOM     39  O   UNL     1       6.755  -7.881   9.780  0.00  0.00    +0.000 OA
ATOM     40  C   UNL     1       7.497  -6.892  10.546  0.00  0.00    +0.000 C 
ATOM     41  C   UNL     1       7.395  -8.376  10.955  0.00  0.00    +0.000 C 
ATOM     42  C   UNL     1       6.645  -5.844  11.349  0.00  0.00    +0.000 C 
ATOM     43  C   UNL     1       6.459  -8.709  11.979  0.00  0.00    +0.000 C 
ATOM     44  C   UNL     1       5.761  -6.603  12.237  0.00  0.00    +0.000 C 
ATOM     45  C   UNL     1       5.542  -7.918  12.694  0.00  0.00    +0.000 C 
ATOM     46  C   UNL     1       8.497  -9.398  10.661  0.00  0.00    +0.000 C 
ATOM     47  C   UNL     1       7.669  -5.012  12.159  0.00  0.00    +0.000 C 
ATOM     48  C   UNL     1       5.902  -5.000  10.291  0.00  0.00    +0.000 C 
BRANCH  45  49
ATOM     49  O   UNL     1       5.199  -8.173  13.986  0.00  0.00    +0.000 OA
ATOM     50  H   UNL     1       5.701  -8.917  14.364  0.00  0.00    +0.000 HD
ENDBRANCH  45  49
ENDBRANCH  38  40
ENDBRANCH  37  38
ENDBRANCH  34  37
ENDBRANCH  33  34
ENDBRANCH  31  33
ENDBRANCH  29  32
ENDBRANCH  28  29
ENDBRANCH   1  28
TORSDOF 19
ENDMDL
MODEL 4
REMARK VINA RESULT:      -5.2     25.453     29.153
REMARK  Name = 5281239_Fucoxanthin.pdbqt.pdb
REMARK  19 active torsions:
REMARK  status: ('A' for Active; 'I' for Inactive)
REMARK    1  A    between atoms: C_1  and  C_5
REMARK    2  A    between atoms: C_2  and  C_26
REMARK    3  A    between atoms: C_3  and  C_5
REMARK    4  A    between atoms: C_3  and  C_7
REMARK    5  A    between atoms: C_6  and  C_10
REMARK    6  A    between atoms: C_8  and  C_10
REMARK    7  A    between atoms: C_8  and  C_12
REMARK    8  A    between atoms: C_12  and  C_13
REMARK    9  A    between atoms: C_13  and  C_15
REMARK   10  A    between atoms: C_20  and  O_24
REMARK   11  A    between atoms: C_26  and  C_27
REMARK   12  A    between atoms: C_27  and  C_30
REMARK   13  A    between atoms: C_29  and  C_33
REMARK   14  A    between atoms: C_31  and  C_33
REMARK   15  A    between atoms: C_31  and  C_44
REMARK   16  A    between atoms: C_35  and  O_45
REMARK   17  A    between atoms: C_37  and  O_47
REMARK   18  A    between atoms: C_39  and  C_43
REMARK   19  A    between atoms: O_47  and  C_49
REMARK                            x       y       z     vdW  Elec       q    Type
REMARK                         _______ _______ _______ _____ _____    ______ ____
ROOT
ATOM      1  C   UNL     1     -14.078   3.536  25.471  0.00  0.00    +0.000 C 
ATOM      2  C   UNL     1     -13.199   4.062  24.846  0.00  0.00    +0.000 C 
ENDROOT
BRANCH   2   3
ATOM      3  C   UNL     1     -12.081   4.736  24.041  0.00  0.00    +0.000 C 
BRANCH   3   4
ATOM      4  C   UNL     1     -11.137   5.302  23.357  0.00  0.00    +0.000 C 
ATOM      5  C   UNL     1      -9.853   5.683  24.029  0.00  0.00    +0.000 C 
BRANCH   4   7
ATOM      6  C   UNL     1     -11.437   5.692  20.788  0.00  0.00    +0.000 C 
ATOM      7  C   UNL     1     -11.301   5.512  21.967  0.00  0.00    +0.000 C 
BRANCH   6   8
ATOM      8  C   UNL     1     -11.605   5.918  19.281  0.00  0.00    +0.000 C 
BRANCH   8   9
ATOM      9  C   UNL     1     -11.749   6.100  18.005  0.00  0.00    +0.000 C 
ATOM     10  C   UNL     1     -10.721   6.866  17.232  0.00  0.00    +0.000 C 
BRANCH   9  12
ATOM     11  C   UNL     1     -13.947   5.315  16.813  0.00  0.00    +0.000 C 
ATOM     12  C   UNL     1     -12.938   5.673  17.363  0.00  0.00    +0.000 C 
BRANCH  11  18
ATOM     13  C   UNL     1     -15.618   5.651  14.977  0.00  0.00    +0.000 C 
ATOM     14  C   UNL     1     -15.870   3.760  16.746  0.00  0.00    +0.000 C 
ATOM     15  C   UNL     1     -16.670   4.857  14.328  0.00  0.00    +0.000 C 
ATOM     16  C   UNL     1     -17.393   3.668  14.539  0.00  0.00    +0.000 C 
ATOM     17  C   UNL     1     -16.848   3.274  15.779  0.00  0.00    +0.000 C 
ATOM     18  C   UNL     1     -15.053   4.926  16.211  0.00  0.00    +0.000 C 
ATOM     19  C   UNL     1     -16.191   7.022  15.428  0.00  0.00    +0.000 C 
ATOM     20  C   UNL     1     -14.470   5.871  13.945  0.00  0.00    +0.000 C 
ATOM     21  C   UNL     1     -16.535   4.124  18.077  0.00  0.00    +0.000 C 
BRANCH  14  22
ATOM     22  O   UNL     1     -15.004   2.691  17.053  0.00  0.00    +0.000 OA
ATOM     23  H   UNL     1     -14.982   2.733  18.027  0.00  0.00    +0.000 HD
ENDBRANCH  14  22
BRANCH  16  24
ATOM     24  O   UNL     1     -18.768   3.668  14.344  0.00  0.00    +0.000 OA
BRANCH  24  26
ATOM     25  O   UNL     1     -18.904   2.079  12.624  0.00  0.00    +0.000 OA
ATOM     26  C   UNL     1     -19.062   3.183  13.113  0.00  0.00    +0.000 C 
ATOM     27  C   UNL     1     -19.674   4.181  12.195  0.00  0.00    +0.000 C 
ENDBRANCH  24  26
ENDBRANCH  16  24
ENDBRANCH  11  18
ENDBRANCH   9  12
ENDBRANCH   8   9
ENDBRANCH   6   8
ENDBRANCH   4   7
ENDBRANCH   3   4
ENDBRANCH   2   3
BRANCH   1  28
ATOM     28  C   UNL     1     -15.207   2.866  26.263  0.00  0.00    +0.000 C 
BRANCH  28  29
ATOM     29  C   UNL     1     -16.164   2.294  26.922  0.00  0.00    +0.000 C 
ATOM     30  C   UNL     1     -16.270   2.482  28.404  0.00  0.00    +0.000 C 
BRANCH  29  32
ATOM     31  C   UNL     1     -17.860   0.742  25.672  0.00  0.00    +0.000 C 
ATOM     32  C   UNL     1     -17.086   1.461  26.243  0.00  0.00    +0.000 C 
BRANCH  31  33
ATOM     33  C   UNL     1     -18.841  -0.188  24.948  0.00  0.00    +0.000 C 
BRANCH  33  34
ATOM     34  C   UNL     1     -19.676  -0.979  24.342  0.00  0.00    +0.000 C 
ATOM     35  C   UNL     1     -20.130  -2.207  25.105  0.00  0.00    +0.000 C 
BRANCH  34  37
ATOM     36  O   UNL     1     -20.360   0.447  22.551  0.00  0.00    +0.000 OA
ATOM     37  C   UNL     1     -20.113  -0.689  22.941  0.00  0.00    +0.000 C 
BRANCH  37  38
ATOM     38  C   UNL     1     -20.260  -1.751  21.974  0.00  0.00    +0.000 C 
BRANCH  38  40
ATOM     39  O   UNL     1     -21.526  -2.589  20.147  0.00  0.00    +0.000 OA
ATOM     40  C   UNL     1     -20.373  -2.821  21.002  0.00  0.00    +0.000 C 
ATOM     41  C   UNL     1     -20.260  -2.490  19.499  0.00  0.00    +0.000 C 
ATOM     42  C   UNL     1     -20.122  -4.305  21.453  0.00  0.00    +0.000 C 
ATOM     43  C   UNL     1     -20.025  -3.579  18.606  0.00  0.00    +0.000 C 
ATOM     44  C   UNL     1     -20.010  -5.109  20.233  0.00  0.00    +0.000 C 
ATOM     45  C   UNL     1     -19.910  -4.961  18.836  0.00  0.00    +0.000 C 
ATOM     46  C   UNL     1     -19.953  -1.083  18.977  0.00  0.00    +0.000 C 
ATOM     47  C   UNL     1     -18.784  -4.281  22.230  0.00  0.00    +0.000 C 
ATOM     48  C   UNL     1     -21.320  -4.685  22.351  0.00  0.00    +0.000 C 
BRANCH  45  49
ATOM     49  O   UNL     1     -19.103  -5.767  18.092  0.00  0.00    +0.000 OA
ATOM     50  H   UNL     1     -18.225  -5.374  17.940  0.00  0.00    +0.000 HD
ENDBRANCH  45  49
ENDBRANCH  38  40
ENDBRANCH  37  38
ENDBRANCH  34  37
ENDBRANCH  33  34
ENDBRANCH  31  33
ENDBRANCH  29  32
ENDBRANCH  28  29
ENDBRANCH   1  28
TORSDOF 19
ENDMDL
MODEL 5
REMARK VINA RESULT:      -5.0      4.426     16.903
REMARK  Name = 5281239_Fucoxanthin.pdbqt.pdb
REMARK  19 active torsions:
REMARK  status: ('A' for Active; 'I' for Inactive)
REMARK    1  A    between atoms: C_1  and  C_5
REMARK    2  A    between atoms: C_2  and  C_26
REMARK    3  A    between atoms: C_3  and  C_5
REMARK    4  A    between atoms: C_3  and  C_7
REMARK    5  A    between atoms: C_6  and  C_10
REMARK    6  A    between atoms: C_8  and  C_10
REMARK    7  A    between atoms: C_8  and  C_12
REMARK    8  A    between atoms: C_12  and  C_13
REMARK    9  A    between atoms: C_13  and  C_15
REMARK   10  A    between atoms: C_20  and  O_24
REMARK   11  A    between atoms: C_26  and  C_27
REMARK   12  A    between atoms: C_27  and  C_30
REMARK   13  A    between atoms: C_29  and  C_33
REMARK   14  A    between atoms: C_31  and  C_33
REMARK   15  A    between atoms: C_31  and  C_44
REMARK   16  A    between atoms: C_35  and  O_45
REMARK   17  A    between atoms: C_37  and  O_47
REMARK   18  A    between atoms: C_39  and  C_43
REMARK   19  A    between atoms: O_47  and  C_49
REMARK                            x       y       z     vdW  Elec       q    Type
REMARK                         _______ _______ _______ _____ _____    ______ ____
ROOT
ATOM      1  C   UNL     1       4.769   4.108   7.385  0.00  0.00    +0.000 C 
ATOM      2  C   UNL     1       4.985   3.366   8.303  0.00  0.00    +0.000 C 
ENDROOT
BRANCH   2   3
ATOM      3  C   UNL     1       5.255   2.414   9.474  0.00  0.00    +0.000 C 
BRANCH   3   4
ATOM      4  C   UNL     1       5.486   1.607  10.462  0.00  0.00    +0.000 C 
ATOM      5  C   UNL     1       5.056   1.980  11.848  0.00  0.00    +0.000 C 
BRANCH   4   7
ATOM      6  C   UNL     1       6.618  -0.710  10.018  0.00  0.00    +0.000 C 
ATOM      7  C   UNL     1       6.097   0.353  10.220  0.00  0.00    +0.000 C 
BRANCH   6   8
ATOM      8  C   UNL     1       7.284  -2.066   9.763  0.00  0.00    +0.000 C 
BRANCH   8   9
ATOM      9  C   UNL     1       7.857  -3.211   9.554  0.00  0.00    +0.000 C 
ATOM     10  C   UNL     1       8.981  -3.323   8.571  0.00  0.00    +0.000 C 
BRANCH   9  12
ATOM     11  C   UNL     1       6.899  -5.367  10.694  0.00  0.00    +0.000 C 
ATOM     12  C   UNL     1       7.341  -4.379  10.168  0.00  0.00    +0.000 C 
BRANCH  11  18
ATOM     13  C   UNL     1       5.881  -6.441  12.716  0.00  0.00    +0.000 C 
ATOM     14  C   UNL     1       6.419  -7.791  10.558  0.00  0.00    +0.000 C 
ATOM     15  C   UNL     1       5.138  -7.673  13.014  0.00  0.00    +0.000 C 
ATOM     16  C   UNL     1       4.840  -8.912  12.414  0.00  0.00    +0.000 C 
ATOM     17  C   UNL     1       5.558  -8.771  11.208  0.00  0.00    +0.000 C 
ATOM     18  C   UNL     1       6.418  -6.449  11.273  0.00  0.00    +0.000 C 
ATOM     19  C   UNL     1       7.082  -6.297  13.689  0.00  0.00    +0.000 C 
ATOM     20  C   UNL     1       4.909  -5.235  12.891  0.00  0.00    +0.000 C 
ATOM     21  C   UNL     1       7.847  -8.322  10.396  0.00  0.00    +0.000 C 
BRANCH  14  22
ATOM     22  O   UNL     1       5.947  -7.613   9.241  0.00  0.00    +0.000 OA
ATOM     23  H   UNL     1       5.909  -8.534   8.923  0.00  0.00    +0.000 HD
ENDBRANCH  14  22
BRANCH  16  24
ATOM     24  O   UNL     1       4.952 -10.073  13.168  0.00  0.00    +0.000 OA
BRANCH  24  26
ATOM     25  O   UNL     1       2.893 -10.988  12.514  0.00  0.00    +0.000 OA
ATOM     26  C   UNL     1       4.096 -11.014  12.699  0.00  0.00    +0.000 C 
ATOM     27  C   UNL     1       4.743 -12.311  12.362  0.00  0.00    +0.000 C 
ENDBRANCH  24  26
ENDBRANCH  16  24
ENDBRANCH  11  18
ENDBRANCH   9  12
ENDBRANCH   8   9
ENDBRANCH   6   8
ENDBRANCH   4   7
ENDBRANCH   3   4
ENDBRANCH   2   3
BRANCH   1  28
ATOM     28  C   UNL     1       4.484   5.052   6.211  0.00  0.00    +0.000 C 
BRANCH  28  29
ATOM     29  C   UNL     1       4.249   5.856   5.223  0.00  0.00    +0.000 C 
ATOM     30  C   UNL     1       5.057   5.756   3.966  0.00  0.00    +0.000 C 
BRANCH  29  32
ATOM     31  C   UNL     1       2.410   7.701   5.474  0.00  0.00    +0.000 C 
ATOM     32  C   UNL     1       3.254   6.855   5.351  0.00  0.00    +0.000 C 
BRANCH  31  33
ATOM     33  C   UNL     1       1.332   8.778   5.646  0.00  0.00    +0.000 C 
BRANCH  33  34
ATOM     34  C   UNL     1       0.416   9.687   5.800  0.00  0.00    +0.000 C 
ATOM     35  C   UNL     1      -0.832   9.278   6.556  0.00  0.00    +0.000 C 
BRANCH  34  37
ATOM     36  O   UNL     1       0.687  12.059   5.898  0.00  0.00    +0.000 OA
ATOM     37  C   UNL     1       0.594  11.049   5.208  0.00  0.00    +0.000 C 
BRANCH  37  38
ATOM     38  C   UNL     1       0.668  11.233   3.778  0.00  0.00    +0.000 C 
BRANCH  38  40
ATOM     39  O   UNL     1       2.084  11.710   1.931  0.00  0.00    +0.000 OA
ATOM     40  C   UNL     1       0.725  11.389   2.337  0.00  0.00    +0.000 C 
ATOM     41  C   UNL     1       1.610  10.432   1.511  0.00  0.00    +0.000 C 
ATOM     42  C   UNL     1      -0.428  12.155   1.596  0.00  0.00    +0.000 C 
ATOM     43  C   UNL     1       1.378  10.381   0.103  0.00  0.00    +0.000 C 
ATOM     44  C   UNL     1      -0.260  11.897   0.164  0.00  0.00    +0.000 C 
ATOM     45  C   UNL     1       0.486  11.091  -0.718  0.00  0.00    +0.000 C 
ATOM     46  C   UNL     1       2.381   9.264   2.132  0.00  0.00    +0.000 C 
ATOM     47  C   UNL     1      -1.744  11.534   2.124  0.00  0.00    +0.000 C 
ATOM     48  C   UNL     1      -0.274  13.640   1.991  0.00  0.00    +0.000 C 
BRANCH  45  49
ATOM     49  O   UNL     1      -0.076  10.552  -1.836  0.00  0.00    +0.000 OA
ATOM     50  H   UNL     1      -0.615  11.196  -2.328  0.00  0.00    +0.000 HD
ENDBRANCH  45  49
ENDBRANCH  38  40
ENDBRANCH  37  38
ENDBRANCH  34  37
ENDBRANCH  33  34
ENDBRANCH  31  33
ENDBRANCH  29  32
ENDBRANCH  28  29
ENDBRANCH   1  28
TORSDOF 19
ENDMDL
MODEL 6
REMARK VINA RESULT:      -4.8     18.901     25.809
REMARK  Name = 5281239_Fucoxanthin.pdbqt.pdb
REMARK  19 active torsions:
REMARK  status: ('A' for Active; 'I' for Inactive)
REMARK    1  A    between atoms: C_1  and  C_5
REMARK    2  A    between atoms: C_2  and  C_26
REMARK    3  A    between atoms: C_3  and  C_5
REMARK    4  A    between atoms: C_3  and  C_7
REMARK    5  A    between atoms: C_6  and  C_10
REMARK    6  A    between atoms: C_8  and  C_10
REMARK    7  A    between atoms: C_8  and  C_12
REMARK    8  A    between atoms: C_12  and  C_13
REMARK    9  A    between atoms: C_13  and  C_15
REMARK   10  A    between atoms: C_20  and  O_24
REMARK   11  A    between atoms: C_26  and  C_27
REMARK   12  A    between atoms: C_27  and  C_30
REMARK   13  A    between atoms: C_29  and  C_33
REMARK   14  A    between atoms: C_31  and  C_33
REMARK   15  A    between atoms: C_31  and  C_44
REMARK   16  A    between atoms: C_35  and  O_45
REMARK   17  A    between atoms: C_37  and  O_47
REMARK   18  A    between atoms: C_39  and  C_43
REMARK   19  A    between atoms: O_47  and  C_49
REMARK                            x       y       z     vdW  Elec       q    Type
REMARK                         _______ _______ _______ _____ _____    ______ ____
ROOT
ATOM      1  C   UNL     1      -0.363  -9.306  29.841  0.00  0.00    +0.000 C 
ATOM      2  C   UNL     1      -1.286  -8.584  30.098  0.00  0.00    +0.000 C 
ENDROOT
BRANCH   2   3
ATOM      3  C   UNL     1      -2.461  -7.654  30.427  0.00  0.00    +0.000 C 
BRANCH   3   4
ATOM      4  C   UNL     1      -3.456  -6.872  30.706  0.00  0.00    +0.000 C 
ATOM      5  C   UNL     1      -3.476  -6.122  32.002  0.00  0.00    +0.000 C 
BRANCH   4   7
ATOM      6  C   UNL     1      -5.376  -6.534  28.961  0.00  0.00    +0.000 C 
ATOM      7  C   UNL     1      -4.496  -6.690  29.763  0.00  0.00    +0.000 C 
BRANCH   6   8
ATOM      8  C   UNL     1      -6.496  -6.335  27.934  0.00  0.00    +0.000 C 
BRANCH   8   9
ATOM      9  C   UNL     1      -7.438  -6.161  27.059  0.00  0.00    +0.000 C 
ATOM     10  C   UNL     1      -7.346  -5.046  26.065  0.00  0.00    +0.000 C 
BRANCH   9  12
ATOM     11  C   UNL     1      -9.607  -7.627  27.165  0.00  0.00    +0.000 C 
ATOM     12  C   UNL     1      -8.610  -6.956  27.120  0.00  0.00    +0.000 C 
BRANCH  11  18
ATOM     13  C   UNL     1     -11.953  -7.918  27.996  0.00  0.00    +0.000 C 
ATOM     14  C   UNL     1     -10.768  -9.722  26.545  0.00  0.00    +0.000 C 
ATOM     15  C   UNL     1     -13.116  -8.747  27.652  0.00  0.00    +0.000 C 
ATOM     16  C   UNL     1     -13.422  -9.892  26.892  0.00  0.00    +0.000 C 
ATOM     17  C   UNL     1     -12.134 -10.218  26.421  0.00  0.00    +0.000 C 
ATOM     18  C   UNL     1     -10.702  -8.359  27.216  0.00  0.00    +0.000 C 
ATOM     19  C   UNL     1     -11.653  -8.029  29.515  0.00  0.00    +0.000 C 
ATOM     20  C   UNL     1     -12.287  -6.440  27.629  0.00  0.00    +0.000 C 
ATOM     21  C   UNL     1      -9.871 -10.731  27.268  0.00  0.00    +0.000 C 
BRANCH  14  22
ATOM     22  O   UNL     1     -10.229  -9.624  25.245  0.00  0.00    +0.000 OA
ATOM     23  H   UNL     1     -11.003  -9.318  24.738  0.00  0.00    +0.000 HD
ENDBRANCH  14  22
BRANCH  16  24
ATOM     24  O   UNL     1     -14.238 -10.872  27.443  0.00  0.00    +0.000 OA
BRANCH  24  26
ATOM     25  O   UNL     1     -12.876 -11.704  29.162  0.00  0.00    +0.000 OA
ATOM     26  C   UNL     1     -13.486 -11.780  28.111  0.00  0.00    +0.000 C 
ATOM     27  C   UNL     1     -13.379 -13.100  27.432  0.00  0.00    +0.000 C 
ENDBRANCH  24  26
ENDBRANCH  16  24
ENDBRANCH  11  18
ENDBRANCH   9  12
ENDBRANCH   8   9
ENDBRANCH   6   8
ENDBRANCH   4   7
ENDBRANCH   3   4
ENDBRANCH   2   3
BRANCH   1  28
ATOM     28  C   UNL     1       0.823 -10.221  29.513  0.00  0.00    +0.000 C 
BRANCH  28  29
ATOM     29  C   UNL     1       1.821 -11.000  29.244  0.00  0.00    +0.000 C 
ATOM     30  C   UNL     1       2.811 -11.348  30.314  0.00  0.00    +0.000 C 
BRANCH  29  32
ATOM     31  C   UNL     1       2.157 -11.915  26.815  0.00  0.00    +0.000 C 
ATOM     32  C   UNL     1       1.996 -11.492  27.928  0.00  0.00    +0.000 C 
BRANCH  31  33
ATOM     33  C   UNL     1       2.376 -12.461  25.399  0.00  0.00    +0.000 C 
BRANCH  33  34
ATOM     34  C   UNL     1       2.553 -12.922  24.197  0.00  0.00    +0.000 C 
ATOM     35  C   UNL     1       3.962 -12.859  23.642  0.00  0.00    +0.000 C 
BRANCH  34  37
ATOM     36  O   UNL     1       0.670 -14.342  23.813  0.00  0.00    +0.000 OA
ATOM     37  C   UNL     1       1.394 -13.439  23.406  0.00  0.00    +0.000 C 
BRANCH  37  38
ATOM     38  C   UNL     1       1.072 -12.886  22.112  0.00  0.00    +0.000 C 
BRANCH  38  40
ATOM     39  O   UNL     1       0.154 -11.030  20.947  0.00  0.00    +0.000 OA
ATOM     40  C   UNL     1       0.782 -12.333  20.802  0.00  0.00    +0.000 C 
ATOM     41  C   UNL     1       1.460 -11.015  20.373  0.00  0.00    +0.000 C 
ATOM     42  C   UNL     1       0.207 -13.268  19.678  0.00  0.00    +0.000 C 
ATOM     43  C   UNL     1       1.434 -10.689  18.984  0.00  0.00    +0.000 C 
ATOM     44  C   UNL     1       0.298 -12.526  18.418  0.00  0.00    +0.000 C 
ATOM     45  C   UNL     1       0.853 -11.346  17.886  0.00  0.00    +0.000 C 
ATOM     46  C   UNL     1       2.495 -10.290  21.239  0.00  0.00    +0.000 C 
ATOM     47  C   UNL     1       1.129 -14.511  19.662  0.00  0.00    +0.000 C 
ATOM     48  C   UNL     1      -1.238 -13.608  20.107  0.00  0.00    +0.000 C 
BRANCH  45  49
ATOM     49  O   UNL     1       1.395 -11.316  16.637  0.00  0.00    +0.000 OA
ATOM     50  H   UNL     1       1.693 -10.425  16.383  0.00  0.00    +0.000 HD
ENDBRANCH  45  49
ENDBRANCH  38  40
ENDBRANCH  37  38
ENDBRANCH  34  37
ENDBRANCH  33  34
ENDBRANCH  31  33
ENDBRANCH  29  32
ENDBRANCH  28  29
ENDBRANCH   1  28
TORSDOF 19
ENDMDL
MODEL 7
REMARK VINA RESULT:      -4.8     27.186     31.758
REMARK  Name = 5281239_Fucoxanthin.pdbqt.pdb
REMARK  19 active torsions:
REMARK  status: ('A' for Active; 'I' for Inactive)
REMARK    1  A    between atoms: C_1  and  C_5
REMARK    2  A    between atoms: C_2  and  C_26
REMARK    3  A    between atoms: C_3  and  C_5
REMARK    4  A    between atoms: C_3  and  C_7
REMARK    5  A    between atoms: C_6  and  C_10
REMARK    6  A    between atoms: C_8  and  C_10
REMARK    7  A    between atoms: C_8  and  C_12
REMARK    8  A    between atoms: C_12  and  C_13
REMARK    9  A    between atoms: C_13  and  C_15
REMARK   10  A    between atoms: C_20  and  O_24
REMARK   11  A    between atoms: C_26  and  C_27
REMARK   12  A    between atoms: C_27  and  C_30
REMARK   13  A    between atoms: C_29  and  C_33
REMARK   14  A    between atoms: C_31  and  C_33
REMARK   15  A    between atoms: C_31  and  C_44
REMARK   16  A    between atoms: C_35  and  O_45
REMARK   17  A    between atoms: C_37  and  O_47
REMARK   18  A    between atoms: C_39  and  C_43
REMARK   19  A    between atoms: O_47  and  C_49
REMARK                            x       y       z     vdW  Elec       q    Type
REMARK                         _______ _______ _______ _____ _____    ______ ____
ROOT
ATOM      1  C   UNL     1     -20.009 -11.892  24.282  0.00  0.00    +0.000 C 
ATOM      2  C   UNL     1     -21.026 -11.335  23.971  0.00  0.00    +0.000 C 
ENDROOT
BRANCH   2   3
ATOM      3  C   UNL     1     -22.321 -10.618  23.573  0.00  0.00    +0.000 C 
BRANCH   3   4
ATOM      4  C   UNL     1     -23.417 -10.011  23.240  0.00  0.00    +0.000 C 
ATOM      5  C   UNL     1     -24.613 -10.806  22.815  0.00  0.00    +0.000 C 
BRANCH   4   7
ATOM      6  C   UNL     1     -23.561  -7.404  23.405  0.00  0.00    +0.000 C 
ATOM      7  C   UNL     1     -23.496  -8.601  23.328  0.00  0.00    +0.000 C 
BRANCH   6   8
ATOM      8  C   UNL     1     -23.639  -5.876  23.500  0.00  0.00    +0.000 C 
BRANCH   8   9
ATOM      9  C   UNL     1     -23.715  -4.584  23.584  0.00  0.00    +0.000 C 
ATOM     10  C   UNL     1     -25.008  -3.928  23.959  0.00  0.00    +0.000 C 
BRANCH   9  12
ATOM     11  C   UNL     1     -21.659  -3.116  22.889  0.00  0.00    +0.000 C 
ATOM     12  C   UNL     1     -22.605  -3.788  23.209  0.00  0.00    +0.000 C 
BRANCH  11  18
ATOM     13  C   UNL     1     -19.745  -2.718  21.321  0.00  0.00    +0.000 C 
ATOM     14  C   UNL     1     -20.193  -1.183  23.373  0.00  0.00    +0.000 C 
ATOM     15  C   UNL     1     -18.855  -1.600  20.980  0.00  0.00    +0.000 C 
ATOM     16  C   UNL     1     -18.484  -0.339  21.485  0.00  0.00    +0.000 C 
ATOM     17  C   UNL     1     -19.258  -0.318  22.664  0.00  0.00    +0.000 C 
ATOM     18  C   UNL     1     -20.620  -2.383  22.542  0.00  0.00    +0.000 C 
ATOM     19  C   UNL     1     -18.907  -3.983  21.647  0.00  0.00    +0.000 C 
ATOM     20  C   UNL     1     -20.667  -2.995  20.094  0.00  0.00    +0.000 C 
ATOM     21  C   UNL     1     -19.625  -1.629  24.724  0.00  0.00    +0.000 C 
BRANCH  14  22
ATOM     22  O   UNL     1     -21.330  -0.414  23.693  0.00  0.00    +0.000 OA
ATOM     23  H   UNL     1     -21.188  -0.245  24.643  0.00  0.00    +0.000 HD
ENDBRANCH  14  22
BRANCH  16  24
ATOM     24  O   UNL     1     -17.140   0.007  21.520  0.00  0.00    +0.000 OA
BRANCH  24  26
ATOM     25  O   UNL     1     -17.539   2.268  21.034  0.00  0.00    +0.000 OA
ATOM     26  C   UNL     1     -17.011   1.352  21.638  0.00  0.00    +0.000 C 
ATOM     27  C   UNL     1     -16.042   1.781  22.683  0.00  0.00    +0.000 C 
ENDBRANCH  24  26
ENDBRANCH  16  24
ENDBRANCH  11  18
ENDBRANCH   9  12
ENDBRANCH   8   9
ENDBRANCH   6   8
ENDBRANCH   4   7
ENDBRANCH   3   4
ENDBRANCH   2   3
BRANCH   1  28
ATOM     28  C   UNL     1     -18.705 -12.593  24.679  0.00  0.00    +0.000 C 
BRANCH  28  29
ATOM     29  C   UNL     1     -17.606 -13.195  25.008  0.00  0.00    +0.000 C 
ATOM     30  C   UNL     1     -17.573 -14.690  25.112  0.00  0.00    +0.000 C 
BRANCH  29  32
ATOM     31  C   UNL     1     -15.461 -11.804  25.561  0.00  0.00    +0.000 C 
ATOM     32  C   UNL     1     -16.450 -12.436  25.307  0.00  0.00    +0.000 C 
BRANCH  31  33
ATOM     33  C   UNL     1     -14.190 -11.010  25.888  0.00  0.00    +0.000 C 
BRANCH  33  34
ATOM     34  C   UNL     1     -13.107 -10.345  26.163  0.00  0.00    +0.000 C 
ATOM     35  C   UNL     1     -12.877  -9.064  25.389  0.00  0.00    +0.000 C 
BRANCH  34  37
ATOM     36  O   UNL     1     -12.217 -12.000  27.640  0.00  0.00    +0.000 OA
ATOM     37  C   UNL     1     -12.132 -10.871  27.168  0.00  0.00    +0.000 C 
BRANCH  37  38
ATOM     38  C   UNL     1     -11.031 -10.059  27.629  0.00  0.00    +0.000 C 
BRANCH  38  40
ATOM     39  O   UNL     1     -10.011  -9.108  29.552  0.00  0.00    +0.000 OA
ATOM     40  C   UNL     1      -9.947  -9.220  28.104  0.00  0.00    +0.000 C 
ATOM     41  C   UNL     1      -8.885  -9.823  29.047  0.00  0.00    +0.000 C 
ATOM     42  C   UNL     1      -9.578  -7.912  27.315  0.00  0.00    +0.000 C 
ATOM     43  C   UNL     1      -7.668  -9.095  29.210  0.00  0.00    +0.000 C 
ATOM     44  C   UNL     1      -8.291  -7.447  27.838  0.00  0.00    +0.000 C 
ATOM     45  C   UNL     1      -7.245  -7.862  28.684  0.00  0.00    +0.000 C 
ATOM     46  C   UNL     1      -8.872 -11.299  29.452  0.00  0.00    +0.000 C 
ATOM     47  C   UNL     1      -9.456  -8.344  25.833  0.00  0.00    +0.000 C 
ATOM     48  C   UNL     1     -10.747  -6.930  27.550  0.00  0.00    +0.000 C 
BRANCH  45  49
ATOM     49  O   UNL     1      -5.943  -7.594  28.388  0.00  0.00    +0.000 OA
ATOM     50  H   UNL     1      -5.767  -6.640  28.316  0.00  0.00    +0.000 HD
ENDBRANCH  45  49
ENDBRANCH  38  40
ENDBRANCH  37  38
ENDBRANCH  34  37
ENDBRANCH  33  34
ENDBRANCH  31  33
ENDBRANCH  29  32
ENDBRANCH  28  29
ENDBRANCH   1  28
TORSDOF 19
ENDMDL
MODEL 8
REMARK VINA RESULT:      -4.8     24.607     30.497
REMARK  Name = 5281239_Fucoxanthin.pdbqt.pdb
REMARK  19 active torsions:
REMARK  status: ('A' for Active; 'I' for Inactive)
REMARK    1  A    between atoms: C_1  and  C_5
REMARK    2  A    between atoms: C_2  and  C_26
REMARK    3  A    between atoms: C_3  and  C_5
REMARK    4  A    between atoms: C_3  and  C_7
REMARK    5  A    between atoms: C_6  and  C_10
REMARK    6  A    between atoms: C_8  and  C_10
REMARK    7  A    between atoms: C_8  and  C_12
REMARK    8  A    between atoms: C_12  and  C_13
REMARK    9  A    between atoms: C_13  and  C_15
REMARK   10  A    between atoms: C_20  and  O_24
REMARK   11  A    between atoms: C_26  and  C_27
REMARK   12  A    between atoms: C_27  and  C_30
REMARK   13  A    between atoms: C_29  and  C_33
REMARK   14  A    between atoms: C_31  and  C_33
REMARK   15  A    between atoms: C_31  and  C_44
REMARK   16  A    between atoms: C_35  and  O_45
REMARK   17  A    between atoms: C_37  and  O_47
REMARK   18  A    between atoms: C_39  and  C_43
REMARK   19  A    between atoms: O_47  and  C_49
REMARK                            x       y       z     vdW  Elec       q    Type
REMARK                         _______ _______ _______ _____ _____    ______ ____
ROOT
ATOM      1  C   UNL     1     -15.741   2.344  22.746  0.00  0.00    +0.000 C 
ATOM      2  C   UNL     1     -14.786   2.870  23.247  0.00  0.00    +0.000 C 
ENDROOT
BRANCH   2   3
ATOM      3  C   UNL     1     -13.570   3.546  23.892  0.00  0.00    +0.000 C 
BRANCH   3   4
ATOM      4  C   UNL     1     -12.541   4.118  24.433  0.00  0.00    +0.000 C 
ATOM      5  C   UNL     1     -12.344   5.596  24.289  0.00  0.00    +0.000 C 
BRANCH   4   7
ATOM      6  C   UNL     1     -10.860   2.706  25.857  0.00  0.00    +0.000 C 
ATOM      7  C   UNL     1     -11.632   3.352  25.202  0.00  0.00    +0.000 C 
BRANCH   6   8
ATOM      8  C   UNL     1      -9.876   1.882  26.696  0.00  0.00    +0.000 C 
BRANCH   8   9
ATOM      9  C   UNL     1      -9.037   1.194  27.405  0.00  0.00    +0.000 C 
ATOM     10  C   UNL     1      -7.862   1.866  28.045  0.00  0.00    +0.000 C 
BRANCH   9  12
ATOM     11  C   UNL     1      -9.279  -1.411  27.546  0.00  0.00    +0.000 C 
ATOM     12  C   UNL     1      -9.167  -0.215  27.478  0.00  0.00    +0.000 C 
BRANCH  11  18
ATOM     13  C   UNL     1     -10.283  -3.407  28.681  0.00  0.00    +0.000 C 
ATOM     14  C   UNL     1      -8.615  -3.638  26.698  0.00  0.00    +0.000 C 
ATOM     15  C   UNL     1     -10.480  -4.829  28.369  0.00  0.00    +0.000 C 
ATOM     16  C   UNL     1     -10.030  -5.792  27.444  0.00  0.00    +0.000 C 
ATOM     17  C   UNL     1      -9.124  -5.005  26.704  0.00  0.00    +0.000 C 
ATOM     18  C   UNL     1      -9.399  -2.722  27.624  0.00  0.00    +0.000 C 
ATOM     19  C   UNL     1      -9.602  -3.257  30.067  0.00  0.00    +0.000 C 
ATOM     20  C   UNL     1     -11.682  -2.718  28.700  0.00  0.00    +0.000 C 
ATOM     21  C   UNL     1      -7.120  -3.597  27.026  0.00  0.00    +0.000 C 
BRANCH  14  22
ATOM     22  O   UNL     1      -8.710  -3.152  25.377  0.00  0.00    +0.000 OA
ATOM     23  H   UNL     1      -8.727  -2.189  25.527  0.00  0.00    +0.000 HD
ENDBRANCH  14  22
BRANCH  16  24
ATOM     24  O   UNL     1      -9.658  -7.049  27.903  0.00  0.00    +0.000 OA
BRANCH  24  26
ATOM     25  O   UNL     1      -9.864  -8.401  25.997  0.00  0.00    +0.000 OA
ATOM     26  C   UNL     1     -10.186  -8.008  27.103  0.00  0.00    +0.000 C 
ATOM     27  C   UNL     1     -11.376  -8.693  27.677  0.00  0.00    +0.000 C 
ENDBRANCH  24  26
ENDBRANCH  16  24
ENDBRANCH  11  18
ENDBRANCH   9  12
ENDBRANCH   8   9
ENDBRANCH   6   8
ENDBRANCH   4   7
ENDBRANCH   3   4
ENDBRANCH   2   3
BRANCH   1  28
ATOM     28  C   UNL     1     -16.967   1.679  22.110  0.00  0.00    +0.000 C 
BRANCH  28  29
ATOM     29  C   UNL     1     -18.003   1.124  21.564  0.00  0.00    +0.000 C 
ATOM     30  C   UNL     1     -18.472  -0.217  22.039  0.00  0.00    +0.000 C 
BRANCH  29  32
ATOM     31  C   UNL     1     -19.236   2.327  19.595  0.00  0.00    +0.000 C 
ATOM     32  C   UNL     1     -18.665   1.771  20.494  0.00  0.00    +0.000 C 
BRANCH  31  33
ATOM     33  C   UNL     1     -19.976   3.042  18.458  0.00  0.00    +0.000 C 
BRANCH  33  34
ATOM     34  C   UNL     1     -20.595   3.654  17.492  0.00  0.00    +0.000 C 
ATOM     35  C   UNL     1     -21.708   2.891  16.804  0.00  0.00    +0.000 C 
BRANCH  34  37
ATOM     36  O   UNL     1     -20.909   6.003  17.188  0.00  0.00    +0.000 OA
ATOM     37  C   UNL     1     -20.175   5.026  17.073  0.00  0.00    +0.000 C 
BRANCH  37  38
ATOM     38  C   UNL     1     -18.866   5.263  16.511  0.00  0.00    +0.000 C 
BRANCH  38  40
ATOM     39  O   UNL     1     -16.685   6.081  16.976  0.00  0.00    +0.000 OA
ATOM     40  C   UNL     1     -17.539   5.476  15.966  0.00  0.00    +0.000 C 
ATOM     41  C   UNL     1     -16.337   4.749  16.605  0.00  0.00    +0.000 C 
ATOM     42  C   UNL     1     -17.382   6.017  14.500  0.00  0.00    +0.000 C 
ATOM     43  C   UNL     1     -15.127   4.700  15.849  0.00  0.00    +0.000 C 
ATOM     44  C   UNL     1     -15.974   5.848  14.131  0.00  0.00    +0.000 C 
ATOM     45  C   UNL     1     -14.791   5.241  14.596  0.00  0.00    +0.000 C 
ATOM     46  C   UNL     1     -16.485   3.741  17.749  0.00  0.00    +0.000 C 
ATOM     47  C   UNL     1     -18.298   5.123  13.630  0.00  0.00    +0.000 C 
ATOM     48  C   UNL     1     -17.852   7.488  14.537  0.00  0.00    +0.000 C 
BRANCH  45  49
ATOM     49  O   UNL     1     -13.919   4.638  13.742  0.00  0.00    +0.000 OA
ATOM     50  H   UNL     1     -13.131   5.184  13.569  0.00  0.00    +0.000 HD
ENDBRANCH  45  49
ENDBRANCH  38  40
ENDBRANCH  37  38
ENDBRANCH  34  37
ENDBRANCH  33  34
ENDBRANCH  31  33
ENDBRANCH  29  32
ENDBRANCH  28  29
ENDBRANCH   1  28
TORSDOF 19
ENDMDL
MODEL 9
REMARK VINA RESULT:      -4.8      5.181     15.965
REMARK  Name = 5281239_Fucoxanthin.pdbqt.pdb
REMARK  19 active torsions:
REMARK  status: ('A' for Active; 'I' for Inactive)
REMARK    1  A    between atoms: C_1  and  C_5
REMARK    2  A    between atoms: C_2  and  C_26
REMARK    3  A    between atoms: C_3  and  C_5
REMARK    4  A    between atoms: C_3  and  C_7
REMARK    5  A    between atoms: C_6  and  C_10
REMARK    6  A    between atoms: C_8  and  C_10
REMARK    7  A    between atoms: C_8  and  C_12
REMARK    8  A    between atoms: C_12  and  C_13
REMARK    9  A    between atoms: C_13  and  C_15
REMARK   10  A    between atoms: C_20  and  O_24
REMARK   11  A    between atoms: C_26  and  C_27
REMARK   12  A    between atoms: C_27  and  C_30
REMARK   13  A    between atoms: C_29  and  C_33
REMARK   14  A    between atoms: C_31  and  C_33
REMARK   15  A    between atoms: C_31  and  C_44
REMARK   16  A    between atoms: C_35  and  O_45
REMARK   17  A    between atoms: C_37  and  O_47
REMARK   18  A    between atoms: C_39  and  C_43
REMARK   19  A    between atoms: O_47  and  C_49
REMARK                            x       y       z     vdW  Elec       q    Type
REMARK                         _______ _______ _______ _____ _____    ______ ____
ROOT
ATOM      1  C   UNL     1       4.900   4.276   7.505  0.00  0.00    +0.000 C 
ATOM      2  C   UNL     1       5.295   3.467   8.298  0.00  0.00    +0.000 C 
ENDROOT
BRANCH   2   3
ATOM      3  C   UNL     1       5.794   2.428   9.309  0.00  0.00    +0.000 C 
BRANCH   3   4
ATOM      4  C   UNL     1       6.218   1.548  10.161  0.00  0.00    +0.000 C 
ATOM      5  C   UNL     1       6.006   1.765  11.628  0.00  0.00    +0.000 C 
BRANCH   4   7
ATOM      6  C   UNL     1       7.361  -0.647   9.311  0.00  0.00    +0.000 C 
ATOM      7  C   UNL     1       6.835   0.360   9.701  0.00  0.00    +0.000 C 
BRANCH   6   8
ATOM      8  C   UNL     1       8.035  -1.933   8.819  0.00  0.00    +0.000 C 
BRANCH   8   9
ATOM      9  C   UNL     1       8.614  -3.017   8.407  0.00  0.00    +0.000 C 
ATOM     10  C   UNL     1       9.541  -2.977   7.231  0.00  0.00    +0.000 C 
BRANCH   9  12
ATOM     11  C   UNL     1       7.992  -5.316   9.500  0.00  0.00    +0.000 C 
ATOM     12  C   UNL     1       8.280  -4.262   8.996  0.00  0.00    +0.000 C 
BRANCH  11  18
ATOM     13  C   UNL     1       6.222  -6.878  10.340  0.00  0.00    +0.000 C 
ATOM     14  C   UNL     1       8.756  -7.443  10.505  0.00  0.00    +0.000 C 
ATOM     15  C   UNL     1       6.126  -8.305  10.678  0.00  0.00    +0.000 C 
ATOM     16  C   UNL     1       6.973  -9.405  10.916  0.00  0.00    +0.000 C 
ATOM     17  C   UNL     1       8.227  -8.774  10.777  0.00  0.00    +0.000 C 
ATOM     18  C   UNL     1       7.678  -6.469  10.057  0.00  0.00    +0.000 C 
ATOM     19  C   UNL     1       5.687  -6.018  11.516  0.00  0.00    +0.000 C 
ATOM     20  C   UNL     1       5.364  -6.624   9.063  0.00  0.00    +0.000 C 
ATOM     21  C   UNL     1       9.524  -6.891  11.710  0.00  0.00    +0.000 C 
BRANCH  14  22
ATOM     22  O   UNL     1       9.722  -7.567   9.485  0.00  0.00    +0.000 OA
ATOM     23  H   UNL     1      10.295  -8.268   9.845  0.00  0.00    +0.000 HD
ENDBRANCH  14  22
BRANCH  16  24
ATOM     24  O   UNL     1       6.718 -10.233  12.001  0.00  0.00    +0.000 OA
BRANCH  24  26
ATOM     25  O   UNL     1       6.832 -12.231  10.778  0.00  0.00    +0.000 OA
ATOM     26  C   UNL     1       7.099 -11.502  11.715  0.00  0.00    +0.000 C 
ATOM     27  C   UNL     1       7.992 -12.114  12.736  0.00  0.00    +0.000 C 
ENDBRANCH  24  26
ENDBRANCH  16  24
ENDBRANCH  11  18
ENDBRANCH   9  12
ENDBRANCH   8   9
ENDBRANCH   6   8
ENDBRANCH   4   7
ENDBRANCH   3   4
ENDBRANCH   2   3
BRANCH   1  28
ATOM     28  C   UNL     1       4.386   5.305   6.491  0.00  0.00    +0.000 C 
BRANCH  28  29
ATOM     29  C   UNL     1       3.958   6.183   5.640  0.00  0.00    +0.000 C 
ATOM     30  C   UNL     1       4.687   6.391   4.348  0.00  0.00    +0.000 C 
BRANCH  29  32
ATOM     31  C   UNL     1       1.861   7.632   6.229  0.00  0.00    +0.000 C 
ATOM     32  C   UNL     1       2.823   6.969   5.951  0.00  0.00    +0.000 C 
BRANCH  31  33
ATOM     33  C   UNL     1       0.633   8.473   6.599  0.00  0.00    +0.000 C 
BRANCH  33  34
ATOM     34  C   UNL     1      -0.410   9.180   6.919  0.00  0.00    +0.000 C 
ATOM     35  C   UNL     1      -1.263   9.694   5.778  0.00  0.00    +0.000 C 
BRANCH  34  37
ATOM     36  O   UNL     1      -1.778   9.226   8.878  0.00  0.00    +0.000 OA
ATOM     37  C   UNL     1      -0.702   9.492   8.352  0.00  0.00    +0.000 C 
BRANCH  37  38
ATOM     38  C   UNL     1       0.288  10.127   9.190  0.00  0.00    +0.000 C 
BRANCH  38  40
ATOM     39  O   UNL     1       1.796   9.847  11.004  0.00  0.00    +0.000 OA
ATOM     40  C   UNL     1       1.298  10.777  10.003  0.00  0.00    +0.000 C 
ATOM     41  C   UNL     1       2.739  10.223  10.001  0.00  0.00    +0.000 C 
ATOM     42  C   UNL     1       1.077  12.260  10.472  0.00  0.00    +0.000 C 
ATOM     43  C   UNL     1       3.764  11.071  10.517  0.00  0.00    +0.000 C 
ATOM     44  C   UNL     1       2.357  12.735  11.003  0.00  0.00    +0.000 C 
ATOM     45  C   UNL     1       3.710  12.355  11.087  0.00  0.00    +0.000 C 
ATOM     46  C   UNL     1       3.181   9.055   9.115  0.00  0.00    +0.000 C 
ATOM     47  C   UNL     1       0.676  13.041   9.197  0.00  0.00    +0.000 C 
ATOM     48  C   UNL     1      -0.060  12.210  11.517  0.00  0.00    +0.000 C 
BRANCH  45  49
ATOM     49  O   UNL     1       4.714  13.265  10.951  0.00  0.00    +0.000 OA
ATOM     50  H   UNL     1       4.380  14.168  10.805  0.00  0.00    +0.000 HD
ENDBRANCH  45  49
ENDBRANCH  38  40
ENDBRANCH  37  38
ENDBRANCH  34  37
ENDBRANCH  33  34
ENDBRANCH  31  33
ENDBRANCH  29  32
ENDBRANCH  28  29
ENDBRANCH   1  28
TORSDOF 19
ENDMDL
