MODEL 1
REMARK VINA RESULT:      -6.3      0.000      0.000
REMARK  Name = 5281224_Astaxanthin.pdbqt.pdb
REMARK  16 active torsions:
REMARK  status: ('A' for Active; 'I' for Inactive)
REMARK    1  A    between atoms: C_1  and  C_5
REMARK    2  A    between atoms: C_2  and  C_27
REMARK    3  A    between atoms: C_3  and  C_5
REMARK    4  A    between atoms: C_3  and  C_7
REMARK    5  A    between atoms: C_6  and  C_10
REMARK    6  A    between atoms: C_8  and  C_10
REMARK    7  A    between atoms: C_8  and  C_12
REMARK    8  A    between atoms: C_11  and  C_16
REMARK    9  A    between atoms: C_17  and  O_23
REMARK   10  A    between atoms: C_25  and  C_27
REMARK   11  A    between atoms: C_25  and  C_29
REMARK   12  A    between atoms: C_28  and  C_32
REMARK   13  A    between atoms: C_30  and  C_32
REMARK   14  A    between atoms: C_30  and  C_34
REMARK   15  A    between atoms: C_33  and  C_38
REMARK   16  A    between atoms: C_39  and  O_45
REMARK                            x       y       z     vdW  Elec       q    Type
REMARK                         _______ _______ _______ _____ _____    ______ ____
ROOT
ATOM      1  C   UNL     1     -12.565 -17.320  13.170  0.00  0.00    +0.000 C 
ATOM      2  C   UNL     1     -12.317 -16.881  12.082  0.00  0.00    +0.000 C 
ENDROOT
BRANCH   2   3
ATOM      3  C   UNL     1     -12.005 -16.313  10.691  0.00  0.00    +0.000 C 
BRANCH   3   4
ATOM      4  C   UNL     1     -11.744 -15.838   9.514  0.00  0.00    +0.000 C 
ATOM      5  C   UNL     1     -10.325 -15.757   9.039  0.00  0.00    +0.000 C 
BRANCH   4   7
ATOM      6  C   UNL     1     -13.677 -14.885   8.031  0.00  0.00    +0.000 C 
ATOM      7  C   UNL     1     -12.790 -15.324   8.711  0.00  0.00    +0.000 C 
BRANCH   6   8
ATOM      8  C   UNL     1     -14.809 -14.321   7.166  0.00  0.00    +0.000 C 
BRANCH   8   9
ATOM      9  C   UNL     1     -15.766 -13.850   6.427  0.00  0.00    +0.000 C 
ATOM     10  C   UNL     1     -17.068 -14.587   6.331  0.00  0.00    +0.000 C 
BRANCH   9  12
ATOM     11  C   UNL     1     -15.504 -11.476   5.352  0.00  0.00    +0.000 C 
ATOM     12  C   UNL     1     -15.634 -12.568   5.838  0.00  0.00    +0.000 C 
BRANCH  11  16
ATOM     13  O   UNL     1     -14.121  -6.791   5.751  0.00  0.00    +0.000 OA
ATOM     14  C   UNL     1     -15.755  -9.955   3.299  0.00  0.00    +0.000 C 
ATOM     15  C   UNL     1     -15.476  -8.560   3.007  0.00  0.00    +0.000 C 
ATOM     16  C   UNL     1     -15.336 -10.155   4.779  0.00  0.00    +0.000 C 
ATOM     17  C   UNL     1     -14.969  -7.447   3.670  0.00  0.00    +0.000 C 
ATOM     18  C   UNL     1     -14.890 -10.871   2.402  0.00  0.00    +0.000 C 
ATOM     19  C   UNL     1     -17.266 -10.240   3.149  0.00  0.00    +0.000 C 
ATOM     20  C   UNL     1     -14.820  -9.147   5.543  0.00  0.00    +0.000 C 
ATOM     21  C   UNL     1     -14.584  -7.701   5.076  0.00  0.00    +0.000 C 
ATOM     22  C   UNL     1     -14.422  -9.452   6.993  0.00  0.00    +0.000 C 
BRANCH  17  23
ATOM     23  O   UNL     1     -14.830  -6.221   3.075  0.00  0.00    +0.000 OA
ATOM     24  H   UNL     1     -14.625  -5.534   3.741  0.00  0.00    +0.000 HD
ENDBRANCH  17  23
ENDBRANCH  11  16
ENDBRANCH   9  12
ENDBRANCH   8   9
ENDBRANCH   6   8
ENDBRANCH   4   7
ENDBRANCH   3   4
ENDBRANCH   2   3
BRANCH   1  25
ATOM     25  C   UNL     1     -12.890 -17.875  14.562  0.00  0.00    +0.000 C 
BRANCH  25  26
ATOM     26  C   UNL     1     -13.166 -18.348  15.737  0.00  0.00    +0.000 C 
ATOM     27  C   UNL     1     -14.595 -18.544  16.146  0.00  0.00    +0.000 C 
BRANCH  26  29
ATOM     28  C   UNL     1     -11.242 -18.806  17.448  0.00  0.00    +0.000 C 
ATOM     29  C   UNL     1     -12.125 -18.597  16.662  0.00  0.00    +0.000 C 
BRANCH  28  30
ATOM     30  C   UNL     1     -10.112 -19.069  18.453  0.00  0.00    +0.000 C 
BRANCH  30  31
ATOM     31  C   UNL     1      -9.165 -19.293  19.307  0.00  0.00    +0.000 C 
ATOM     32  C   UNL     1      -9.406 -20.209  20.469  0.00  0.00    +0.000 C 
BRANCH  31  34
ATOM     33  C   UNL     1      -6.758 -18.361  18.853  0.00  0.00    +0.000 C 
ATOM     34  C   UNL     1      -7.860 -18.799  19.056  0.00  0.00    +0.000 C 
BRANCH  33  38
ATOM     35  O   UNL     1      -3.838 -14.906  16.968  0.00  0.00    +0.000 OA
ATOM     36  C   UNL     1      -4.224 -18.602  19.180  0.00  0.00    +0.000 C 
ATOM     37  C   UNL     1      -3.055 -17.830  18.793  0.00  0.00    +0.000 C 
ATOM     38  C   UNL     1      -5.435 -17.817  18.615  0.00  0.00    +0.000 C 
ATOM     39  C   UNL     1      -2.774 -16.657  18.099  0.00  0.00    +0.000 C 
ATOM     40  C   UNL     1      -4.336 -18.664  20.722  0.00  0.00    +0.000 C 
ATOM     41  C   UNL     1      -4.174 -20.005  18.535  0.00  0.00    +0.000 C 
ATOM     42  C   UNL     1      -5.301 -16.649  17.919  0.00  0.00    +0.000 C 
ATOM     43  C   UNL     1      -3.971 -15.953  17.590  0.00  0.00    +0.000 C 
ATOM     44  C   UNL     1      -6.567 -15.942  17.416  0.00  0.00    +0.000 C 
BRANCH  39  45
ATOM     45  O   UNL     1      -1.502 -16.190  17.907  0.00  0.00    +0.000 OA
ATOM     46  H   UNL     1      -1.408 -15.796  17.016  0.00  0.00    +0.000 HD
ENDBRANCH  39  45
ENDBRANCH  33  38
ENDBRANCH  31  34
ENDBRANCH  30  31
ENDBRANCH  28  30
ENDBRANCH  26  29
ENDBRANCH  25  26
ENDBRANCH   1  25
TORSDOF 16
ENDMDL
MODEL 2
REMARK VINA RESULT:      -5.9     12.600     17.733
REMARK  Name = 5281224_Astaxanthin.pdbqt.pdb
REMARK  16 active torsions:
REMARK  status: ('A' for Active; 'I' for Inactive)
REMARK    1  A    between atoms: C_1  and  C_5
REMARK    2  A    between atoms: C_2  and  C_27
REMARK    3  A    between atoms: C_3  and  C_5
REMARK    4  A    between atoms: C_3  and  C_7
REMARK    5  A    between atoms: C_6  and  C_10
REMARK    6  A    between atoms: C_8  and  C_10
REMARK    7  A    between atoms: C_8  and  C_12
REMARK    8  A    between atoms: C_11  and  C_16
REMARK    9  A    between atoms: C_17  and  O_23
REMARK   10  A    between atoms: C_25  and  C_27
REMARK   11  A    between atoms: C_25  and  C_29
REMARK   12  A    between atoms: C_28  and  C_32
REMARK   13  A    between atoms: C_30  and  C_32
REMARK   14  A    between atoms: C_30  and  C_34
REMARK   15  A    between atoms: C_33  and  C_38
REMARK   16  A    between atoms: C_39  and  O_45
REMARK                            x       y       z     vdW  Elec       q    Type
REMARK                         _______ _______ _______ _____ _____    ______ ____
ROOT
ATOM      1  C   UNL     1       1.468 -12.282  16.699  0.00  0.00    +0.000 C 
ATOM      2  C   UNL     1       2.116 -12.057  15.715  0.00  0.00    +0.000 C 
ENDROOT
BRANCH   2   3
ATOM      3  C   UNL     1       2.947 -11.762  14.459  0.00  0.00    +0.000 C 
BRANCH   3   4
ATOM      4  C   UNL     1       3.653 -11.509  13.403  0.00  0.00    +0.000 C 
ATOM      5  C   UNL     1       3.986 -12.612  12.444  0.00  0.00    +0.000 C 
BRANCH   4   7
ATOM      6  C   UNL     1       4.614  -9.106  13.020  0.00  0.00    +0.000 C 
ATOM      7  C   UNL     1       4.175 -10.209  13.195  0.00  0.00    +0.000 C 
BRANCH   6   8
ATOM      8  C   UNL     1       5.172  -7.695  12.798  0.00  0.00    +0.000 C 
BRANCH   8   9
ATOM      9  C   UNL     1       5.638  -6.500  12.603  0.00  0.00    +0.000 C 
ATOM     10  C   UNL     1       5.085  -5.347  13.383  0.00  0.00    +0.000 C 
BRANCH   9  12
ATOM     11  C   UNL     1       7.718  -6.169  11.046  0.00  0.00    +0.000 C 
ATOM     12  C   UNL     1       6.768  -6.314  11.770  0.00  0.00    +0.000 C 
BRANCH  11  16
ATOM     13  O   UNL     1       9.832  -4.092   7.142  0.00  0.00    +0.000 OA
ATOM     14  C   UNL     1      10.131  -6.832  10.474  0.00  0.00    +0.000 C 
ATOM     15  C   UNL     1      11.085  -6.467   9.441  0.00  0.00    +0.000 C 
ATOM     16  C   UNL     1       8.856  -6.006  10.163  0.00  0.00    +0.000 C 
ATOM     17  C   UNL     1      11.137  -5.629   8.332  0.00  0.00    +0.000 C 
ATOM     18  C   UNL     1      10.669  -6.426  11.866  0.00  0.00    +0.000 C 
ATOM     19  C   UNL     1       9.801  -8.339  10.387  0.00  0.00    +0.000 C 
ATOM     20  C   UNL     1       8.775  -5.142   9.108  0.00  0.00    +0.000 C 
ATOM     21  C   UNL     1       9.893  -4.865   8.090  0.00  0.00    +0.000 C 
ATOM     22  C   UNL     1       7.472  -4.359   8.896  0.00  0.00    +0.000 C 
BRANCH  17  23
ATOM     23  O   UNL     1      12.244  -5.513   7.534  0.00  0.00    +0.000 OA
ATOM     24  H   UNL     1      12.010  -5.111   6.673  0.00  0.00    +0.000 HD
ENDBRANCH  17  23
ENDBRANCH  11  16
ENDBRANCH   9  12
ENDBRANCH   8   9
ENDBRANCH   6   8
ENDBRANCH   4   7
ENDBRANCH   3   4
ENDBRANCH   2   3
BRANCH   1  25
ATOM     25  C   UNL     1       0.642 -12.559  17.960  0.00  0.00    +0.000 C 
BRANCH  25  26
ATOM     26  C   UNL     1      -0.052 -12.797  19.029  0.00  0.00    +0.000 C 
ATOM     27  C   UNL     1       0.274 -12.081  20.306  0.00  0.00    +0.000 C 
BRANCH  26  29
ATOM     28  C   UNL     1      -1.914 -14.634  18.998  0.00  0.00    +0.000 C 
ATOM     29  C   UNL     1      -1.058 -13.791  19.013  0.00  0.00    +0.000 C 
BRANCH  28  30
ATOM     30  C   UNL     1      -3.009 -15.708  18.977  0.00  0.00    +0.000 C 
BRANCH  30  31
ATOM     31  C   UNL     1      -3.940 -16.609  18.960  0.00  0.00    +0.000 C 
ATOM     32  C   UNL     1      -3.965 -17.638  17.871  0.00  0.00    +0.000 C 
BRANCH  31  34
ATOM     33  C   UNL     1      -5.583 -16.790  20.993  0.00  0.00    +0.000 C 
ATOM     34  C   UNL     1      -4.834 -16.716  20.054  0.00  0.00    +0.000 C 
BRANCH  33  38
ATOM     35  O   UNL     1     -10.059 -16.395  22.951  0.00  0.00    +0.000 OA
ATOM     36  C   UNL     1      -5.859 -17.269  23.499  0.00  0.00    +0.000 C 
ATOM     37  C   UNL     1      -6.971 -17.264  24.435  0.00  0.00    +0.000 C 
ATOM     38  C   UNL     1      -6.475 -16.868  22.134  0.00  0.00    +0.000 C 
ATOM     39  C   UNL     1      -8.339 -17.010  24.414  0.00  0.00    +0.000 C 
ATOM     40  C   UNL     1      -5.263 -18.692  23.387  0.00  0.00    +0.000 C 
ATOM     41  C   UNL     1      -4.806 -16.220  23.917  0.00  0.00    +0.000 C 
ATOM     42  C   UNL     1      -7.803 -16.596  21.972  0.00  0.00    +0.000 C 
ATOM     43  C   UNL     1      -8.866 -16.637  23.083  0.00  0.00    +0.000 C 
ATOM     44  C   UNL     1      -8.314 -16.223  20.574  0.00  0.00    +0.000 C 
BRANCH  39  45
ATOM     45  O   UNL     1      -9.132 -17.101  25.526  0.00  0.00    +0.000 OA
ATOM     46  H   UNL     1      -8.917 -16.390  26.164  0.00  0.00    +0.000 HD
ENDBRANCH  39  45
ENDBRANCH  33  38
ENDBRANCH  31  34
ENDBRANCH  30  31
ENDBRANCH  28  30
ENDBRANCH  26  29
ENDBRANCH  25  26
ENDBRANCH   1  25
TORSDOF 16
ENDMDL
MODEL 3
REMARK VINA RESULT:      -5.8      8.648     16.667
REMARK  Name = 5281224_Astaxanthin.pdbqt.pdb
REMARK  16 active torsions:
REMARK  status: ('A' for Active; 'I' for Inactive)
REMARK    1  A    between atoms: C_1  and  C_5
REMARK    2  A    between atoms: C_2  and  C_27
REMARK    3  A    between atoms: C_3  and  C_5
REMARK    4  A    between atoms: C_3  and  C_7
REMARK    5  A    between atoms: C_6  and  C_10
REMARK    6  A    between atoms: C_8  and  C_10
REMARK    7  A    between atoms: C_8  and  C_12
REMARK    8  A    between atoms: C_11  and  C_16
REMARK    9  A    between atoms: C_17  and  O_23
REMARK   10  A    between atoms: C_25  and  C_27
REMARK   11  A    between atoms: C_25  and  C_29
REMARK   12  A    between atoms: C_28  and  C_32
REMARK   13  A    between atoms: C_30  and  C_32
REMARK   14  A    between atoms: C_30  and  C_34
REMARK   15  A    between atoms: C_33  and  C_38
REMARK   16  A    between atoms: C_39  and  O_45
REMARK                            x       y       z     vdW  Elec       q    Type
REMARK                         _______ _______ _______ _____ _____    ______ ____
ROOT
ATOM      1  C   UNL     1     -15.056 -15.888  17.168  0.00  0.00    +0.000 C 
ATOM      2  C   UNL     1     -15.769 -15.159  17.800  0.00  0.00    +0.000 C 
ENDROOT
BRANCH   2   3
ATOM      3  C   UNL     1     -16.674 -14.223  18.612  0.00  0.00    +0.000 C 
BRANCH   3   4
ATOM      4  C   UNL     1     -17.436 -13.428  19.295  0.00  0.00    +0.000 C 
ATOM      5  C   UNL     1     -18.267 -12.400  18.589  0.00  0.00    +0.000 C 
BRANCH   4   7
ATOM      6  C   UNL     1     -17.411 -13.515  21.909  0.00  0.00    +0.000 C 
ATOM      7  C   UNL     1     -17.423 -13.477  20.709  0.00  0.00    +0.000 C 
BRANCH   6   8
ATOM      8  C   UNL     1     -17.396 -13.559  23.442  0.00  0.00    +0.000 C 
BRANCH   8   9
ATOM      9  C   UNL     1     -17.392 -13.595  24.739  0.00  0.00    +0.000 C 
ATOM     10  C   UNL     1     -17.963 -14.781  25.455  0.00  0.00    +0.000 C 
BRANCH   9  12
ATOM     11  C   UNL     1     -16.133 -11.721  26.067  0.00  0.00    +0.000 C 
ATOM     12  C   UNL     1     -16.713 -12.588  25.467  0.00  0.00    +0.000 C 
BRANCH  11  16
ATOM     13  O   UNL     1     -16.139  -7.863  29.090  0.00  0.00    +0.000 OA
ATOM     14  C   UNL     1     -13.891 -10.586  26.593  0.00  0.00    +0.000 C 
ATOM     15  C   UNL     1     -13.471  -9.458  27.407  0.00  0.00    +0.000 C 
ATOM     16  C   UNL     1     -15.429 -10.669  26.774  0.00  0.00    +0.000 C 
ATOM     17  C   UNL     1     -14.055  -8.510  28.240  0.00  0.00    +0.000 C 
ATOM     18  C   UNL     1     -13.249 -11.892  27.118  0.00  0.00    +0.000 C 
ATOM     19  C   UNL     1     -13.562 -10.325  25.107  0.00  0.00    +0.000 C 
ATOM     20  C   UNL     1     -16.127  -9.804  27.567  0.00  0.00    +0.000 C 
ATOM     21  C   UNL     1     -15.523  -8.644  28.376  0.00  0.00    +0.000 C 
ATOM     22  C   UNL     1     -17.647  -9.982  27.691  0.00  0.00    +0.000 C 
BRANCH  17  23
ATOM     23  O   UNL     1     -13.338  -7.539  28.886  0.00  0.00    +0.000 OA
ATOM     24  H   UNL     1     -12.377  -7.670  28.752  0.00  0.00    +0.000 HD
ENDBRANCH  17  23
ENDBRANCH  11  16
ENDBRANCH   9  12
ENDBRANCH   8   9
ENDBRANCH   6   8
ENDBRANCH   4   7
ENDBRANCH   3   4
ENDBRANCH   2   3
BRANCH   1  25
ATOM     25  C   UNL     1     -14.137 -16.818  16.367  0.00  0.00    +0.000 C 
BRANCH  25  26
ATOM     26  C   UNL     1     -13.359 -17.606  15.694  0.00  0.00    +0.000 C 
ATOM     27  C   UNL     1     -12.892 -18.894  16.304  0.00  0.00    +0.000 C 
BRANCH  26  29
ATOM     28  C   UNL     1     -12.478 -16.876  13.342  0.00  0.00    +0.000 C 
ATOM     29  C   UNL     1     -12.881 -17.212  14.422  0.00  0.00    +0.000 C 
BRANCH  28  30
ATOM     30  C   UNL     1     -11.965 -16.444  11.962  0.00  0.00    +0.000 C 
BRANCH  30  31
ATOM     31  C   UNL     1     -11.533 -16.087  10.794  0.00  0.00    +0.000 C 
ATOM     32  C   UNL     1     -10.066 -16.134  10.492  0.00  0.00    +0.000 C 
BRANCH  31  34
ATOM     33  C   UNL     1     -13.237 -15.549   8.878  0.00  0.00    +0.000 C 
ATOM     34  C   UNL     1     -12.459 -15.807   9.758  0.00  0.00    +0.000 C 
BRANCH  33  38
ATOM     35  O   UNL     1     -14.255 -14.894   4.129  0.00  0.00    +0.000 OA
ATOM     36  C   UNL     1     -15.629 -14.881   8.229  0.00  0.00    +0.000 C 
ATOM     37  C   UNL     1     -16.320 -14.597   6.982  0.00  0.00    +0.000 C 
ATOM     38  C   UNL     1     -14.172 -15.219   7.819  0.00  0.00    +0.000 C 
ATOM     39  C   UNL     1     -16.025 -14.558   5.623  0.00  0.00    +0.000 C 
ATOM     40  C   UNL     1     -16.259 -16.112   8.920  0.00  0.00    +0.000 C 
ATOM     41  C   UNL     1     -15.631 -13.630   9.136  0.00  0.00    +0.000 C 
ATOM     42  C   UNL     1     -13.750 -15.221   6.521  0.00  0.00    +0.000 C 
ATOM     43  C   UNL     1     -14.622 -14.894   5.297  0.00  0.00    +0.000 C 
ATOM     44  C   UNL     1     -12.290 -15.586   6.221  0.00  0.00    +0.000 C 
BRANCH  39  45
ATOM     45  O   UNL     1     -16.951 -14.240   4.667  0.00  0.00    +0.000 OA
ATOM     46  H   UNL     1     -16.642 -13.489   4.121  0.00  0.00    +0.000 HD
ENDBRANCH  39  45
ENDBRANCH  33  38
ENDBRANCH  31  34
ENDBRANCH  30  31
ENDBRANCH  28  30
ENDBRANCH  26  29
ENDBRANCH  25  26
ENDBRANCH   1  25
TORSDOF 16
ENDMDL
MODEL 4
REMARK VINA RESULT:      -5.7      7.650     16.636
REMARK  Name = 5281224_Astaxanthin.pdbqt.pdb
REMARK  16 active torsions:
REMARK  status: ('A' for Active; 'I' for Inactive)
REMARK    1  A    between atoms: C_1  and  C_5
REMARK    2  A    between atoms: C_2  and  C_27
REMARK    3  A    between atoms: C_3  and  C_5
REMARK    4  A    between atoms: C_3  and  C_7
REMARK    5  A    between atoms: C_6  and  C_10
REMARK    6  A    between atoms: C_8  and  C_10
REMARK    7  A    between atoms: C_8  and  C_12
REMARK    8  A    between atoms: C_11  and  C_16
REMARK    9  A    between atoms: C_17  and  O_23
REMARK   10  A    between atoms: C_25  and  C_27
REMARK   11  A    between atoms: C_25  and  C_29
REMARK   12  A    between atoms: C_28  and  C_32
REMARK   13  A    between atoms: C_30  and  C_32
REMARK   14  A    between atoms: C_30  and  C_34
REMARK   15  A    between atoms: C_33  and  C_38
REMARK   16  A    between atoms: C_39  and  O_45
REMARK                            x       y       z     vdW  Elec       q    Type
REMARK                         _______ _______ _______ _____ _____    ______ ____
ROOT
ATOM      1  C   UNL     1     -14.914 -15.906  17.454  0.00  0.00    +0.000 C 
ATOM      2  C   UNL     1     -15.634 -15.141  18.035  0.00  0.00    +0.000 C 
ENDROOT
BRANCH   2   3
ATOM      3  C   UNL     1     -16.548 -14.160  18.780  0.00  0.00    +0.000 C 
BRANCH   3   4
ATOM      4  C   UNL     1     -17.318 -13.326  19.405  0.00  0.00    +0.000 C 
ATOM      5  C   UNL     1     -18.207 -12.403  18.628  0.00  0.00    +0.000 C 
BRANCH   4   7
ATOM      6  C   UNL     1     -17.211 -13.156  22.014  0.00  0.00    +0.000 C 
ATOM      7  C   UNL     1     -17.261 -13.233  20.816  0.00  0.00    +0.000 C 
BRANCH   6   8
ATOM      8  C   UNL     1     -17.143 -13.060  23.542  0.00  0.00    +0.000 C 
BRANCH   8   9
ATOM      9  C   UNL     1     -17.093 -12.975  24.836  0.00  0.00    +0.000 C 
ATOM     10  C   UNL     1     -18.236 -13.479  25.663  0.00  0.00    +0.000 C 
BRANCH   9  12
ATOM     11  C   UNL     1     -14.873 -12.201  25.992  0.00  0.00    +0.000 C 
ATOM     12  C   UNL     1     -15.898 -12.547  25.466  0.00  0.00    +0.000 C 
BRANCH  11  16
ATOM     13  O   UNL     1     -11.077  -9.124  26.369  0.00  0.00    +0.000 OA
ATOM     14  C   UNL     1     -13.094 -12.679  27.780  0.00  0.00    +0.000 C 
ATOM     15  C   UNL     1     -11.860 -12.041  28.205  0.00  0.00    +0.000 C 
ATOM     16  C   UNL     1     -13.630 -11.799  26.621  0.00  0.00    +0.000 C 
ATOM     17  C   UNL     1     -11.099 -10.929  27.860  0.00  0.00    +0.000 C 
ATOM     18  C   UNL     1     -14.123 -12.674  28.935  0.00  0.00    +0.000 C 
ATOM     19  C   UNL     1     -12.806 -14.103  27.255  0.00  0.00    +0.000 C 
ATOM     20  C   UNL     1     -12.984 -10.678  26.185  0.00  0.00    +0.000 C 
ATOM     21  C   UNL     1     -11.663 -10.128  26.750  0.00  0.00    +0.000 C 
ATOM     22  C   UNL     1     -13.606  -9.867  25.040  0.00  0.00    +0.000 C 
BRANCH  17  23
ATOM     23  O   UNL     1      -9.931 -10.596  28.493  0.00  0.00    +0.000 OA
ATOM     24  H   UNL     1      -9.772 -11.185  29.258  0.00  0.00    +0.000 HD
ENDBRANCH  17  23
ENDBRANCH  11  16
ENDBRANCH   9  12
ENDBRANCH   8   9
ENDBRANCH   6   8
ENDBRANCH   4   7
ENDBRANCH   3   4
ENDBRANCH   2   3
BRANCH   1  25
ATOM     25  C   UNL     1     -13.986 -16.878  16.716  0.00  0.00    +0.000 C 
BRANCH  25  26
ATOM     26  C   UNL     1     -13.200 -17.702  16.097  0.00  0.00    +0.000 C 
ATOM     27  C   UNL     1     -12.601 -18.860  16.837  0.00  0.00    +0.000 C 
BRANCH  26  29
ATOM     28  C   UNL     1     -12.537 -17.253  13.607  0.00  0.00    +0.000 C 
ATOM     29  C   UNL     1     -12.841 -17.460  14.751  0.00  0.00    +0.000 C 
BRANCH  28  30
ATOM     30  C   UNL     1     -12.153 -16.987  12.146  0.00  0.00    +0.000 C 
BRANCH  30  31
ATOM     31  C   UNL     1     -11.832 -16.770  10.910  0.00  0.00    +0.000 C 
ATOM     32  C   UNL     1     -10.528 -17.279  10.375  0.00  0.00    +0.000 C 
BRANCH  31  34
ATOM     33  C   UNL     1     -13.578 -15.683   9.286  0.00  0.00    +0.000 C 
ATOM     34  C   UNL     1     -12.780 -16.193  10.028  0.00  0.00    +0.000 C 
BRANCH  33  38
ATOM     35  O   UNL     1     -14.871 -14.092   4.835  0.00  0.00    +0.000 OA
ATOM     36  C   UNL     1     -15.884 -14.592   9.009  0.00  0.00    +0.000 C 
ATOM     37  C   UNL     1     -16.624 -14.008   7.903  0.00  0.00    +0.000 C 
ATOM     38  C   UNL     1     -14.535 -15.052   8.398  0.00  0.00    +0.000 C 
ATOM     39  C   UNL     1     -16.440 -13.777   6.543  0.00  0.00    +0.000 C 
ATOM     40  C   UNL     1     -16.636 -15.826   9.561  0.00  0.00    +0.000 C 
ATOM     41  C   UNL     1     -15.621 -13.527  10.096  0.00  0.00    +0.000 C 
ATOM     42  C   UNL     1     -14.227 -14.890   7.078  0.00  0.00    +0.000 C 
ATOM     43  C   UNL     1     -15.136 -14.242   6.021  0.00  0.00    +0.000 C 
ATOM     44  C   UNL     1     -12.869 -15.395   6.571  0.00  0.00    +0.000 C 
BRANCH  39  45
ATOM     45  O   UNL     1     -17.382 -13.177   5.753  0.00  0.00    +0.000 OA
ATOM     46  H   UNL     1     -17.429 -12.216   5.938  0.00  0.00    +0.000 HD
ENDBRANCH  39  45
ENDBRANCH  33  38
ENDBRANCH  31  34
ENDBRANCH  30  31
ENDBRANCH  28  30
ENDBRANCH  26  29
ENDBRANCH  25  26
ENDBRANCH   1  25
TORSDOF 16
ENDMDL
MODEL 5
REMARK VINA RESULT:      -5.5      9.000     14.250
REMARK  Name = 5281224_Astaxanthin.pdbqt.pdb
REMARK  16 active torsions:
REMARK  status: ('A' for Active; 'I' for Inactive)
REMARK    1  A    between atoms: C_1  and  C_5
REMARK    2  A    between atoms: C_2  and  C_27
REMARK    3  A    between atoms: C_3  and  C_5
REMARK    4  A    between atoms: C_3  and  C_7
REMARK    5  A    between atoms: C_6  and  C_10
REMARK    6  A    between atoms: C_8  and  C_10
REMARK    7  A    between atoms: C_8  and  C_12
REMARK    8  A    between atoms: C_11  and  C_16
REMARK    9  A    between atoms: C_17  and  O_23
REMARK   10  A    between atoms: C_25  and  C_27
REMARK   11  A    between atoms: C_25  and  C_29
REMARK   12  A    between atoms: C_28  and  C_32
REMARK   13  A    between atoms: C_30  and  C_32
REMARK   14  A    between atoms: C_30  and  C_34
REMARK   15  A    between atoms: C_33  and  C_38
REMARK   16  A    between atoms: C_39  and  O_45
REMARK                            x       y       z     vdW  Elec       q    Type
REMARK                         _______ _______ _______ _____ _____    ______ ____
ROOT
ATOM      1  C   UNL     1     -15.071 -15.933  17.294  0.00  0.00    +0.000 C 
ATOM      2  C   UNL     1     -15.781 -15.169  17.887  0.00  0.00    +0.000 C 
ENDROOT
BRANCH   2   3
ATOM      3  C   UNL     1     -16.681 -14.186  18.646  0.00  0.00    +0.000 C 
BRANCH   3   4
ATOM      4  C   UNL     1     -17.442 -13.351  19.281  0.00  0.00    +0.000 C 
ATOM      5  C   UNL     1     -18.288 -12.378  18.517  0.00  0.00    +0.000 C 
BRANCH   4   7
ATOM      6  C   UNL     1     -17.388 -13.269  21.896  0.00  0.00    +0.000 C 
ATOM      7  C   UNL     1     -17.414 -13.305  20.696  0.00  0.00    +0.000 C 
BRANCH   6   8
ATOM      8  C   UNL     1     -17.351 -13.224  23.427  0.00  0.00    +0.000 C 
BRANCH   8   9
ATOM      9  C   UNL     1     -17.328 -13.183  24.724  0.00  0.00    +0.000 C 
ATOM     10  C   UNL     1     -18.422 -13.835  25.513  0.00  0.00    +0.000 C 
BRANCH   9  12
ATOM     11  C   UNL     1     -15.218 -12.225  25.947  0.00  0.00    +0.000 C 
ATOM     12  C   UNL     1     -16.193 -12.656  25.390  0.00  0.00    +0.000 C 
BRANCH  11  16
ATOM     13  O   UNL     1     -11.140 -12.980  28.558  0.00  0.00    +0.000 OA
ATOM     14  C   UNL     1     -13.781 -10.192  26.571  0.00  0.00    +0.000 C 
ATOM     15  C   UNL     1     -12.546  -9.988  27.308  0.00  0.00    +0.000 C 
ATOM     16  C   UNL     1     -14.034 -11.721  26.615  0.00  0.00    +0.000 C 
ATOM     17  C   UNL     1     -11.608 -10.758  27.988  0.00  0.00    +0.000 C 
ATOM     18  C   UNL     1     -13.603  -9.751  25.099  0.00  0.00    +0.000 C 
ATOM     19  C   UNL     1     -14.947  -9.458  27.269  0.00  0.00    +0.000 C 
ATOM     20  C   UNL     1     -13.191 -12.592  27.245  0.00  0.00    +0.000 C 
ATOM     21  C   UNL     1     -11.903 -12.209  27.992  0.00  0.00    +0.000 C 
ATOM     22  C   UNL     1     -13.524 -14.090  27.216  0.00  0.00    +0.000 C 
BRANCH  17  23
ATOM     23  O   UNL     1     -10.504 -10.226  28.599  0.00  0.00    +0.000 OA
ATOM     24  H   UNL     1     -10.763  -9.689  29.375  0.00  0.00    +0.000 HD
ENDBRANCH  17  23
ENDBRANCH  11  16
ENDBRANCH   9  12
ENDBRANCH   8   9
ENDBRANCH   6   8
ENDBRANCH   4   7
ENDBRANCH   3   4
ENDBRANCH   2   3
BRANCH   1  25
ATOM     25  C   UNL     1     -14.157 -16.903  16.536  0.00  0.00    +0.000 C 
BRANCH  25  26
ATOM     26  C   UNL     1     -13.380 -17.722  15.900  0.00  0.00    +0.000 C 
ATOM     27  C   UNL     1     -13.621 -18.002  14.446  0.00  0.00    +0.000 C 
BRANCH  26  29
ATOM     28  C   UNL     1     -11.494 -19.004  17.181  0.00  0.00    +0.000 C 
ATOM     29  C   UNL     1     -12.361 -18.415  16.594  0.00  0.00    +0.000 C 
BRANCH  28  30
ATOM     30  C   UNL     1     -10.387 -19.758  17.928  0.00  0.00    +0.000 C 
BRANCH  30  31
ATOM     31  C   UNL     1      -9.457 -20.402  18.560  0.00  0.00    +0.000 C 
ATOM     32  C   UNL     1      -9.353 -21.891  18.426  0.00  0.00    +0.000 C 
BRANCH  31  34
ATOM     33  C   UNL     1      -7.593 -19.086  19.848  0.00  0.00    +0.000 C 
ATOM     34  C   UNL     1      -8.447 -19.683  19.248  0.00  0.00    +0.000 C 
BRANCH  33  38
ATOM     35  O   UNL     1      -2.872 -18.167  20.793  0.00  0.00    +0.000 OA
ATOM     36  C   UNL     1      -7.031 -17.352  21.654  0.00  0.00    +0.000 C 
ATOM     37  C   UNL     1      -5.807 -16.809  22.220  0.00  0.00    +0.000 C 
ATOM     38  C   UNL     1      -6.567 -18.377  20.588  0.00  0.00    +0.000 C 
ATOM     39  C   UNL     1      -4.434 -16.965  22.056  0.00  0.00    +0.000 C 
ATOM     40  C   UNL     1      -7.841 -16.231  20.961  0.00  0.00    +0.000 C 
ATOM     41  C   UNL     1      -7.846 -18.079  22.747  0.00  0.00    +0.000 C 
ATOM     42  C   UNL     1      -5.250 -18.624  20.323  0.00  0.00    +0.000 C 
ATOM     43  C   UNL     1      -4.056 -17.953  21.022  0.00  0.00    +0.000 C 
ATOM     44  C   UNL     1      -4.897 -19.648  19.236  0.00  0.00    +0.000 C 
BRANCH  39  45
ATOM     45  O   UNL     1      -3.511 -16.265  22.784  0.00  0.00    +0.000 OA
ATOM     46  H   UNL     1      -3.467 -16.600  23.703  0.00  0.00    +0.000 HD
ENDBRANCH  39  45
ENDBRANCH  33  38
ENDBRANCH  31  34
ENDBRANCH  30  31
ENDBRANCH  28  30
ENDBRANCH  26  29
ENDBRANCH  25  26
ENDBRANCH   1  25
TORSDOF 16
ENDMDL
MODEL 6
REMARK VINA RESULT:      -5.5      8.978     10.611
REMARK  Name = 5281224_Astaxanthin.pdbqt.pdb
REMARK  16 active torsions:
REMARK  status: ('A' for Active; 'I' for Inactive)
REMARK    1  A    between atoms: C_1  and  C_5
REMARK    2  A    between atoms: C_2  and  C_27
REMARK    3  A    between atoms: C_3  and  C_5
REMARK    4  A    between atoms: C_3  and  C_7
REMARK    5  A    between atoms: C_6  and  C_10
REMARK    6  A    between atoms: C_8  and  C_10
REMARK    7  A    between atoms: C_8  and  C_12
REMARK    8  A    between atoms: C_11  and  C_16
REMARK    9  A    between atoms: C_17  and  O_23
REMARK   10  A    between atoms: C_25  and  C_27
REMARK   11  A    between atoms: C_25  and  C_29
REMARK   12  A    between atoms: C_28  and  C_32
REMARK   13  A    between atoms: C_30  and  C_32
REMARK   14  A    between atoms: C_30  and  C_34
REMARK   15  A    between atoms: C_33  and  C_38
REMARK   16  A    between atoms: C_39  and  O_45
REMARK                            x       y       z     vdW  Elec       q    Type
REMARK                         _______ _______ _______ _____ _____    ______ ____
ROOT
ATOM      1  C   UNL     1     -16.310 -15.143  16.843  0.00  0.00    +0.000 C 
ATOM      2  C   UNL     1     -17.109 -14.517  17.482  0.00  0.00    +0.000 C 
ENDROOT
BRANCH   2   3
ATOM      3  C   UNL     1     -18.125 -13.711  18.301  0.00  0.00    +0.000 C 
BRANCH   3   4
ATOM      4  C   UNL     1     -18.986 -13.027  18.988  0.00  0.00    +0.000 C 
ATOM      5  C   UNL     1     -19.206 -13.341  20.437  0.00  0.00    +0.000 C 
BRANCH   4   7
ATOM      6  C   UNL     1     -20.444 -11.201  17.812  0.00  0.00    +0.000 C 
ATOM      7  C   UNL     1     -19.773 -12.038  18.350  0.00  0.00    +0.000 C 
BRANCH   6   8
ATOM      8  C   UNL     1     -21.304 -10.132  17.128  0.00  0.00    +0.000 C 
BRANCH   8   9
ATOM      9  C   UNL     1     -22.031  -9.231  16.542  0.00  0.00    +0.000 C 
ATOM     10  C   UNL     1     -23.090  -9.645  15.565  0.00  0.00    +0.000 C 
BRANCH   9  12
ATOM     11  C   UNL     1     -21.822  -6.721  17.260  0.00  0.00    +0.000 C 
ATOM     12  C   UNL     1     -21.926  -7.875  16.939  0.00  0.00    +0.000 C 
BRANCH  11  16
ATOM     13  O   UNL     1     -23.296  -2.055  16.970  0.00  0.00    +0.000 OA
ATOM     14  C   UNL     1     -20.547  -4.956  18.620  0.00  0.00    +0.000 C 
ATOM     15  C   UNL     1     -20.655  -3.520  18.807  0.00  0.00    +0.000 C 
ATOM     16  C   UNL     1     -21.685  -5.327  17.634  0.00  0.00    +0.000 C 
ATOM     17  C   UNL     1     -21.458  -2.477  18.358  0.00  0.00    +0.000 C 
ATOM     18  C   UNL     1     -20.784  -5.688  19.962  0.00  0.00    +0.000 C 
ATOM     19  C   UNL     1     -19.183  -5.312  17.988  0.00  0.00    +0.000 C 
ATOM     20  C   UNL     1     -22.548  -4.401  17.121  0.00  0.00    +0.000 C 
ATOM     21  C   UNL     1     -22.527  -2.893  17.423  0.00  0.00    +0.000 C 
ATOM     22  C   UNL     1     -23.650  -4.873  16.163  0.00  0.00    +0.000 C 
BRANCH  17  23
ATOM     23  O   UNL     1     -21.282  -1.176  18.749  0.00  0.00    +0.000 OA
ATOM     24  H   UNL     1     -21.797  -0.570  18.178  0.00  0.00    +0.000 HD
ENDBRANCH  17  23
ENDBRANCH  11  16
ENDBRANCH   9  12
ENDBRANCH   8   9
ENDBRANCH   6   8
ENDBRANCH   4   7
ENDBRANCH   3   4
ENDBRANCH   2   3
BRANCH   1  25
ATOM     25  C   UNL     1     -15.281 -15.936  16.027  0.00  0.00    +0.000 C 
BRANCH  25  26
ATOM     26  C   UNL     1     -14.408 -16.603  15.340  0.00  0.00    +0.000 C 
ATOM     27  C   UNL     1     -14.442 -16.555  13.842  0.00  0.00    +0.000 C 
BRANCH  26  29
ATOM     28  C   UNL     1     -12.689 -18.151  16.560  0.00  0.00    +0.000 C 
ATOM     29  C   UNL     1     -13.479 -17.441  16.000  0.00  0.00    +0.000 C 
BRANCH  28  30
ATOM     30  C   UNL     1     -11.677 -19.056  17.275  0.00  0.00    +0.000 C 
BRANCH  30  31
ATOM     31  C   UNL     1     -10.817 -19.821  17.871  0.00  0.00    +0.000 C 
ATOM     32  C   UNL     1     -10.778 -21.287  17.560  0.00  0.00    +0.000 C 
BRANCH  31  34
ATOM     33  C   UNL     1      -8.966 -18.741  19.378  0.00  0.00    +0.000 C 
ATOM     34  C   UNL     1      -9.816 -19.246  18.693  0.00  0.00    +0.000 C 
BRANCH  33  38
ATOM     35  O   UNL     1      -7.377 -17.048  23.694  0.00  0.00    +0.000 OA
ATOM     36  C   UNL     1      -6.608 -17.736  19.494  0.00  0.00    +0.000 C 
ATOM     37  C   UNL     1      -5.788 -17.143  20.538  0.00  0.00    +0.000 C 
ATOM     38  C   UNL     1      -7.939 -18.118  20.190  0.00  0.00    +0.000 C 
ATOM     39  C   UNL     1      -5.890 -16.858  21.896  0.00  0.00    +0.000 C 
ATOM     40  C   UNL     1      -5.934 -19.018  18.950  0.00  0.00    +0.000 C 
ATOM     41  C   UNL     1      -6.887 -16.699  18.384  0.00  0.00    +0.000 C 
ATOM     42  C   UNL     1      -8.170 -17.898  21.518  0.00  0.00    +0.000 C 
ATOM     43  C   UNL     1      -7.182 -17.250  22.502  0.00  0.00    +0.000 C 
ATOM     44  C   UNL     1      -9.517 -18.329  22.113  0.00  0.00    +0.000 C 
BRANCH  39  45
ATOM     45  O   UNL     1      -4.885 -16.269  22.613  0.00  0.00    +0.000 OA
ATOM     46  H   UNL     1      -4.097 -16.123  22.049  0.00  0.00    +0.000 HD
ENDBRANCH  39  45
ENDBRANCH  33  38
ENDBRANCH  31  34
ENDBRANCH  30  31
ENDBRANCH  28  30
ENDBRANCH  26  29
ENDBRANCH  25  26
ENDBRANCH   1  25
TORSDOF 16
ENDMDL
MODEL 7
REMARK VINA RESULT:      -5.4     11.359     15.745
REMARK  Name = 5281224_Astaxanthin.pdbqt.pdb
REMARK  16 active torsions:
REMARK  status: ('A' for Active; 'I' for Inactive)
REMARK    1  A    between atoms: C_1  and  C_5
REMARK    2  A    between atoms: C_2  and  C_27
REMARK    3  A    between atoms: C_3  and  C_5
REMARK    4  A    between atoms: C_3  and  C_7
REMARK    5  A    between atoms: C_6  and  C_10
REMARK    6  A    between atoms: C_8  and  C_10
REMARK    7  A    between atoms: C_8  and  C_12
REMARK    8  A    between atoms: C_11  and  C_16
REMARK    9  A    between atoms: C_17  and  O_23
REMARK   10  A    between atoms: C_25  and  C_27
REMARK   11  A    between atoms: C_25  and  C_29
REMARK   12  A    between atoms: C_28  and  C_32
REMARK   13  A    between atoms: C_30  and  C_32
REMARK   14  A    between atoms: C_30  and  C_34
REMARK   15  A    between atoms: C_33  and  C_38
REMARK   16  A    between atoms: C_39  and  O_45
REMARK                            x       y       z     vdW  Elec       q    Type
REMARK                         _______ _______ _______ _____ _____    ______ ____
ROOT
ATOM      1  C   UNL     1     -20.226 -12.068  18.146  0.00  0.00    +0.000 C 
ATOM      2  C   UNL     1     -19.134 -12.466  18.444  0.00  0.00    +0.000 C 
ENDROOT
BRANCH   2   3
ATOM      3  C   UNL     1     -17.734 -12.966  18.825  0.00  0.00    +0.000 C 
BRANCH   3   4
ATOM      4  C   UNL     1     -16.550 -13.382  19.145  0.00  0.00    +0.000 C 
ATOM      5  C   UNL     1     -15.851 -12.803  20.338  0.00  0.00    +0.000 C 
BRANCH   4   7
ATOM      6  C   UNL     1     -15.322 -15.121  17.625  0.00  0.00    +0.000 C 
ATOM      7  C   UNL     1     -15.885 -14.324  18.324  0.00  0.00    +0.000 C 
BRANCH   6   8
ATOM      8  C   UNL     1     -14.603 -16.137  16.729  0.00  0.00    +0.000 C 
BRANCH   8   9
ATOM      9  C   UNL     1     -14.000 -16.994  15.964  0.00  0.00    +0.000 C 
ATOM     10  C   UNL     1     -13.644 -18.349  16.496  0.00  0.00    +0.000 C 
BRANCH   9  12
ATOM     11  C   UNL     1     -13.682 -16.447  13.422  0.00  0.00    +0.000 C 
ATOM     12  C   UNL     1     -13.816 -16.702  14.590  0.00  0.00    +0.000 C 
BRANCH  11  16
ATOM     13  O   UNL     1     -15.245 -14.187   9.364  0.00  0.00    +0.000 OA
ATOM     14  C   UNL     1     -12.324 -16.747  11.264  0.00  0.00    +0.000 C 
ATOM     15  C   UNL     1     -12.439 -16.270   9.897  0.00  0.00    +0.000 C 
ATOM     16  C   UNL     1     -13.537 -16.137  12.014  0.00  0.00    +0.000 C 
ATOM     17  C   UNL     1     -13.296 -15.467   9.151  0.00  0.00    +0.000 C 
ATOM     18  C   UNL     1     -11.018 -16.221  11.905  0.00  0.00    +0.000 C 
ATOM     19  C   UNL     1     -12.419 -18.288  11.302  0.00  0.00    +0.000 C 
ATOM     20  C   UNL     1     -14.452 -15.328  11.402  0.00  0.00    +0.000 C 
ATOM     21  C   UNL     1     -14.431 -14.912   9.922  0.00  0.00    +0.000 C 
ATOM     22  C   UNL     1     -15.609 -14.762  12.237  0.00  0.00    +0.000 C 
BRANCH  17  23
ATOM     23  O   UNL     1     -13.107 -15.206   7.821  0.00  0.00    +0.000 OA
ATOM     24  H   UNL     1     -13.963 -15.183   7.347  0.00  0.00    +0.000 HD
ENDBRANCH  17  23
ENDBRANCH  11  16
ENDBRANCH   9  12
ENDBRANCH   8   9
ENDBRANCH   6   8
ENDBRANCH   4   7
ENDBRANCH   3   4
ENDBRANCH   2   3
BRANCH   1  25
ATOM     25  C   UNL     1     -21.617 -11.551  17.764  0.00  0.00    +0.000 C 
BRANCH  25  26
ATOM     26  C   UNL     1     -22.792 -11.109  17.438  0.00  0.00    +0.000 C 
ATOM     27  C   UNL     1     -23.719 -11.973  16.637  0.00  0.00    +0.000 C 
BRANCH  26  29
ATOM     28  C   UNL     1     -23.478  -8.658  18.041  0.00  0.00    +0.000 C 
ATOM     29  C   UNL     1     -23.164  -9.784  17.763  0.00  0.00    +0.000 C 
BRANCH  28  30
ATOM     30  C   UNL     1     -23.877  -7.220  18.397  0.00  0.00    +0.000 C 
BRANCH  30  31
ATOM     31  C   UNL     1     -24.206  -6.005  18.702  0.00  0.00    +0.000 C 
ATOM     32  C   UNL     1     -25.610  -5.531  18.479  0.00  0.00    +0.000 C 
BRANCH  31  34
ATOM     33  C   UNL     1     -22.512  -4.459  19.969  0.00  0.00    +0.000 C 
ATOM     34  C   UNL     1     -23.282  -5.178  19.389  0.00  0.00    +0.000 C 
BRANCH  33  38
ATOM     35  O   UNL     1     -19.075  -3.699  23.379  0.00  0.00    +0.000 OA
ATOM     36  C   UNL     1     -21.552  -2.092  20.220  0.00  0.00    +0.000 C 
ATOM     37  C   UNL     1     -20.559  -1.465  21.076  0.00  0.00    +0.000 C 
ATOM     38  C   UNL     1     -21.593  -3.577  20.663  0.00  0.00    +0.000 C 
ATOM     39  C   UNL     1     -19.704  -1.835  22.110  0.00  0.00    +0.000 C 
ATOM     40  C   UNL     1     -21.105  -2.017  18.741  0.00  0.00    +0.000 C 
ATOM     41  C   UNL     1     -22.937  -1.447  20.450  0.00  0.00    +0.000 C 
ATOM     42  C   UNL     1     -20.805  -4.073  21.661  0.00  0.00    +0.000 C 
ATOM     43  C   UNL     1     -19.787  -3.264  22.483  0.00  0.00    +0.000 C 
ATOM     44  C   UNL     1     -20.911  -5.563  22.012  0.00  0.00    +0.000 C 
BRANCH  39  45
ATOM     45  O   UNL     1     -18.856  -0.957  22.727  0.00  0.00    +0.000 OA
ATOM     46  H   UNL     1     -18.936  -0.063  22.335  0.00  0.00    +0.000 HD
ENDBRANCH  39  45
ENDBRANCH  33  38
ENDBRANCH  31  34
ENDBRANCH  30  31
ENDBRANCH  28  30
ENDBRANCH  26  29
ENDBRANCH  25  26
ENDBRANCH   1  25
TORSDOF 16
ENDMDL
MODEL 8
REMARK VINA RESULT:      -5.4      8.939     10.444
REMARK  Name = 5281224_Astaxanthin.pdbqt.pdb
REMARK  16 active torsions:
REMARK  status: ('A' for Active; 'I' for Inactive)
REMARK    1  A    between atoms: C_1  and  C_5
REMARK    2  A    between atoms: C_2  and  C_27
REMARK    3  A    between atoms: C_3  and  C_5
REMARK    4  A    between atoms: C_3  and  C_7
REMARK    5  A    between atoms: C_6  and  C_10
REMARK    6  A    between atoms: C_8  and  C_10
REMARK    7  A    between atoms: C_8  and  C_12
REMARK    8  A    between atoms: C_11  and  C_16
REMARK    9  A    between atoms: C_17  and  O_23
REMARK   10  A    between atoms: C_25  and  C_27
REMARK   11  A    between atoms: C_25  and  C_29
REMARK   12  A    between atoms: C_28  and  C_32
REMARK   13  A    between atoms: C_30  and  C_32
REMARK   14  A    between atoms: C_30  and  C_34
REMARK   15  A    between atoms: C_33  and  C_38
REMARK   16  A    between atoms: C_39  and  O_45
REMARK                            x       y       z     vdW  Elec       q    Type
REMARK                         _______ _______ _______ _____ _____    ______ ____
ROOT
ATOM      1  C   UNL     1     -16.603 -15.007  17.280  0.00  0.00    +0.000 C 
ATOM      2  C   UNL     1     -17.464 -14.326  17.764  0.00  0.00    +0.000 C 
ENDROOT
BRANCH   2   3
ATOM      3  C   UNL     1     -18.557 -13.448  18.385  0.00  0.00    +0.000 C 
BRANCH   3   4
ATOM      4  C   UNL     1     -19.482 -12.703  18.905  0.00  0.00    +0.000 C 
ATOM      5  C   UNL     1     -20.016 -13.016  20.270  0.00  0.00    +0.000 C 
BRANCH   4   7
ATOM      6  C   UNL     1     -20.524 -10.748  17.513  0.00  0.00    +0.000 C 
ATOM      7  C   UNL     1     -20.044 -11.644  18.151  0.00  0.00    +0.000 C 
BRANCH   6   8
ATOM      8  C   UNL     1     -21.140  -9.603  16.700  0.00  0.00    +0.000 C 
BRANCH   8   9
ATOM      9  C   UNL     1     -21.660  -8.639  16.006  0.00  0.00    +0.000 C 
ATOM     10  C   UNL     1     -22.443  -8.950  14.766  0.00  0.00    +0.000 C 
BRANCH   9  12
ATOM     11  C   UNL     1     -21.582  -6.195  16.944  0.00  0.00    +0.000 C 
ATOM     12  C   UNL     1     -21.618  -7.313  16.502  0.00  0.00    +0.000 C 
BRANCH  11  16
ATOM     13  O   UNL     1     -19.230  -2.635  19.356  0.00  0.00    +0.000 OA
ATOM     14  C   UNL     1     -22.798  -3.962  17.305  0.00  0.00    +0.000 C 
ATOM     15  C   UNL     1     -22.470  -2.700  17.945  0.00  0.00    +0.000 C 
ATOM     16  C   UNL     1     -21.543  -4.853  17.493  0.00  0.00    +0.000 C 
ATOM     17  C   UNL     1     -21.399  -2.136  18.630  0.00  0.00    +0.000 C 
ATOM     18  C   UNL     1     -23.042  -3.746  15.793  0.00  0.00    +0.000 C 
ATOM     19  C   UNL     1     -24.005  -4.620  18.008  0.00  0.00    +0.000 C 
ATOM     20  C   UNL     1     -20.421  -4.422  18.142  0.00  0.00    +0.000 C 
ATOM     21  C   UNL     1     -20.231  -3.033  18.774  0.00  0.00    +0.000 C 
ATOM     22  C   UNL     1     -19.226  -5.377  18.261  0.00  0.00    +0.000 C 
BRANCH  17  23
ATOM     23  O   UNL     1     -21.417  -0.859  19.125  0.00  0.00    +0.000 OA
ATOM     24  H   UNL     1     -21.009  -0.826  20.014  0.00  0.00    +0.000 HD
ENDBRANCH  17  23
ENDBRANCH  11  16
ENDBRANCH   9  12
ENDBRANCH   8   9
ENDBRANCH   6   8
ENDBRANCH   4   7
ENDBRANCH   3   4
ENDBRANCH   2   3
BRANCH   1  25
ATOM     25  C   UNL     1     -15.497 -15.871  16.662  0.00  0.00    +0.000 C 
BRANCH  25  26
ATOM     26  C   UNL     1     -14.559 -16.599  16.143  0.00  0.00    +0.000 C 
ATOM     27  C   UNL     1     -14.522 -16.823  14.661  0.00  0.00    +0.000 C 
BRANCH  26  29
ATOM     28  C   UNL     1     -12.826 -17.800  17.690  0.00  0.00    +0.000 C 
ATOM     29  C   UNL     1     -13.623 -17.250  16.980  0.00  0.00    +0.000 C 
BRANCH  28  30
ATOM     30  C   UNL     1     -11.807 -18.501  18.598  0.00  0.00    +0.000 C 
BRANCH  30  31
ATOM     31  C   UNL     1     -10.940 -19.091  19.358  0.00  0.00    +0.000 C 
ATOM     32  C   UNL     1     -11.373 -20.203  20.264  0.00  0.00    +0.000 C 
BRANCH  31  34
ATOM     33  C   UNL     1      -8.391 -18.533  19.116  0.00  0.00    +0.000 C 
ATOM     34  C   UNL     1      -9.561 -18.793  19.216  0.00  0.00    +0.000 C 
BRANCH  33  38
ATOM     35  O   UNL     1      -3.735 -19.911  18.450  0.00  0.00    +0.000 OA
ATOM     36  C   UNL     1      -6.571 -16.725  19.163  0.00  0.00    +0.000 C 
ATOM     37  C   UNL     1      -5.125 -16.711  19.016  0.00  0.00    +0.000 C 
ATOM     38  C   UNL     1      -6.980 -18.213  19.013  0.00  0.00    +0.000 C 
ATOM     39  C   UNL     1      -4.099 -17.624  18.792  0.00  0.00    +0.000 C 
ATOM     40  C   UNL     1      -7.230 -15.902  18.031  0.00  0.00    +0.000 C 
ATOM     41  C   UNL     1      -6.968 -16.220  20.568  0.00  0.00    +0.000 C 
ATOM     42  C   UNL     1      -6.076 -19.210  18.786  0.00  0.00    +0.000 C 
ATOM     43  C   UNL     1      -4.555 -19.025  18.654  0.00  0.00    +0.000 C 
ATOM     44  C   UNL     1      -6.588 -20.649  18.638  0.00  0.00    +0.000 C 
BRANCH  39  45
ATOM     45  O   UNL     1      -2.783 -17.262  18.702  0.00  0.00    +0.000 OA
ATOM     46  H   UNL     1      -2.685 -16.290  18.778  0.00  0.00    +0.000 HD
ENDBRANCH  39  45
ENDBRANCH  33  38
ENDBRANCH  31  34
ENDBRANCH  30  31
ENDBRANCH  28  30
ENDBRANCH  26  29
ENDBRANCH  25  26
ENDBRANCH   1  25
TORSDOF 16
ENDMDL
MODEL 9
REMARK VINA RESULT:      -5.4     17.055     18.634
REMARK  Name = 5281224_Astaxanthin.pdbqt.pdb
REMARK  16 active torsions:
REMARK  status: ('A' for Active; 'I' for Inactive)
REMARK    1  A    between atoms: C_1  and  C_5
REMARK    2  A    between atoms: C_2  and  C_27
REMARK    3  A    between atoms: C_3  and  C_5
REMARK    4  A    between atoms: C_3  and  C_7
REMARK    5  A    between atoms: C_6  and  C_10
REMARK    6  A    between atoms: C_8  and  C_10
REMARK    7  A    between atoms: C_8  and  C_12
REMARK    8  A    between atoms: C_11  and  C_16
REMARK    9  A    between atoms: C_17  and  O_23
REMARK   10  A    between atoms: C_25  and  C_27
REMARK   11  A    between atoms: C_25  and  C_29
REMARK   12  A    between atoms: C_28  and  C_32
REMARK   13  A    between atoms: C_30  and  C_32
REMARK   14  A    between atoms: C_30  and  C_34
REMARK   15  A    between atoms: C_33  and  C_38
REMARK   16  A    between atoms: C_39  and  O_45
REMARK                            x       y       z     vdW  Elec       q    Type
REMARK                         _______ _______ _______ _____ _____    ______ ____
ROOT
ATOM      1  C   UNL     1     -19.077  -2.028  26.526  0.00  0.00    +0.000 C 
ATOM      2  C   UNL     1     -19.182  -1.499  25.455  0.00  0.00    +0.000 C 
ENDROOT
BRANCH   2   3
ATOM      3  C   UNL     1     -19.314  -0.831  24.080  0.00  0.00    +0.000 C 
BRANCH   3   4
ATOM      4  C   UNL     1     -19.423  -0.271  22.917  0.00  0.00    +0.000 C 
ATOM      5  C   UNL     1     -20.515  -0.696  21.982  0.00  0.00    +0.000 C 
BRANCH   4   7
ATOM      6  C   UNL     1     -17.655   1.494  22.141  0.00  0.00    +0.000 C 
ATOM      7  C   UNL     1     -18.465   0.683  22.498  0.00  0.00    +0.000 C 
BRANCH   6   8
ATOM      8  C   UNL     1     -16.624   2.532  21.683  0.00  0.00    +0.000 C 
BRANCH   8   9
ATOM      9  C   UNL     1     -15.747   3.409  21.303  0.00  0.00    +0.000 C 
ATOM     10  C   UNL     1     -14.757   3.951  22.289  0.00  0.00    +0.000 C 
BRANCH   9  12
ATOM     11  C   UNL     1     -15.519   4.033  18.769  0.00  0.00    +0.000 C 
ATOM     12  C   UNL     1     -15.631   3.737  19.930  0.00  0.00    +0.000 C 
BRANCH  11  16
ATOM     13  O   UNL     1     -17.299   4.279  14.210  0.00  0.00    +0.000 OA
ATOM     14  C   UNL     1     -14.046   5.078  16.944  0.00  0.00    +0.000 C 
ATOM     15  C   UNL     1     -14.190   5.331  15.521  0.00  0.00    +0.000 C 
ATOM     16  C   UNL     1     -15.375   4.404  17.375  0.00  0.00    +0.000 C 
ATOM     17  C   UNL     1     -15.144   5.136  14.528  0.00  0.00    +0.000 C 
ATOM     18  C   UNL     1     -13.885   6.411  17.711  0.00  0.00    +0.000 C 
ATOM     19  C   UNL     1     -12.872   4.107  17.198  0.00  0.00    +0.000 C 
ATOM     20  C   UNL     1     -16.396   4.158  16.502  0.00  0.00    +0.000 C 
ATOM     21  C   UNL     1     -16.390   4.493  15.001  0.00  0.00    +0.000 C 
ATOM     22  C   UNL     1     -17.677   3.500  17.032  0.00  0.00    +0.000 C 
BRANCH  17  23
ATOM     23  O   UNL     1     -14.954   5.511  13.224  0.00  0.00    +0.000 OA
ATOM     24  H   UNL     1     -15.767   5.366  12.700  0.00  0.00    +0.000 HD
ENDBRANCH  17  23
ENDBRANCH  11  16
ENDBRANCH   9  12
ENDBRANCH   8   9
ENDBRANCH   6   8
ENDBRANCH   4   7
ENDBRANCH   3   4
ENDBRANCH   2   3
BRANCH   1  25
ATOM     25  C   UNL     1     -18.942  -2.714  27.891  0.00  0.00    +0.000 C 
BRANCH  25  26
ATOM     26  C   UNL     1     -18.828  -3.288  29.048  0.00  0.00    +0.000 C 
ATOM     27  C   UNL     1     -19.526  -2.708  30.241  0.00  0.00    +0.000 C 
BRANCH  26  29
ATOM     28  C   UNL     1     -17.259  -5.361  29.328  0.00  0.00    +0.000 C 
ATOM     29  C   UNL     1     -17.978  -4.408  29.201  0.00  0.00    +0.000 C 
BRANCH  28  30
ATOM     30  C   UNL     1     -16.341  -6.580  29.491  0.00  0.00    +0.000 C 
BRANCH  30  31
ATOM     31  C   UNL     1     -15.568  -7.609  29.636  0.00  0.00    +0.000 C 
ATOM     32  C   UNL     1     -16.040  -8.794  30.424  0.00  0.00    +0.000 C 
BRANCH  31  34
ATOM     33  C   UNL     1     -13.299  -7.726  28.331  0.00  0.00    +0.000 C 
ATOM     34  C   UNL     1     -14.346  -7.678  28.921  0.00  0.00    +0.000 C 
BRANCH  33  38
ATOM     35  O   UNL     1      -9.038  -5.656  27.075  0.00  0.00    +0.000 OA
ATOM     36  C   UNL     1     -11.696  -9.058  26.833  0.00  0.00    +0.000 C 
ATOM     37  C   UNL     1     -10.386  -8.818  26.252  0.00  0.00    +0.000 C 
ATOM     38  C   UNL     1     -12.029  -7.772  27.632  0.00  0.00    +0.000 C 
ATOM     39  C   UNL     1      -9.432  -7.804  26.235  0.00  0.00    +0.000 C 
ATOM     40  C   UNL     1     -11.636 -10.258  27.808  0.00  0.00    +0.000 C 
ATOM     41  C   UNL     1     -12.746  -9.257  25.717  0.00  0.00    +0.000 C 
ATOM     42  C   UNL     1     -11.181  -6.704  27.702  0.00  0.00    +0.000 C 
ATOM     43  C   UNL     1      -9.807  -6.607  27.018  0.00  0.00    +0.000 C 
ATOM     44  C   UNL     1     -11.600  -5.484  28.534  0.00  0.00    +0.000 C 
BRANCH  39  45
ATOM     45  O   UNL     1      -8.248  -7.905  25.557  0.00  0.00    +0.000 OA
ATOM     46  H   UNL     1      -8.385  -7.765  24.597  0.00  0.00    +0.000 HD
ENDBRANCH  39  45
ENDBRANCH  33  38
ENDBRANCH  31  34
ENDBRANCH  30  31
ENDBRANCH  28  30
ENDBRANCH  26  29
ENDBRANCH  25  26
ENDBRANCH   1  25
TORSDOF 16
ENDMDL
