MODEL 1
REMARK VINA RESULT:      -6.0      0.000      0.000
REMARK  Name = 5289155_Peridinin.pdbqt.pdb
REMARK  13 active torsions:
REMARK  status: ('A' for Active; 'I' for Inactive)
REMARK    1  A    between atoms: C_1  and  C_3
REMARK    2  A    between atoms: C_3  and  C_25
REMARK    3  A    between atoms: C_6  and  C_12
REMARK    4  A    between atoms: C_11  and  C_14
REMARK    5  A    between atoms: C_19  and  O_23
REMARK    6  A    between atoms: C_26  and  C_28
REMARK    7  A    between atoms: C_27  and  C_31
REMARK    8  A    between atoms: C_29  and  C_31
REMARK    9  A    between atoms: C_29  and  C_42
REMARK   10  A    between atoms: C_33  and  O_43
REMARK   11  A    between atoms: C_35  and  O_45
REMARK   12  A    between atoms: C_37  and  C_41
REMARK   13  A    between atoms: O_45  and  C_47
REMARK                            x       y       z     vdW  Elec       q    Type
REMARK                         _______ _______ _______ _____ _____    ______ ____
ROOT
ATOM      1  C   UNL     1     -12.936 -16.382  11.975  0.00  0.00    +0.000 C 
ENDROOT
BRANCH   1   2
ATOM      2  C   UNL     1     -13.005 -15.924  10.765  0.00  0.00    +0.000 C 
ATOM      3  C   UNL     1     -14.267 -15.283  10.274  0.00  0.00    +0.000 C 
ATOM      4  O   UNL     1      -9.910 -17.065   9.314  0.00  0.00    +0.000 OA
ATOM      5  O   UNL     1      -8.275 -17.801   7.844  0.00  0.00    +0.000 OA
ATOM      6  C   UNL     1      -9.822 -16.053   7.221  0.00  0.00    +0.000 C 
ATOM      7  C   UNL     1     -10.782 -15.495   7.863  0.00  0.00    +0.000 C 
ATOM      8  C   UNL     1      -9.213 -17.071   8.110  0.00  0.00    +0.000 C 
ATOM      9  C   UNL     1     -10.848 -16.053   9.137  0.00  0.00    +0.000 C 
ATOM     10  C   UNL     1     -11.878 -15.993   9.915  0.00  0.00    +0.000 C 
BRANCH   6  12
ATOM     11  C   UNL     1      -9.147 -15.453   4.774  0.00  0.00    +0.000 C 
ATOM     12  C   UNL     1      -9.461 -15.734   5.900  0.00  0.00    +0.000 C 
BRANCH  11  14
ATOM     13  O   UNL     1      -9.899 -14.503   2.721  0.00  0.00    +0.000 OA
ATOM     14  C   UNL     1      -8.767 -15.102   3.415  0.00  0.00    +0.000 C 
ATOM     15  C   UNL     1      -8.807 -13.623   2.976  0.00  0.00    +0.000 C 
ATOM     16  C   UNL     1      -7.881 -16.092   2.582  0.00  0.00    +0.000 C 
ATOM     17  C   UNL     1      -8.104 -13.276   1.783  0.00  0.00    +0.000 C 
ATOM     18  C   UNL     1      -7.406 -15.359   1.405  0.00  0.00    +0.000 C 
ATOM     19  C   UNL     1      -7.375 -14.057   0.870  0.00  0.00    +0.000 C 
ATOM     20  C   UNL     1      -9.157 -12.470   3.922  0.00  0.00    +0.000 C 
ATOM     21  C   UNL     1      -6.694 -16.472   3.507  0.00  0.00    +0.000 C 
ATOM     22  C   UNL     1      -8.778 -17.301   2.235  0.00  0.00    +0.000 C 
BRANCH  19  23
ATOM     23  O   UNL     1      -6.280 -13.587   0.209  0.00  0.00    +0.000 OA
ATOM     24  H   UNL     1      -5.727 -13.013   0.769  0.00  0.00    +0.000 HD
ENDBRANCH  19  23
ENDBRANCH  11  14
ENDBRANCH   6  12
ENDBRANCH   1   2
BRANCH   1  25
ATOM     25  C   UNL     1     -12.852 -16.924  13.407  0.00  0.00    +0.000 C 
ATOM     26  C   UNL     1     -12.782 -17.344  14.528  0.00  0.00    +0.000 C 
BRANCH  26  28
ATOM     27  C   UNL     1     -12.610 -18.288  17.086  0.00  0.00    +0.000 C 
ATOM     28  C   UNL     1     -12.688 -17.876  15.962  0.00  0.00    +0.000 C 
BRANCH  27  29
ATOM     29  C   UNL     1     -12.504 -18.811  18.523  0.00  0.00    +0.000 C 
BRANCH  29  30
ATOM     30  C   UNL     1     -12.424 -19.250  19.740  0.00  0.00    +0.000 C 
ATOM     31  C   UNL     1     -13.505 -20.123  20.302  0.00  0.00    +0.000 C 
BRANCH  30  33
ATOM     32  C   UNL     1     -10.417 -18.530  21.262  0.00  0.00    +0.000 C 
ATOM     33  C   UNL     1     -11.338 -18.859  20.563  0.00  0.00    +0.000 C 
BRANCH  32  39
ATOM     34  C   UNL     1      -8.673 -19.169  22.945  0.00  0.00    +0.000 C 
ATOM     35  C   UNL     1      -8.934 -16.729  22.083  0.00  0.00    +0.000 C 
ATOM     36  C   UNL     1      -7.411 -18.604  23.444  0.00  0.00    +0.000 C 
ATOM     37  C   UNL     1      -6.700 -17.387  23.415  0.00  0.00    +0.000 C 
ATOM     38  C   UNL     1      -7.615 -16.595  22.691  0.00  0.00    +0.000 C 
ATOM     39  C   UNL     1      -9.404 -18.174  22.026  0.00  0.00    +0.000 C 
ATOM     40  C   UNL     1      -8.336 -20.459  22.137  0.00  0.00    +0.000 C 
ATOM     41  C   UNL     1      -9.604 -19.518  24.137  0.00  0.00    +0.000 C 
ATOM     42  C   UNL     1      -9.967 -15.844  22.789  0.00  0.00    +0.000 C 
BRANCH  35  43
ATOM     43  O   UNL     1      -8.853 -16.216  20.770  0.00  0.00    +0.000 OA
ATOM     44  H   UNL     1      -9.520 -15.506  20.799  0.00  0.00    +0.000 HD
ENDBRANCH  35  43
BRANCH  37  45
ATOM     45  O   UNL     1      -6.131 -16.909  24.588  0.00  0.00    +0.000 OA
BRANCH  45  47
ATOM     46  O   UNL     1      -4.605 -15.128  24.618  0.00  0.00    +0.000 OA
ATOM     47  C   UNL     1      -4.985 -16.241  24.306  0.00  0.00    +0.000 C 
ATOM     48  C   UNL     1      -4.031 -17.001  23.454  0.00  0.00    +0.000 C 
ENDBRANCH  45  47
ENDBRANCH  37  45
ENDBRANCH  32  39
ENDBRANCH  30  33
ENDBRANCH  29  30
ENDBRANCH  27  29
ENDBRANCH  26  28
ENDBRANCH   1  25
TORSDOF 13
ENDMDL
MODEL 2
REMARK VINA RESULT:      -5.9     15.330     18.244
REMARK  Name = 5289155_Peridinin.pdbqt.pdb
REMARK  13 active torsions:
REMARK  status: ('A' for Active; 'I' for Inactive)
REMARK    1  A    between atoms: C_1  and  C_3
REMARK    2  A    between atoms: C_3  and  C_25
REMARK    3  A    between atoms: C_6  and  C_12
REMARK    4  A    between atoms: C_11  and  C_14
REMARK    5  A    between atoms: C_19  and  O_23
REMARK    6  A    between atoms: C_26  and  C_28
REMARK    7  A    between atoms: C_27  and  C_31
REMARK    8  A    between atoms: C_29  and  C_31
REMARK    9  A    between atoms: C_29  and  C_42
REMARK   10  A    between atoms: C_33  and  O_43
REMARK   11  A    between atoms: C_35  and  O_45
REMARK   12  A    between atoms: C_37  and  C_41
REMARK   13  A    between atoms: O_45  and  C_47
REMARK                            x       y       z     vdW  Elec       q    Type
REMARK                         _______ _______ _______ _____ _____    ______ ____
ROOT
ATOM      1  C   UNL     1       7.789 -15.003  12.026  0.00  0.00    +0.000 C 
ENDROOT
BRANCH   1   2
ATOM      2  C   UNL     1       8.440 -13.903  11.818  0.00  0.00    +0.000 C 
ATOM      3  C   UNL     1       9.935 -13.885  11.900  0.00  0.00    +0.000 C 
ATOM      4  O   UNL     1       5.800 -11.459  11.596  0.00  0.00    +0.000 OA
ATOM      5  O   UNL     1       4.560  -9.503  11.689  0.00  0.00    +0.000 OA
ATOM      6  C   UNL     1       6.859  -9.493  10.948  0.00  0.00    +0.000 C 
ATOM      7  C   UNL     1       7.716 -10.437  10.812  0.00  0.00    +0.000 C 
ATOM      8  C   UNL     1       5.597 -10.092  11.443  0.00  0.00    +0.000 C 
ATOM      9  C   UNL     1       7.109 -11.641  11.161  0.00  0.00    +0.000 C 
ATOM     10  C   UNL     1       7.743 -12.722  11.476  0.00  0.00    +0.000 C 
BRANCH   6  12
ATOM     11  C   UNL     1       7.346  -6.980  10.440  0.00  0.00    +0.000 C 
ATOM     12  C   UNL     1       7.124  -8.137  10.679  0.00  0.00    +0.000 C 
BRANCH  11  14
ATOM     13  O   UNL     1       8.662  -5.078  11.016  0.00  0.00    +0.000 OA
ATOM     14  C   UNL     1       7.612  -5.582  10.141  0.00  0.00    +0.000 C 
ATOM     15  C   UNL     1       9.011  -5.170   9.637  0.00  0.00    +0.000 C 
ATOM     16  C   UNL     1       6.412  -4.612   9.858  0.00  0.00    +0.000 C 
ATOM     17  C   UNL     1       9.133  -3.886   9.025  0.00  0.00    +0.000 C 
ATOM     18  C   UNL     1       6.978  -3.383   9.293  0.00  0.00    +0.000 C 
ATOM     19  C   UNL     1       8.193  -2.863   8.809  0.00  0.00    +0.000 C 
ATOM     20  C   UNL     1      10.136  -6.170   9.354  0.00  0.00    +0.000 C 
ATOM     21  C   UNL     1       5.525  -5.338   8.812  0.00  0.00    +0.000 C 
ATOM     22  C   UNL     1       5.692  -4.397  11.206  0.00  0.00    +0.000 C 
BRANCH  19  23
ATOM     23  O   UNL     1       8.233  -2.045   7.720  0.00  0.00    +0.000 OA
ATOM     24  H   UNL     1       9.107  -1.635   7.596  0.00  0.00    +0.000 HD
ENDBRANCH  19  23
ENDBRANCH  11  14
ENDBRANCH   6  12
ENDBRANCH   1   2
BRANCH   1  25
ATOM     25  C   UNL     1       7.019 -16.306  12.273  0.00  0.00    +0.000 C 
ATOM     26  C   UNL     1       6.413 -17.322  12.470  0.00  0.00    +0.000 C 
BRANCH  26  28
ATOM     27  C   UNL     1       5.027 -19.630  12.933  0.00  0.00    +0.000 C 
ATOM     28  C   UNL     1       5.634 -18.617  12.727  0.00  0.00    +0.000 C 
BRANCH  27  29
ATOM     29  C   UNL     1       4.254 -20.927  13.203  0.00  0.00    +0.000 C 
BRANCH  29  30
ATOM     30  C   UNL     1       3.600 -22.020  13.442  0.00  0.00    +0.000 C 
ATOM     31  C   UNL     1       4.163 -23.051  14.373  0.00  0.00    +0.000 C 
BRANCH  30  33
ATOM     32  C   UNL     1       1.331 -22.476  12.214  0.00  0.00    +0.000 C 
ATOM     33  C   UNL     1       2.372 -22.268  12.778  0.00  0.00    +0.000 C 
BRANCH  32  39
ATOM     34  C   UNL     1      -0.532 -24.059  11.661  0.00  0.00    +0.000 C 
ATOM     35  C   UNL     1      -0.445 -21.639  10.710  0.00  0.00    +0.000 C 
ATOM     36  C   UNL     1      -1.905 -23.956  11.148  0.00  0.00    +0.000 C 
ATOM     37  C   UNL     1      -2.743 -23.012  10.519  0.00  0.00    +0.000 C 
ATOM     38  C   UNL     1      -1.839 -21.936  10.398  0.00  0.00    +0.000 C 
ATOM     39  C   UNL     1       0.192 -22.702  11.590  0.00  0.00    +0.000 C 
ATOM     40  C   UNL     1      -0.608 -24.520  13.149  0.00  0.00    +0.000 C 
ATOM     41  C   UNL     1       0.269 -25.093  10.825  0.00  0.00    +0.000 C 
ATOM     42  C   UNL     1       0.376 -21.418   9.436  0.00  0.00    +0.000 C 
BRANCH  35  43
ATOM     43  O   UNL     1      -0.413 -20.400  11.384  0.00  0.00    +0.000 OA
ATOM     44  H   UNL     1      -0.487 -20.685  12.314  0.00  0.00    +0.000 HD
ENDBRANCH  35  43
BRANCH  37  45
ATOM     45  O   UNL     1      -3.512 -23.409   9.433  0.00  0.00    +0.000 OA
BRANCH  45  47
ATOM     46  O   UNL     1      -5.352 -22.078   8.844  0.00  0.00    +0.000 OA
ATOM     47  C   UNL     1      -4.759 -22.885   9.535  0.00  0.00    +0.000 C 
ATOM     48  C   UNL     1      -5.532 -23.378  10.707  0.00  0.00    +0.000 C 
ENDBRANCH  45  47
ENDBRANCH  37  45
ENDBRANCH  32  39
ENDBRANCH  30  33
ENDBRANCH  29  30
ENDBRANCH  27  29
ENDBRANCH  26  28
ENDBRANCH   1  25
TORSDOF 13
ENDMDL
MODEL 3
REMARK VINA RESULT:      -5.4      8.668     13.628
REMARK  Name = 5289155_Peridinin.pdbqt.pdb
REMARK  13 active torsions:
REMARK  status: ('A' for Active; 'I' for Inactive)
REMARK    1  A    between atoms: C_1  and  C_3
REMARK    2  A    between atoms: C_3  and  C_25
REMARK    3  A    between atoms: C_6  and  C_12
REMARK    4  A    between atoms: C_11  and  C_14
REMARK    5  A    between atoms: C_19  and  O_23
REMARK    6  A    between atoms: C_26  and  C_28
REMARK    7  A    between atoms: C_27  and  C_31
REMARK    8  A    between atoms: C_29  and  C_31
REMARK    9  A    between atoms: C_29  and  C_42
REMARK   10  A    between atoms: C_33  and  O_43
REMARK   11  A    between atoms: C_35  and  O_45
REMARK   12  A    between atoms: C_37  and  C_41
REMARK   13  A    between atoms: O_45  and  C_47
REMARK                            x       y       z     vdW  Elec       q    Type
REMARK                         _______ _______ _______ _____ _____    ______ ____
ROOT
ATOM      1  C   UNL     1      -3.791 -21.313   5.709  0.00  0.00    +0.000 C 
ENDROOT
BRANCH   1   2
ATOM      2  C   UNL     1      -2.770 -21.389   4.914  0.00  0.00    +0.000 C 
ATOM      3  C   UNL     1      -2.912 -22.024   3.565  0.00  0.00    +0.000 C 
ATOM      4  O   UNL     1      -0.062 -20.255   7.005  0.00  0.00    +0.000 OA
ATOM      5  O   UNL     1       2.017 -19.925   7.974  0.00  0.00    +0.000 OA
ATOM      6  C   UNL     1       1.768 -20.096   5.578  0.00  0.00    +0.000 C 
ATOM      7  C   UNL     1       0.734 -20.267   4.837  0.00  0.00    +0.000 C 
ATOM      8  C   UNL     1       1.317 -20.070   6.989  0.00  0.00    +0.000 C 
ATOM      9  C   UNL     1      -0.390 -20.337   5.655  0.00  0.00    +0.000 C 
ATOM     10  C   UNL     1      -1.528 -20.840   5.303  0.00  0.00    +0.000 C 
BRANCH   6  12
ATOM     11  C   UNL     1       4.206 -19.868   4.677  0.00  0.00    +0.000 C 
ATOM     12  C   UNL     1       3.082 -19.978   5.089  0.00  0.00    +0.000 C 
BRANCH  11  14
ATOM     13  O   UNL     1       5.601 -19.983   2.748  0.00  0.00    +0.000 OA
ATOM     14  C   UNL     1       5.565 -19.725   4.181  0.00  0.00    +0.000 C 
ATOM     15  C   UNL     1       5.877 -18.638   3.131  0.00  0.00    +0.000 C 
ATOM     16  C   UNL     1       6.758 -20.297   5.025  0.00  0.00    +0.000 C 
ATOM     17  C   UNL     1       7.248 -18.291   2.936  0.00  0.00    +0.000 C 
ATOM     18  C   UNL     1       7.990 -19.745   4.455  0.00  0.00    +0.000 C 
ATOM     19  C   UNL     1       8.427 -18.791   3.516  0.00  0.00    +0.000 C 
ATOM     20  C   UNL     1       4.840 -17.631   2.625  0.00  0.00    +0.000 C 
ATOM     21  C   UNL     1       6.539 -19.772   6.469  0.00  0.00    +0.000 C 
ATOM     22  C   UNL     1       6.668 -21.835   4.928  0.00  0.00    +0.000 C 
BRANCH  19  23
ATOM     23  O   UNL     1       9.519 -18.010   3.751  0.00  0.00    +0.000 OA
ATOM     24  H   UNL     1      10.121 -18.403   4.409  0.00  0.00    +0.000 HD
ENDBRANCH  19  23
ENDBRANCH  11  14
ENDBRANCH   6  12
ENDBRANCH   1   2
BRANCH   1  25
ATOM     25  C   UNL     1      -4.999 -21.222   6.648  0.00  0.00    +0.000 C 
ATOM     26  C   UNL     1      -5.944 -21.145   7.384  0.00  0.00    +0.000 C 
BRANCH  26  28
ATOM     27  C   UNL     1      -8.096 -20.962   9.056  0.00  0.00    +0.000 C 
ATOM     28  C   UNL     1      -7.150 -21.039   8.322  0.00  0.00    +0.000 C 
BRANCH  27  29
ATOM     29  C   UNL     1      -9.309 -20.868   9.989  0.00  0.00    +0.000 C 
BRANCH  29  30
ATOM     30  C   UNL     1     -10.329 -20.780  10.783  0.00  0.00    +0.000 C 
ATOM     31  C   UNL     1     -10.704 -21.934  11.664  0.00  0.00    +0.000 C 
BRANCH  30  33
ATOM     32  C   UNL     1     -11.806 -18.616  10.782  0.00  0.00    +0.000 C 
ATOM     33  C   UNL     1     -11.128 -19.609  10.781  0.00  0.00    +0.000 C 
BRANCH  32  39
ATOM     34  C   UNL     1     -12.456 -16.460   9.682  0.00  0.00    +0.000 C 
ATOM     35  C   UNL     1     -13.504 -17.234  11.934  0.00  0.00    +0.000 C 
ATOM     36  C   UNL     1     -13.582 -15.519   9.756  0.00  0.00    +0.000 C 
ATOM     37  C   UNL     1     -14.682 -15.233  10.590  0.00  0.00    +0.000 C 
ATOM     38  C   UNL     1     -14.469 -16.192  11.602  0.00  0.00    +0.000 C 
ATOM     39  C   UNL     1     -12.547 -17.526  10.788  0.00  0.00    +0.000 C 
ATOM     40  C   UNL     1     -12.505 -17.162   8.290  0.00  0.00    +0.000 C 
ATOM     41  C   UNL     1     -11.115 -15.694   9.842  0.00  0.00    +0.000 C 
ATOM     42  C   UNL     1     -12.736 -16.895  13.215  0.00  0.00    +0.000 C 
BRANCH  35  43
ATOM     43  O   UNL     1     -14.228 -18.404  12.243  0.00  0.00    +0.000 OA
ATOM     44  H   UNL     1     -13.816 -19.051  11.639  0.00  0.00    +0.000 HD
ENDBRANCH  35  43
BRANCH  37  45
ATOM     45  O   UNL     1     -14.954 -13.911  10.921  0.00  0.00    +0.000 OA
BRANCH  45  47
ATOM     46  O   UNL     1     -16.896 -13.643   9.633  0.00  0.00    +0.000 OA
ATOM     47  C   UNL     1     -16.256 -13.630  10.668  0.00  0.00    +0.000 C 
ATOM     48  C   UNL     1     -17.035 -13.223  11.868  0.00  0.00    +0.000 C 
ENDBRANCH  45  47
ENDBRANCH  37  45
ENDBRANCH  32  39
ENDBRANCH  30  33
ENDBRANCH  29  30
ENDBRANCH  27  29
ENDBRANCH  26  28
ENDBRANCH   1  25
TORSDOF 13
ENDMDL
MODEL 4
REMARK VINA RESULT:      -5.2     17.411     25.256
REMARK  Name = 5289155_Peridinin.pdbqt.pdb
REMARK  13 active torsions:
REMARK  status: ('A' for Active; 'I' for Inactive)
REMARK    1  A    between atoms: C_1  and  C_3
REMARK    2  A    between atoms: C_3  and  C_25
REMARK    3  A    between atoms: C_6  and  C_12
REMARK    4  A    between atoms: C_11  and  C_14
REMARK    5  A    between atoms: C_19  and  O_23
REMARK    6  A    between atoms: C_26  and  C_28
REMARK    7  A    between atoms: C_27  and  C_31
REMARK    8  A    between atoms: C_29  and  C_31
REMARK    9  A    between atoms: C_29  and  C_42
REMARK   10  A    between atoms: C_33  and  O_43
REMARK   11  A    between atoms: C_35  and  O_45
REMARK   12  A    between atoms: C_37  and  C_41
REMARK   13  A    between atoms: O_45  and  C_47
REMARK                            x       y       z     vdW  Elec       q    Type
REMARK                         _______ _______ _______ _____ _____    ______ ____
ROOT
ATOM      1  C   UNL     1     -10.075  -0.060  27.385  0.00  0.00    +0.000 C 
ENDROOT
BRANCH   1   2
ATOM      2  C   UNL     1     -10.182  -1.027  28.240  0.00  0.00    +0.000 C 
ATOM      3  C   UNL     1     -10.606  -0.744  29.648  0.00  0.00    +0.000 C 
ATOM      4  O   UNL     1      -8.834  -3.834  26.424  0.00  0.00    +0.000 OA
ATOM      5  O   UNL     1      -7.803  -5.829  25.849  0.00  0.00    +0.000 OA
ATOM      6  C   UNL     1      -9.241  -5.676  27.784  0.00  0.00    +0.000 C 
ATOM      7  C   UNL     1      -9.907  -4.697  28.277  0.00  0.00    +0.000 C 
ATOM      8  C   UNL     1      -8.533  -5.183  26.579  0.00  0.00    +0.000 C 
ATOM      9  C   UNL     1      -9.715  -3.579  27.471  0.00  0.00    +0.000 C 
ATOM     10  C   UNL     1      -9.937  -2.359  27.837  0.00  0.00    +0.000 C 
BRANCH   6  12
ATOM     11  C   UNL     1      -9.181  -8.076  28.805  0.00  0.00    +0.000 C 
ATOM     12  C   UNL     1      -9.205  -6.969  28.338  0.00  0.00    +0.000 C 
BRANCH  11  14
ATOM     13  O   UNL     1     -10.515  -9.962  29.393  0.00  0.00    +0.000 OA
ATOM     14  C   UNL     1      -9.164  -9.417  29.367  0.00  0.00    +0.000 C 
ATOM     15  C   UNL     1      -9.615 -10.609  28.496  0.00  0.00    +0.000 C 
ATOM     16  C   UNL     1      -8.265  -9.718  30.617  0.00  0.00    +0.000 C 
ATOM     17  C   UNL     1      -9.255 -11.917  28.942  0.00  0.00    +0.000 C 
ATOM     18  C   UNL     1      -8.206 -11.175  30.763  0.00  0.00    +0.000 C 
ATOM     19  C   UNL     1      -8.568 -12.355  30.087  0.00  0.00    +0.000 C 
ATOM     20  C   UNL     1     -10.014 -10.475  27.024  0.00  0.00    +0.000 C 
ATOM     21  C   UNL     1      -6.865  -9.144  30.274  0.00  0.00    +0.000 C 
ATOM     22  C   UNL     1      -8.925  -9.004  31.817  0.00  0.00    +0.000 C 
BRANCH  19  23
ATOM     23  O   UNL     1      -7.757 -13.450  30.083  0.00  0.00    +0.000 OA
ATOM     24  H   UNL     1      -6.875 -13.257  29.717  0.00  0.00    +0.000 HD
ENDBRANCH  19  23
ENDBRANCH  11  14
ENDBRANCH   6  12
ENDBRANCH   1   2
BRANCH   1  25
ATOM     25  C   UNL     1      -9.948   1.085  26.373  0.00  0.00    +0.000 C 
ATOM     26  C   UNL     1      -9.854   1.983  25.583  0.00  0.00    +0.000 C 
BRANCH  26  28
ATOM     27  C   UNL     1      -9.657   4.035  23.791  0.00  0.00    +0.000 C 
ATOM     28  C   UNL     1      -9.740   3.134  24.578  0.00  0.00    +0.000 C 
BRANCH  27  29
ATOM     29  C   UNL     1      -9.557   5.187  22.783  0.00  0.00    +0.000 C 
BRANCH  29  30
ATOM     30  C   UNL     1      -9.469   6.153  21.925  0.00  0.00    +0.000 C 
ATOM     31  C   UNL     1      -8.560   7.316  22.184  0.00  0.00    +0.000 C 
BRANCH  30  33
ATOM     32  C   UNL     1     -10.959   6.127  19.769  0.00  0.00    +0.000 C 
ATOM     33  C   UNL     1     -10.277   6.138  20.759  0.00  0.00    +0.000 C 
BRANCH  32  39
ATOM     34  C   UNL     1     -12.612   4.921  18.322  0.00  0.00    +0.000 C 
ATOM     35  C   UNL     1     -11.660   7.256  17.683  0.00  0.00    +0.000 C 
ATOM     36  C   UNL     1     -13.551   5.274  17.249  0.00  0.00    +0.000 C 
ATOM     37  C   UNL     1     -13.819   6.347  16.374  0.00  0.00    +0.000 C 
ATOM     38  C   UNL     1     -12.782   7.226  16.752  0.00  0.00    +0.000 C 
ATOM     39  C   UNL     1     -11.704   6.110  18.682  0.00  0.00    +0.000 C 
ATOM     40  C   UNL     1     -13.446   4.517  19.577  0.00  0.00    +0.000 C 
ATOM     41  C   UNL     1     -11.719   3.733  17.875  0.00  0.00    +0.000 C 
ATOM     42  C   UNL     1     -10.320   7.285  16.941  0.00  0.00    +0.000 C 
BRANCH  35  43
ATOM     43  O   UNL     1     -11.717   8.481  18.381  0.00  0.00    +0.000 OA
ATOM     44  H   UNL     1     -11.971   9.097  17.668  0.00  0.00    +0.000 HD
ENDBRANCH  35  43
BRANCH  37  45
ATOM     45  O   UNL     1     -14.061   6.081  15.033  0.00  0.00    +0.000 OA
BRANCH  45  47
ATOM     46  O   UNL     1     -15.646   7.574  14.162  0.00  0.00    +0.000 OA
ATOM     47  C   UNL     1     -15.290   6.536  14.687  0.00  0.00    +0.000 C 
ATOM     48  C   UNL     1     -16.401   5.603  15.020  0.00  0.00    +0.000 C 
ENDBRANCH  45  47
ENDBRANCH  37  45
ENDBRANCH  32  39
ENDBRANCH  30  33
ENDBRANCH  29  30
ENDBRANCH  27  29
ENDBRANCH  26  28
ENDBRANCH   1  25
TORSDOF 13
ENDMDL
MODEL 5
REMARK VINA RESULT:      -5.2     17.888     20.618
REMARK  Name = 5289155_Peridinin.pdbqt.pdb
REMARK  13 active torsions:
REMARK  status: ('A' for Active; 'I' for Inactive)
REMARK    1  A    between atoms: C_1  and  C_3
REMARK    2  A    between atoms: C_3  and  C_25
REMARK    3  A    between atoms: C_6  and  C_12
REMARK    4  A    between atoms: C_11  and  C_14
REMARK    5  A    between atoms: C_19  and  O_23
REMARK    6  A    between atoms: C_26  and  C_28
REMARK    7  A    between atoms: C_27  and  C_31
REMARK    8  A    between atoms: C_29  and  C_31
REMARK    9  A    between atoms: C_29  and  C_42
REMARK   10  A    between atoms: C_33  and  O_43
REMARK   11  A    between atoms: C_35  and  O_45
REMARK   12  A    between atoms: C_37  and  C_41
REMARK   13  A    between atoms: O_45  and  C_47
REMARK                            x       y       z     vdW  Elec       q    Type
REMARK                         _______ _______ _______ _____ _____    ______ ____
ROOT
ATOM      1  C   UNL     1       5.705  -7.834   9.989  0.00  0.00    +0.000 C 
ENDROOT
BRANCH   1   2
ATOM      2  C   UNL     1       5.554  -6.679   9.422  0.00  0.00    +0.000 C 
ATOM      3  C   UNL     1       4.783  -6.563   8.144  0.00  0.00    +0.000 C 
ATOM      4  O   UNL     1       7.695  -4.552  11.393  0.00  0.00    +0.000 OA
ATOM      5  O   UNL     1       9.122  -2.869  12.103  0.00  0.00    +0.000 OA
ATOM      6  C   UNL     1       7.275  -2.400  10.618  0.00  0.00    +0.000 C 
ATOM      7  C   UNL     1       6.371  -3.158  10.114  0.00  0.00    +0.000 C 
ATOM      8  C   UNL     1       8.155  -3.241  11.463  0.00  0.00    +0.000 C 
ATOM      9  C   UNL     1       6.570  -4.455  10.580  0.00  0.00    +0.000 C 
ATOM     10  C   UNL     1       6.086  -5.519  10.028  0.00  0.00    +0.000 C 
BRANCH   6  12
ATOM     11  C   UNL     1       7.464   0.160  10.149  0.00  0.00    +0.000 C 
ATOM     12  C   UNL     1       7.381  -1.019  10.369  0.00  0.00    +0.000 C 
BRANCH  11  14
ATOM     13  O   UNL     1       8.931   2.037  10.072  0.00  0.00    +0.000 OA
ATOM     14  C   UNL     1       7.561   1.584   9.872  0.00  0.00    +0.000 C 
ATOM     15  C   UNL     1       8.469   2.072   8.724  0.00  0.00    +0.000 C 
ATOM     16  C   UNL     1       6.427   2.546  10.373  0.00  0.00    +0.000 C 
ATOM     17  C   UNL     1       8.271   3.406   8.255  0.00  0.00    +0.000 C 
ATOM     18  C   UNL     1       6.625   3.831   9.697  0.00  0.00    +0.000 C 
ATOM     19  C   UNL     1       7.393   4.420   8.675  0.00  0.00    +0.000 C 
ATOM     20  C   UNL     1       9.231   1.127   7.790  0.00  0.00    +0.000 C 
ATOM     21  C   UNL     1       5.094   1.890   9.924  0.00  0.00    +0.000 C 
ATOM     22  C   UNL     1       6.564   2.628  11.908  0.00  0.00    +0.000 C 
BRANCH  19  23
ATOM     23  O   UNL     1       6.854   5.329   7.814  0.00  0.00    +0.000 OA
ATOM     24  H   UNL     1       6.245   4.918   7.175  0.00  0.00    +0.000 HD
ENDBRANCH  19  23
ENDBRANCH  11  14
ENDBRANCH   6  12
ENDBRANCH   1   2
BRANCH   1  25
ATOM     25  C   UNL     1       5.883  -9.202  10.660  0.00  0.00    +0.000 C 
ATOM     26  C   UNL     1       6.018 -10.274  11.181  0.00  0.00    +0.000 C 
BRANCH  26  28
ATOM     27  C   UNL     1       6.321 -12.718  12.362  0.00  0.00    +0.000 C 
ATOM     28  C   UNL     1       6.186 -11.646  11.842  0.00  0.00    +0.000 C 
BRANCH  27  29
ATOM     29  C   UNL     1       6.501 -14.087  13.030  0.00  0.00    +0.000 C 
BRANCH  29  30
ATOM     30  C   UNL     1       6.659 -15.238  13.602  0.00  0.00    +0.000 C 
ATOM     31  C   UNL     1       7.839 -15.487  14.491  0.00  0.00    +0.000 C 
BRANCH  30  33
ATOM     32  C   UNL     1       4.960 -17.175  13.124  0.00  0.00    +0.000 C 
ATOM     33  C   UNL     1       5.740 -16.287  13.344  0.00  0.00    +0.000 C 
BRANCH  32  39
ATOM     34  C   UNL     1       2.596 -17.898  12.711  0.00  0.00    +0.000 C 
ATOM     35  C   UNL     1       4.566 -19.594  12.797  0.00  0.00    +0.000 C 
ATOM     36  C   UNL     1       1.921 -19.075  12.144  0.00  0.00    +0.000 C 
ATOM     37  C   UNL     1       2.216 -20.406  11.787  0.00  0.00    +0.000 C 
ATOM     38  C   UNL     1       3.569 -20.463  12.181  0.00  0.00    +0.000 C 
ATOM     39  C   UNL     1       4.106 -18.147  12.876  0.00  0.00    +0.000 C 
ATOM     40  C   UNL     1       2.379 -16.702  11.733  0.00  0.00    +0.000 C 
ATOM     41  C   UNL     1       1.994 -17.562  14.101  0.00  0.00    +0.000 C 
ATOM     42  C   UNL     1       4.982 -20.113  14.177  0.00  0.00    +0.000 C 
BRANCH  35  43
ATOM     43  O   UNL     1       5.737 -19.665  12.013  0.00  0.00    +0.000 OA
ATOM     44  H   UNL     1       5.394 -19.427  11.132  0.00  0.00    +0.000 HD
ENDBRANCH  35  43
BRANCH  37  45
ATOM     45  O   UNL     1       1.335 -21.415  12.154  0.00  0.00    +0.000 OA
BRANCH  45  47
ATOM     46  O   UNL     1       1.244 -22.887  10.331  0.00  0.00    +0.000 OA
ATOM     47  C   UNL     1       0.817 -22.001  11.047  0.00  0.00    +0.000 C 
ATOM     48  C   UNL     1      -0.501 -21.452  10.627  0.00  0.00    +0.000 C 
ENDBRANCH  45  47
ENDBRANCH  37  45
ENDBRANCH  32  39
ENDBRANCH  30  33
ENDBRANCH  29  30
ENDBRANCH  27  29
ENDBRANCH  26  28
ENDBRANCH   1  25
TORSDOF 13
ENDMDL
MODEL 6
REMARK VINA RESULT:      -5.2     18.899     21.830
REMARK  Name = 5289155_Peridinin.pdbqt.pdb
REMARK  13 active torsions:
REMARK  status: ('A' for Active; 'I' for Inactive)
REMARK    1  A    between atoms: C_1  and  C_3
REMARK    2  A    between atoms: C_3  and  C_25
REMARK    3  A    between atoms: C_6  and  C_12
REMARK    4  A    between atoms: C_11  and  C_14
REMARK    5  A    between atoms: C_19  and  O_23
REMARK    6  A    between atoms: C_26  and  C_28
REMARK    7  A    between atoms: C_27  and  C_31
REMARK    8  A    between atoms: C_29  and  C_31
REMARK    9  A    between atoms: C_29  and  C_42
REMARK   10  A    between atoms: C_33  and  O_43
REMARK   11  A    between atoms: C_35  and  O_45
REMARK   12  A    between atoms: C_37  and  C_41
REMARK   13  A    between atoms: O_45  and  C_47
REMARK                            x       y       z     vdW  Elec       q    Type
REMARK                         _______ _______ _______ _____ _____    ______ ____
ROOT
ATOM      1  C   UNL     1       6.428  -7.631   9.831  0.00  0.00    +0.000 C 
ENDROOT
BRANCH   1   2
ATOM      2  C   UNL     1       5.912  -6.497   9.476  0.00  0.00    +0.000 C 
ATOM      3  C   UNL     1       4.742  -6.460   8.543  0.00  0.00    +0.000 C 
ATOM      4  O   UNL     1       8.234  -4.113  10.862  0.00  0.00    +0.000 OA
ATOM      5  O   UNL     1       9.533  -2.232  11.248  0.00  0.00    +0.000 OA
ATOM      6  C   UNL     1       7.240  -2.039  10.513  0.00  0.00    +0.000 C 
ATOM      7  C   UNL     1       6.350  -2.925  10.250  0.00  0.00    +0.000 C 
ATOM      8  C   UNL     1       8.477  -2.745  10.923  0.00  0.00    +0.000 C 
ATOM      9  C   UNL     1       6.898  -4.185  10.478  0.00  0.00    +0.000 C 
ATOM     10  C   UNL     1       6.429  -5.290  10.000  0.00  0.00    +0.000 C 
BRANCH   6  12
ATOM     11  C   UNL     1       6.857   0.532  10.290  0.00  0.00    +0.000 C 
ATOM     12  C   UNL     1       7.035  -0.652  10.398  0.00  0.00    +0.000 C 
BRANCH  11  14
ATOM     13  O   UNL     1       7.879   2.681  10.427  0.00  0.00    +0.000 OA
ATOM     14  C   UNL     1       6.642   1.963  10.149  0.00  0.00    +0.000 C 
ATOM     15  C   UNL     1       7.429   2.744   9.076  0.00  0.00    +0.000 C 
ATOM     16  C   UNL     1       5.322   2.603  10.704  0.00  0.00    +0.000 C 
ATOM     17  C   UNL     1       6.947   4.042   8.727  0.00  0.00    +0.000 C 
ATOM     18  C   UNL     1       5.239   3.960  10.156  0.00  0.00    +0.000 C 
ATOM     19  C   UNL     1       5.866   4.797   9.214  0.00  0.00    +0.000 C 
ATOM     20  C   UNL     1       8.385   2.081   8.080  0.00  0.00    +0.000 C 
ATOM     21  C   UNL     1       4.167   1.721  10.161  0.00  0.00    +0.000 C 
ATOM     22  C   UNL     1       5.428   2.566  12.244  0.00  0.00    +0.000 C 
BRANCH  19  23
ATOM     23  O   UNL     1       5.148   5.645   8.426  0.00  0.00    +0.000 OA
ATOM     24  H   UNL     1       5.322   5.508   7.478  0.00  0.00    +0.000 HD
ENDBRANCH  19  23
ENDBRANCH  11  14
ENDBRANCH   6  12
ENDBRANCH   1   2
BRANCH   1  25
ATOM     25  C   UNL     1       7.038  -8.974  10.249  0.00  0.00    +0.000 C 
ATOM     26  C   UNL     1       7.516 -10.023  10.581  0.00  0.00    +0.000 C 
BRANCH  26  28
ATOM     27  C   UNL     1       8.608 -12.407  11.346  0.00  0.00    +0.000 C 
ATOM     28  C   UNL     1       8.127 -11.360  11.013  0.00  0.00    +0.000 C 
BRANCH  27  29
ATOM     29  C   UNL     1       9.224 -13.748  11.765  0.00  0.00    +0.000 C 
BRANCH  29  30
ATOM     30  C   UNL     1       9.747 -14.882  12.108  0.00  0.00    +0.000 C 
ATOM     31  C   UNL     1      11.193 -14.965  12.493  0.00  0.00    +0.000 C 
BRANCH  30  33
ATOM     32  C   UNL     1       8.300 -17.065  12.034  0.00  0.00    +0.000 C 
ATOM     33  C   UNL     1       8.963 -16.063  12.067  0.00  0.00    +0.000 C 
BRANCH  32  39
ATOM     34  C   UNL     1       6.289 -18.328  12.839  0.00  0.00    +0.000 C 
ATOM     35  C   UNL     1       7.999 -19.365  11.176  0.00  0.00    +0.000 C 
ATOM     36  C   UNL     1       5.514 -19.496  12.399  0.00  0.00    +0.000 C 
ATOM     37  C   UNL     1       5.627 -20.576  11.500  0.00  0.00    +0.000 C 
ATOM     38  C   UNL     1       6.919 -20.328  10.992  0.00  0.00    +0.000 C 
ATOM     39  C   UNL     1       7.572 -18.164  12.004  0.00  0.00    +0.000 C 
ATOM     40  C   UNL     1       5.397 -17.062  12.658  0.00  0.00    +0.000 C 
ATOM     41  C   UNL     1       6.686 -18.488  14.331  0.00  0.00    +0.000 C 
ATOM     42  C   UNL     1       9.242 -20.030  11.776  0.00  0.00    +0.000 C 
BRANCH  35  43
ATOM     43  O   UNL     1       8.403 -18.926   9.897  0.00  0.00    +0.000 OA
ATOM     44  H   UNL     1       8.199 -17.973   9.948  0.00  0.00    +0.000 HD
ENDBRANCH  35  43
BRANCH  37  45
ATOM     45  O   UNL     1       5.273 -21.850  11.927  0.00  0.00    +0.000 OA
BRANCH  45  47
ATOM     46  O   UNL     1       3.143 -21.988  10.956  0.00  0.00    +0.000 OA
ATOM     47  C   UNL     1       4.292 -22.346  11.135  0.00  0.00    +0.000 C 
ATOM     48  C   UNL     1       4.689 -23.550  10.356  0.00  0.00    +0.000 C 
ENDBRANCH  45  47
ENDBRANCH  37  45
ENDBRANCH  32  39
ENDBRANCH  30  33
ENDBRANCH  29  30
ENDBRANCH  27  29
ENDBRANCH  26  28
ENDBRANCH   1  25
TORSDOF 13
ENDMDL
MODEL 7
REMARK VINA RESULT:      -5.1     23.547     31.252
REMARK  Name = 5289155_Peridinin.pdbqt.pdb
REMARK  13 active torsions:
REMARK  status: ('A' for Active; 'I' for Inactive)
REMARK    1  A    between atoms: C_1  and  C_3
REMARK    2  A    between atoms: C_3  and  C_25
REMARK    3  A    between atoms: C_6  and  C_12
REMARK    4  A    between atoms: C_11  and  C_14
REMARK    5  A    between atoms: C_19  and  O_23
REMARK    6  A    between atoms: C_26  and  C_28
REMARK    7  A    between atoms: C_27  and  C_31
REMARK    8  A    between atoms: C_29  and  C_31
REMARK    9  A    between atoms: C_29  and  C_42
REMARK   10  A    between atoms: C_33  and  O_43
REMARK   11  A    between atoms: C_35  and  O_45
REMARK   12  A    between atoms: C_37  and  C_41
REMARK   13  A    between atoms: O_45  and  C_47
REMARK                            x       y       z     vdW  Elec       q    Type
REMARK                         _______ _______ _______ _____ _____    ______ ____
ROOT
ATOM      1  C   UNL     1      -4.475   8.440  -1.900  0.00  0.00    +0.000 C 
ENDROOT
BRANCH   1   2
ATOM      2  C   UNL     1      -4.428   9.099  -0.785  0.00  0.00    +0.000 C 
ATOM      3  C   UNL     1      -3.588  10.334  -0.675  0.00  0.00    +0.000 C 
ATOM      4  O   UNL     1      -6.230   6.946   1.475  0.00  0.00    +0.000 OA
ATOM      5  O   UNL     1      -6.991   5.828   3.358  0.00  0.00    +0.000 OA
ATOM      6  C   UNL     1      -6.434   8.177   3.437  0.00  0.00    +0.000 C 
ATOM      7  C   UNL     1      -6.011   8.985   2.535  0.00  0.00    +0.000 C 
ATOM      8  C   UNL     1      -6.604   6.845   2.811  0.00  0.00    +0.000 C 
ATOM      9  C   UNL     1      -5.905   8.291   1.333  0.00  0.00    +0.000 C 
ATOM     10  C   UNL     1      -5.199   8.675   0.320  0.00  0.00    +0.000 C 
BRANCH   6  12
ATOM     11  C   UNL     1      -6.851   8.840   5.926  0.00  0.00    +0.000 C 
ATOM     12  C   UNL     1      -6.664   8.536   4.778  0.00  0.00    +0.000 C 
BRANCH  11  14
ATOM     13  O   UNL     1      -8.379   8.730   7.752  0.00  0.00    +0.000 OA
ATOM     14  C   UNL     1      -7.070   9.199   7.318  0.00  0.00    +0.000 C 
ATOM     15  C   UNL     1      -7.267   8.083   8.366  0.00  0.00    +0.000 C 
ATOM     16  C   UNL     1      -6.631  10.617   7.827  0.00  0.00    +0.000 C 
ATOM     17  C   UNL     1      -7.123   8.444   9.740  0.00  0.00    +0.000 C 
ATOM     18  C   UNL     1      -6.682  10.583   9.291  0.00  0.00    +0.000 C 
ATOM     19  C   UNL     1      -6.857   9.679  10.356  0.00  0.00    +0.000 C 
ATOM     20  C   UNL     1      -7.169   6.590   8.038  0.00  0.00    +0.000 C 
ATOM     21  C   UNL     1      -5.172  10.805   7.333  0.00  0.00    +0.000 C 
ATOM     22  C   UNL     1      -7.610  11.633   7.199  0.00  0.00    +0.000 C 
BRANCH  19  23
ATOM     23  O   UNL     1      -6.133   9.786  11.505  0.00  0.00    +0.000 OA
ATOM     24  H   UNL     1      -6.441  10.516  12.071  0.00  0.00    +0.000 HD
ENDBRANCH  19  23
ENDBRANCH  11  14
ENDBRANCH   6  12
ENDBRANCH   1   2
BRANCH   1  25
ATOM     25  C   UNL     1      -4.533   7.661  -3.219  0.00  0.00    +0.000 C 
ATOM     26  C   UNL     1      -4.583   7.052  -4.252  0.00  0.00    +0.000 C 
BRANCH  26  28
ATOM     27  C   UNL     1      -4.716   5.666  -6.602  0.00  0.00    +0.000 C 
ATOM     28  C   UNL     1      -4.655   6.276  -5.571  0.00  0.00    +0.000 C 
BRANCH  27  29
ATOM     29  C   UNL     1      -4.797   4.880  -7.916  0.00  0.00    +0.000 C 
BRANCH  29  30
ATOM     30  C   UNL     1      -4.857   4.222  -9.031  0.00  0.00    +0.000 C 
ATOM     31  C   UNL     1      -4.366   4.843 -10.304  0.00  0.00    +0.000 C 
BRANCH  30  33
ATOM     32  C   UNL     1      -5.936   1.835  -9.085  0.00  0.00    +0.000 C 
ATOM     33  C   UNL     1      -5.441   2.930  -9.058  0.00  0.00    +0.000 C 
BRANCH  32  39
ATOM     34  C   UNL     1      -5.650  -0.646  -8.866  0.00  0.00    +0.000 C 
ATOM     35  C   UNL     1      -7.940   0.436  -9.461  0.00  0.00    +0.000 C 
ATOM     36  C   UNL     1      -6.525  -1.808  -8.652  0.00  0.00    +0.000 C 
ATOM     37  C   UNL     1      -7.895  -2.136  -8.696  0.00  0.00    +0.000 C 
ATOM     38  C   UNL     1      -8.423  -0.894  -9.107  0.00  0.00    +0.000 C 
ATOM     39  C   UNL     1      -6.472   0.632  -9.116  0.00  0.00    +0.000 C 
ATOM     40  C   UNL     1      -4.784  -0.453  -7.584  0.00  0.00    +0.000 C 
ATOM     41  C   UNL     1      -4.733  -0.893 -10.094  0.00  0.00    +0.000 C 
ATOM     42  C   UNL     1      -8.202   0.750 -10.937  0.00  0.00    +0.000 C 
BRANCH  35  43
ATOM     43  O   UNL     1      -8.713   1.375  -8.746  0.00  0.00    +0.000 OA
ATOM     44  H   UNL     1      -9.284   0.790  -8.213  0.00  0.00    +0.000 HD
ENDBRANCH  35  43
BRANCH  37  45
ATOM     45  O   UNL     1      -8.289  -3.310  -9.326  0.00  0.00    +0.000 OA
BRANCH  45  47
ATOM     46  O   UNL     1      -7.333  -5.314  -8.572  0.00  0.00    +0.000 OA
ATOM     47  C   UNL     1      -8.091  -4.365  -8.499  0.00  0.00    +0.000 C 
ATOM     48  C   UNL     1      -8.965  -4.368  -7.294  0.00  0.00    +0.000 C 
ENDBRANCH  45  47
ENDBRANCH  37  45
ENDBRANCH  32  39
ENDBRANCH  30  33
ENDBRANCH  29  30
ENDBRANCH  27  29
ENDBRANCH  26  28
ENDBRANCH   1  25
TORSDOF 13
ENDMDL
MODEL 8
REMARK VINA RESULT:      -5.1     16.589     23.831
REMARK  Name = 5289155_Peridinin.pdbqt.pdb
REMARK  13 active torsions:
REMARK  status: ('A' for Active; 'I' for Inactive)
REMARK    1  A    between atoms: C_1  and  C_3
REMARK    2  A    between atoms: C_3  and  C_25
REMARK    3  A    between atoms: C_6  and  C_12
REMARK    4  A    between atoms: C_11  and  C_14
REMARK    5  A    between atoms: C_19  and  O_23
REMARK    6  A    between atoms: C_26  and  C_28
REMARK    7  A    between atoms: C_27  and  C_31
REMARK    8  A    between atoms: C_29  and  C_31
REMARK    9  A    between atoms: C_29  and  C_42
REMARK   10  A    between atoms: C_33  and  O_43
REMARK   11  A    between atoms: C_35  and  O_45
REMARK   12  A    between atoms: C_37  and  C_41
REMARK   13  A    between atoms: O_45  and  C_47
REMARK                            x       y       z     vdW  Elec       q    Type
REMARK                         _______ _______ _______ _____ _____    ______ ____
ROOT
ATOM      1  C   UNL     1      -9.111  -3.660  27.316  0.00  0.00    +0.000 C 
ENDROOT
BRANCH   1   2
ATOM      2  C   UNL     1      -8.758  -4.854  27.676  0.00  0.00    +0.000 C 
ATOM      3  C   UNL     1      -7.325  -5.153  27.989  0.00  0.00    +0.000 C 
ATOM      4  O   UNL     1     -11.782  -6.751  27.175  0.00  0.00    +0.000 OA
ATOM      5  O   UNL     1     -13.305  -8.444  26.741  0.00  0.00    +0.000 OA
ATOM      6  C   UNL     1     -11.321  -8.853  28.058  0.00  0.00    +0.000 C 
ATOM      7  C   UNL     1     -10.365  -8.080  28.424  0.00  0.00    +0.000 C 
ATOM      8  C   UNL     1     -12.274  -8.050  27.256  0.00  0.00    +0.000 C 
ATOM      9  C   UNL     1     -10.620  -6.800  27.939  0.00  0.00    +0.000 C 
ATOM     10  C   UNL     1      -9.732  -5.869  27.812  0.00  0.00    +0.000 C 
BRANCH   6  12
ATOM     11  C   UNL     1     -11.474 -11.391  28.642  0.00  0.00    +0.000 C 
ATOM     12  C   UNL     1     -11.398 -10.222  28.374  0.00  0.00    +0.000 C 
BRANCH  11  14
ATOM     13  O   UNL     1     -12.947 -13.130  29.341  0.00  0.00    +0.000 OA
ATOM     14  C   UNL     1     -11.576 -12.804  28.970  0.00  0.00    +0.000 C 
ATOM     15  C   UNL     1     -12.492 -13.713  28.123  0.00  0.00    +0.000 C 
ATOM     16  C   UNL     1     -10.443 -13.484  29.815  0.00  0.00    +0.000 C 
ATOM     17  C   UNL     1     -12.300 -15.123  28.238  0.00  0.00    +0.000 C 
ATOM     18  C   UNL     1     -10.648 -14.932  29.723  0.00  0.00    +0.000 C 
ATOM     19  C   UNL     1     -11.423 -15.883  29.031  0.00  0.00    +0.000 C 
ATOM     20  C   UNL     1     -13.255 -13.227  26.887  0.00  0.00    +0.000 C 
ATOM     21  C   UNL     1      -9.110 -13.074  29.134  0.00  0.00    +0.000 C 
ATOM     22  C   UNL     1     -10.573 -12.933  31.252  0.00  0.00    +0.000 C 
BRANCH  19  23
ATOM     23  O   UNL     1     -10.891 -17.065  28.614  0.00  0.00    +0.000 OA
ATOM     24  H   UNL     1     -11.575 -17.729  28.411  0.00  0.00    +0.000 HD
ENDBRANCH  19  23
ENDBRANCH  11  14
ENDBRANCH   6  12
ENDBRANCH   1   2
BRANCH   1  25
ATOM     25  C   UNL     1      -9.529  -2.248  26.891  0.00  0.00    +0.000 C 
ATOM     26  C   UNL     1      -9.850  -1.141  26.558  0.00  0.00    +0.000 C 
BRANCH  26  28
ATOM     27  C   UNL     1     -10.567   1.382  25.794  0.00  0.00    +0.000 C 
ATOM     28  C   UNL     1     -10.252   0.275  26.133  0.00  0.00    +0.000 C 
BRANCH  27  29
ATOM     29  C   UNL     1     -10.965   2.797  25.355  0.00  0.00    +0.000 C 
BRANCH  29  30
ATOM     30  C   UNL     1     -11.310   3.991  24.991  0.00  0.00    +0.000 C 
ATOM     31  C   UNL     1     -11.225   5.132  25.959  0.00  0.00    +0.000 C 
BRANCH  30  33
ATOM     32  C   UNL     1     -12.261   4.397  22.583  0.00  0.00    +0.000 C 
ATOM     33  C   UNL     1     -11.823   4.211  23.687  0.00  0.00    +0.000 C 
BRANCH  32  39
ATOM     34  C   UNL     1     -11.855   5.023  20.190  0.00  0.00    +0.000 C 
ATOM     35  C   UNL     1     -14.235   4.494  21.097  0.00  0.00    +0.000 C 
ATOM     36  C   UNL     1     -12.571   4.888  18.914  0.00  0.00    +0.000 C 
ATOM     37  C   UNL     1     -13.863   4.578  18.441  0.00  0.00    +0.000 C 
ATOM     38  C   UNL     1     -14.532   4.410  19.671  0.00  0.00    +0.000 C 
ATOM     39  C   UNL     1     -12.745   4.604  21.375  0.00  0.00    +0.000 C 
ATOM     40  C   UNL     1     -10.602   4.096  20.139  0.00  0.00    +0.000 C 
ATOM     41  C   UNL     1     -11.416   6.497  20.397  0.00  0.00    +0.000 C 
ATOM     42  C   UNL     1     -15.002   5.643  21.759  0.00  0.00    +0.000 C 
BRANCH  35  43
ATOM     43  O   UNL     1     -14.735   3.324  21.707  0.00  0.00    +0.000 OA
ATOM     44  H   UNL     1     -15.136   2.866  20.945  0.00  0.00    +0.000 HD
ENDBRANCH  35  43
BRANCH  37  45
ATOM     45  O   UNL     1     -14.421   5.361  17.439  0.00  0.00    +0.000 OA
BRANCH  45  47
ATOM     46  O   UNL     1     -13.870   4.119  15.527  0.00  0.00    +0.000 OA
ATOM     47  C   UNL     1     -14.639   4.608  16.333  0.00  0.00    +0.000 C 
ATOM     48  C   UNL     1     -16.076   4.343  16.050  0.00  0.00    +0.000 C 
ENDBRANCH  45  47
ENDBRANCH  37  45
ENDBRANCH  32  39
ENDBRANCH  30  33
ENDBRANCH  29  30
ENDBRANCH  27  29
ENDBRANCH  26  28
ENDBRANCH   1  25
TORSDOF 13
ENDMDL
MODEL 9
REMARK VINA RESULT:      -5.1      8.376     16.367
REMARK  Name = 5289155_Peridinin.pdbqt.pdb
REMARK  13 active torsions:
REMARK  status: ('A' for Active; 'I' for Inactive)
REMARK    1  A    between atoms: C_1  and  C_3
REMARK    2  A    between atoms: C_3  and  C_25
REMARK    3  A    between atoms: C_6  and  C_12
REMARK    4  A    between atoms: C_11  and  C_14
REMARK    5  A    between atoms: C_19  and  O_23
REMARK    6  A    between atoms: C_26  and  C_28
REMARK    7  A    between atoms: C_27  and  C_31
REMARK    8  A    between atoms: C_29  and  C_31
REMARK    9  A    between atoms: C_29  and  C_42
REMARK   10  A    between atoms: C_33  and  O_43
REMARK   11  A    between atoms: C_35  and  O_45
REMARK   12  A    between atoms: C_37  and  C_41
REMARK   13  A    between atoms: O_45  and  C_47
REMARK                            x       y       z     vdW  Elec       q    Type
REMARK                         _______ _______ _______ _____ _____    ______ ____
ROOT
ATOM      1  C   UNL     1      -6.583 -22.468   8.638  0.00  0.00    +0.000 C 
ENDROOT
BRANCH   1   2
ATOM      2  C   UNL     1      -7.835 -22.302   8.931  0.00  0.00    +0.000 C 
ATOM      3  C   UNL     1      -8.766 -23.475   8.949  0.00  0.00    +0.000 C 
ATOM      4  O   UNL     1      -8.137 -18.713   9.072  0.00  0.00    +0.000 OA
ATOM      5  O   UNL     1      -8.932 -16.538   8.973  0.00  0.00    +0.000 OA
ATOM      6  C   UNL     1     -10.290 -18.327   9.864  0.00  0.00    +0.000 C 
ATOM      7  C   UNL     1     -10.057 -19.579  10.020  0.00  0.00    +0.000 C 
ATOM      8  C   UNL     1      -9.083 -17.711   9.264  0.00  0.00    +0.000 C 
ATOM      9  C   UNL     1      -8.762 -19.846   9.585  0.00  0.00    +0.000 C 
ATOM     10  C   UNL     1      -8.317 -21.019   9.271  0.00  0.00    +0.000 C 
BRANCH   6  12
ATOM     11  C   UNL     1     -12.539 -17.166  10.499  0.00  0.00    +0.000 C 
ATOM     12  C   UNL     1     -11.502 -17.698  10.202  0.00  0.00    +0.000 C 
BRANCH  11  14
ATOM     13  O   UNL     1     -14.474 -17.325  11.880  0.00  0.00    +0.000 OA
ATOM     14  C   UNL     1     -13.794 -16.531  10.865  0.00  0.00    +0.000 C 
ATOM     15  C   UNL     1     -14.005 -16.052  12.317  0.00  0.00    +0.000 C 
ATOM     16  C   UNL     1     -14.698 -15.907   9.745  0.00  0.00    +0.000 C 
ATOM     17  C   UNL     1     -15.073 -15.134  12.554  0.00  0.00    +0.000 C 
ATOM     18  C   UNL     1     -15.709 -15.086  10.418  0.00  0.00    +0.000 C 
ATOM     19  C   UNL     1     -16.035 -14.582  11.691  0.00  0.00    +0.000 C 
ATOM     20  C   UNL     1     -12.924 -16.134  13.399  0.00  0.00    +0.000 C 
ATOM     21  C   UNL     1     -13.753 -15.021   8.890  0.00  0.00    +0.000 C 
ATOM     22  C   UNL     1     -15.293 -17.088   8.948  0.00  0.00    +0.000 C 
BRANCH  19  23
ATOM     23  O   UNL     1     -16.531 -13.323  11.852  0.00  0.00    +0.000 OA
ATOM     24  H   UNL     1     -17.436 -13.233  11.502  0.00  0.00    +0.000 HD
ENDBRANCH  19  23
ENDBRANCH  11  14
ENDBRANCH   6  12
ENDBRANCH   1   2
BRANCH   1  25
ATOM     25  C   UNL     1      -5.103 -22.666   8.292  0.00  0.00    +0.000 C 
ATOM     26  C   UNL     1      -3.943 -22.815   8.023  0.00  0.00    +0.000 C 
BRANCH  26  28
ATOM     27  C   UNL     1      -1.302 -23.146   7.412  0.00  0.00    +0.000 C 
ATOM     28  C   UNL     1      -2.461 -22.999   7.683  0.00  0.00    +0.000 C 
BRANCH  27  29
ATOM     29  C   UNL     1       0.179 -23.341   7.062  0.00  0.00    +0.000 C 
BRANCH  29  30
ATOM     30  C   UNL     1       1.432 -23.507   6.778  0.00  0.00    +0.000 C 
ATOM     31  C   UNL     1       2.179 -24.693   7.308  0.00  0.00    +0.000 C 
BRANCH  30  33
ATOM     32  C   UNL     1       2.693 -21.706   5.352  0.00  0.00    +0.000 C 
ATOM     33  C   UNL     1       2.116 -22.533   6.006  0.00  0.00    +0.000 C 
BRANCH  32  39
ATOM     34  C   UNL     1       3.999 -19.568   5.279  0.00  0.00    +0.000 C 
ATOM     35  C   UNL     1       3.378 -20.882   3.122  0.00  0.00    +0.000 C 
ATOM     36  C   UNL     1       4.883 -18.887   4.324  0.00  0.00    +0.000 C 
ATOM     37  C   UNL     1       5.240 -18.958   2.962  0.00  0.00    +0.000 C 
ATOM     38  C   UNL     1       4.394 -20.008   2.549  0.00  0.00    +0.000 C 
ATOM     39  C   UNL     1       3.327 -20.796   4.640  0.00  0.00    +0.000 C 
ATOM     40  C   UNL     1       4.865 -20.032   6.490  0.00  0.00    +0.000 C 
ATOM     41  C   UNL     1       2.892 -18.593   5.763  0.00  0.00    +0.000 C 
ATOM     42  C   UNL     1       2.000 -20.612   2.511  0.00  0.00    +0.000 C 
BRANCH  35  43
ATOM     43  O   UNL     1       3.691 -22.205   2.745  0.00  0.00    +0.000 OA
ATOM     44  H   UNL     1       3.776 -22.639   3.614  0.00  0.00    +0.000 HD
ENDBRANCH  35  43
BRANCH  37  45
ATOM     45  O   UNL     1       5.317 -17.785   2.222  0.00  0.00    +0.000 OA
BRANCH  45  47
ATOM     46  O   UNL     1       6.102 -17.864   0.013  0.00  0.00    +0.000 OA
ATOM     47  C   UNL     1       6.222 -17.928   1.222  0.00  0.00    +0.000 C 
ATOM     48  C   UNL     1       7.602 -18.230   1.688  0.00  0.00    +0.000 C 
ENDBRANCH  45  47
ENDBRANCH  37  45
ENDBRANCH  32  39
ENDBRANCH  30  33
ENDBRANCH  29  30
ENDBRANCH  27  29
ENDBRANCH  26  28
ENDBRANCH   1  25
TORSDOF 13
ENDMDL
