MODEL 1
REMARK VINA RESULT:      -6.2      0.000      0.000
REMARK  Name = 5318517_Andrographolide.pdbqt.pdb
REMARK  6 active torsions:
REMARK  status: ('A' for Active; 'I' for Inactive)
REMARK    1  A    between atoms: C_3  and  C_16
REMARK    2  A    between atoms: C_4  and  C_19
REMARK    3  A    between atoms: C_6  and  O_14
REMARK    4  A    between atoms: C_16  and  O_17
REMARK    5  A    between atoms: C_22  and  C_23
REMARK    6  A    between atoms: C_24  and  O_27
REMARK                            x       y       z     vdW  Elec       q    Type
REMARK                         _______ _______ _______ _____ _____    ______ ____
ROOT
ATOM      1  C   UNL     1       6.539 -11.528  12.450  0.00  0.00    +0.000 C 
ATOM      2  C   UNL     1       6.471 -13.081  12.565  0.00  0.00    +0.000 C 
ATOM      3  C   UNL     1       7.725 -13.972  12.505  0.00  0.00    +0.000 C 
ATOM      4  C   UNL     1       5.299 -10.813  11.843  0.00  0.00    +0.000 C 
ATOM      5  C   UNL     1       7.716 -11.271  11.626  0.00  0.00    +0.000 C 
ATOM      6  C   UNL     1       8.970 -13.397  11.763  0.00  0.00    +0.000 C 
ATOM      7  C   UNL     1       5.145 -13.588  12.681  0.00  0.00    +0.000 C 
ATOM      8  C   UNL     1       8.908 -12.087  11.256  0.00  0.00    +0.000 C 
ATOM      9  C   UNL     1       6.746 -10.969  13.891  0.00  0.00    +0.000 C 
ATOM     10  C   UNL     1       3.936 -12.753  12.407  0.00  0.00    +0.000 C 
ATOM     11  C   UNL     1       3.962 -11.405  11.994  0.00  0.00    +0.000 C 
ATOM     12  C   UNL     1       7.344 -15.286  11.733  0.00  0.00    +0.000 C 
ATOM     13  C   UNL     1       2.823 -10.862  11.558  0.00  0.00    +0.000 C 
ENDROOT
BRANCH   6  14
ATOM     14  O   UNL     1      10.177 -14.073  11.777  0.00  0.00    +0.000 OA
ATOM     15  H   UNL     1      10.421 -14.412  10.897  0.00  0.00    +0.000 HD
ENDBRANCH   6  14
BRANCH   4  16
ATOM     16  C   UNL     1       5.434  -9.514  11.247  0.00  0.00    +0.000 C 
ATOM     17  C   UNL     1       5.569  -8.130  10.603  0.00  0.00    +0.000 C 
BRANCH  17  20
ATOM     18  O   UNL     1       6.339  -4.740   9.828  0.00  0.00    +0.000 OA
ATOM     19  O   UNL     1       6.662  -5.701  11.929  0.00  0.00    +0.000 OA
ATOM     20  C   UNL     1       5.675  -6.957  10.064  0.00  0.00    +0.000 C 
ATOM     21  C   UNL     1       5.352  -6.577   8.711  0.00  0.00    +0.000 C 
ATOM     22  C   UNL     1       6.287  -5.764  10.771  0.00  0.00    +0.000 C 
ATOM     23  C   UNL     1       5.819  -5.261   8.726  0.00  0.00    +0.000 C 
BRANCH  21  24
ATOM     24  O   UNL     1       5.546  -7.456   7.684  0.00  0.00    +0.000 OA
ATOM     25  H   UNL     1       4.903  -8.186   7.706  0.00  0.00    +0.000 HD
ENDBRANCH  21  24
ENDBRANCH  17  20
ENDBRANCH   4  16
BRANCH   3  26
ATOM     26  C   UNL     1       8.118 -14.293  13.907  0.00  0.00    +0.000 C 
BRANCH  26  27
ATOM     27  O   UNL     1       8.481 -14.583  15.159  0.00  0.00    +0.000 OA
ATOM     28  H   UNL     1       9.436 -14.772  15.205  0.00  0.00    +0.000 HD
ENDBRANCH  26  27
ENDBRANCH   3  26
TORSDOF 6
ENDMDL
MODEL 2
REMARK VINA RESULT:      -6.1      2.485      7.657
REMARK  Name = 5318517_Andrographolide.pdbqt.pdb
REMARK  6 active torsions:
REMARK  status: ('A' for Active; 'I' for Inactive)
REMARK    1  A    between atoms: C_3  and  C_16
REMARK    2  A    between atoms: C_4  and  C_19
REMARK    3  A    between atoms: C_6  and  O_14
REMARK    4  A    between atoms: C_16  and  O_17
REMARK    5  A    between atoms: C_22  and  C_23
REMARK    6  A    between atoms: C_24  and  O_27
REMARK                            x       y       z     vdW  Elec       q    Type
REMARK                         _______ _______ _______ _____ _____    ______ ____
ROOT
ATOM      1  C   UNL     1       6.445  -8.008  11.393  0.00  0.00    +0.000 C 
ATOM      2  C   UNL     1       7.272  -6.820  10.815  0.00  0.00    +0.000 C 
ATOM      3  C   UNL     1       6.687  -5.819   9.802  0.00  0.00    +0.000 C 
ATOM      4  C   UNL     1       7.237  -9.281  11.807  0.00  0.00    +0.000 C 
ATOM      5  C   UNL     1       5.487  -8.336  10.342  0.00  0.00    +0.000 C 
ATOM      6  C   UNL     1       5.495  -6.309   8.926  0.00  0.00    +0.000 C 
ATOM      7  C   UNL     1       8.619  -6.784  11.275  0.00  0.00    +0.000 C 
ATOM      8  C   UNL     1       4.976  -7.597   9.152  0.00  0.00    +0.000 C 
ATOM      9  C   UNL     1       5.707  -7.480  12.661  0.00  0.00    +0.000 C 
ATOM     10  C   UNL     1       9.260  -7.933  11.985  0.00  0.00    +0.000 C 
ATOM     11  C   UNL     1       8.630  -9.165  12.261  0.00  0.00    +0.000 C 
ATOM     12  C   UNL     1       7.827  -5.440   8.788  0.00  0.00    +0.000 C 
ATOM     13  C   UNL     1       9.392 -10.175  12.683  0.00  0.00    +0.000 C 
ENDROOT
BRANCH   6  14
ATOM     14  O   UNL     1       4.825  -5.435   8.088  0.00  0.00    +0.000 OA
ATOM     15  H   UNL     1       3.906  -5.710   7.926  0.00  0.00    +0.000 HD
ENDBRANCH   6  14
BRANCH   4  16
ATOM     16  C   UNL     1       6.576 -10.554  11.870  0.00  0.00    +0.000 C 
ATOM     17  C   UNL     1       5.876 -11.914  11.948  0.00  0.00    +0.000 C 
BRANCH  17  20
ATOM     18  O   UNL     1       3.529 -14.571  12.288  0.00  0.00    +0.000 OA
ATOM     19  O   UNL     1       3.097 -12.364  12.909  0.00  0.00    +0.000 OA
ATOM     20  C   UNL     1       5.277 -13.061  12.020  0.00  0.00    +0.000 C 
ATOM     21  C   UNL     1       5.782 -14.346  11.607  0.00  0.00    +0.000 C 
ATOM     22  C   UNL     1       3.839 -13.226  12.472  0.00  0.00    +0.000 C 
ATOM     23  C   UNL     1       4.635 -15.116  11.805  0.00  0.00    +0.000 C 
BRANCH  21  24
ATOM     24  O   UNL     1       6.604 -14.446  10.521  0.00  0.00    +0.000 OA
ATOM     25  H   UNL     1       6.423 -13.750   9.865  0.00  0.00    +0.000 HD
ENDBRANCH  21  24
ENDBRANCH  17  20
ENDBRANCH   4  16
BRANCH   3  26
ATOM     26  C   UNL     1       6.251  -4.612  10.561  0.00  0.00    +0.000 C 
BRANCH  26  27
ATOM     27  O   UNL     1       5.866  -3.523  11.232  0.00  0.00    +0.000 OA
ATOM     28  H   UNL     1       5.340  -3.771  12.014  0.00  0.00    +0.000 HD
ENDBRANCH  26  27
ENDBRANCH   3  26
TORSDOF 6
ENDMDL
MODEL 3
REMARK VINA RESULT:      -5.8      1.907      3.411
REMARK  Name = 5318517_Andrographolide.pdbqt.pdb
REMARK  6 active torsions:
REMARK  status: ('A' for Active; 'I' for Inactive)
REMARK    1  A    between atoms: C_3  and  C_16
REMARK    2  A    between atoms: C_4  and  C_19
REMARK    3  A    between atoms: C_6  and  O_14
REMARK    4  A    between atoms: C_16  and  O_17
REMARK    5  A    between atoms: C_22  and  C_23
REMARK    6  A    between atoms: C_24  and  O_27
REMARK                            x       y       z     vdW  Elec       q    Type
REMARK                         _______ _______ _______ _____ _____    ______ ____
ROOT
ATOM      1  C   UNL     1       6.253 -11.482  12.077  0.00  0.00    +0.000 C 
ATOM      2  C   UNL     1       6.337 -12.512  13.244  0.00  0.00    +0.000 C 
ATOM      3  C   UNL     1       5.231 -13.547  13.517  0.00  0.00    +0.000 C 
ATOM      4  C   UNL     1       6.983 -10.125  12.283  0.00  0.00    +0.000 C 
ATOM      5  C   UNL     1       4.823 -11.256  11.888  0.00  0.00    +0.000 C 
ATOM      6  C   UNL     1       3.796 -13.201  13.016  0.00  0.00    +0.000 C 
ATOM      7  C   UNL     1       7.503 -12.368  14.049  0.00  0.00    +0.000 C 
ATOM      8  C   UNL     1       3.603 -12.013  12.288  0.00  0.00    +0.000 C 
ATOM      9  C   UNL     1       6.871 -12.163  10.818  0.00  0.00    +0.000 C 
ATOM     10  C   UNL     1       8.390 -11.167  13.978  0.00  0.00    +0.000 C 
ATOM     11  C   UNL     1       8.175 -10.053  13.140  0.00  0.00    +0.000 C 
ATOM     12  C   UNL     1       5.103 -13.713  15.075  0.00  0.00    +0.000 C 
ATOM     13  C   UNL     1       8.909  -8.960  13.353  0.00  0.00    +0.000 C 
ENDROOT
BRANCH   6  14
ATOM     14  O   UNL     1       2.773 -14.130  13.101  0.00  0.00    +0.000 OA
ATOM     15  H   UNL     1       1.958 -13.748  13.472  0.00  0.00    +0.000 HD
ENDBRANCH   6  14
BRANCH   4  16
ATOM     16  C   UNL     1       6.576  -8.965  11.540  0.00  0.00    +0.000 C 
ATOM     17  C   UNL     1       6.146  -7.734  10.737  0.00  0.00    +0.000 C 
BRANCH  17  20
ATOM     18  O   UNL     1       5.566  -4.454   9.476  0.00  0.00    +0.000 OA
ATOM     19  O   UNL     1       6.389  -4.901  11.613  0.00  0.00    +0.000 OA
ATOM     20  C   UNL     1       5.774  -6.697  10.055  0.00  0.00    +0.000 C 
ATOM     21  C   UNL     1       5.224  -6.669   8.723  0.00  0.00    +0.000 C 
ATOM     22  C   UNL     1       5.968  -5.270  10.530  0.00  0.00    +0.000 C 
ATOM     23  C   UNL     1       5.182  -5.288   8.522  0.00  0.00    +0.000 C 
BRANCH  21  24
ATOM     24  O   UNL     1       5.638  -7.575   7.788  0.00  0.00    +0.000 OA
ATOM     25  H   UNL     1       6.234  -8.243   8.171  0.00  0.00    +0.000 HD
ENDBRANCH  21  24
ENDBRANCH  17  20
ENDBRANCH   4  16
BRANCH   3  26
ATOM     26  C   UNL     1       5.652 -14.833  12.895  0.00  0.00    +0.000 C 
BRANCH  26  27
ATOM     27  O   UNL     1       6.025 -15.983  12.326  0.00  0.00    +0.000 OA
ATOM     28  H   UNL     1       6.130 -15.872  11.363  0.00  0.00    +0.000 HD
ENDBRANCH  26  27
ENDBRANCH   3  26
TORSDOF 6
ENDMDL
MODEL 4
REMARK VINA RESULT:      -5.8     17.512     21.293
REMARK  Name = 5318517_Andrographolide.pdbqt.pdb
REMARK  6 active torsions:
REMARK  status: ('A' for Active; 'I' for Inactive)
REMARK    1  A    between atoms: C_3  and  C_16
REMARK    2  A    between atoms: C_4  and  C_19
REMARK    3  A    between atoms: C_6  and  O_14
REMARK    4  A    between atoms: C_16  and  O_17
REMARK    5  A    between atoms: C_22  and  C_23
REMARK    6  A    between atoms: C_24  and  O_27
REMARK                            x       y       z     vdW  Elec       q    Type
REMARK                         _______ _______ _______ _____ _____    ______ ____
ROOT
ATOM      1  C   UNL     1     -12.160  -8.530   3.346  0.00  0.00    +0.000 C 
ATOM      2  C   UNL     1     -13.356  -7.672   2.832  0.00  0.00    +0.000 C 
ATOM      3  C   UNL     1     -14.548  -7.292   3.728  0.00  0.00    +0.000 C 
ATOM      4  C   UNL     1     -11.421  -9.408   2.297  0.00  0.00    +0.000 C 
ATOM      5  C   UNL     1     -12.735  -9.376   4.388  0.00  0.00    +0.000 C 
ATOM      6  C   UNL     1     -14.849  -8.221   4.943  0.00  0.00    +0.000 C 
ATOM      7  C   UNL     1     -13.257  -7.323   1.455  0.00  0.00    +0.000 C 
ATOM      8  C   UNL     1     -13.986  -9.303   5.195  0.00  0.00    +0.000 C 
ATOM      9  C   UNL     1     -11.116  -7.545   3.955  0.00  0.00    +0.000 C 
ATOM     10  C   UNL     1     -12.279  -7.968   0.527  0.00  0.00    +0.000 C 
ATOM     11  C   UNL     1     -11.373  -8.986   0.889  0.00  0.00    +0.000 C 
ATOM     12  C   UNL     1     -15.845  -7.325   2.841  0.00  0.00    +0.000 C 
ATOM     13  C   UNL     1     -10.732  -9.630  -0.088  0.00  0.00    +0.000 C 
ENDROOT
BRANCH   6  14
ATOM     14  O   UNL     1     -15.816  -7.880   5.873  0.00  0.00    +0.000 OA
ATOM     15  H   UNL     1     -16.214  -7.011   5.689  0.00  0.00    +0.000 HD
ENDBRANCH   6  14
BRANCH   4  16
ATOM     16  C   UNL     1     -10.677 -10.562   2.715  0.00  0.00    +0.000 C 
ATOM     17  C   UNL     1      -9.889 -11.800   3.154  0.00  0.00    +0.000 C 
BRANCH  17  20
ATOM     18  O   UNL     1      -8.054 -14.849   3.300  0.00  0.00    +0.000 OA
ATOM     19  O   UNL     1      -9.263 -14.145   1.433  0.00  0.00    +0.000 OA
ATOM     20  C   UNL     1      -9.218 -12.847   3.518  0.00  0.00    +0.000 C 
ATOM     21  C   UNL     1      -8.583 -13.090   4.789  0.00  0.00    +0.000 C 
ATOM     22  C   UNL     1      -8.885 -13.993   2.582  0.00  0.00    +0.000 C 
ATOM     23  C   UNL     1      -7.927 -14.286   4.492  0.00  0.00    +0.000 C 
BRANCH  21  24
ATOM     24  O   UNL     1      -8.030 -12.057   5.491  0.00  0.00    +0.000 OA
ATOM     25  H   UNL     1      -8.143 -12.170   6.451  0.00  0.00    +0.000 HD
ENDBRANCH  21  24
ENDBRANCH  17  20
ENDBRANCH   4  16
BRANCH   3  26
ATOM     26  C   UNL     1     -14.307  -5.912   4.237  0.00  0.00    +0.000 C 
BRANCH  26  27
ATOM     27  O   UNL     1     -14.103  -4.671   4.689  0.00  0.00    +0.000 OA
ATOM     28  H   UNL     1     -13.445  -4.209   4.138  0.00  0.00    +0.000 HD
ENDBRANCH  26  27
ENDBRANCH   3  26
TORSDOF 6
ENDMDL
MODEL 5
REMARK VINA RESULT:      -5.4     22.874     25.007
REMARK  Name = 5318517_Andrographolide.pdbqt.pdb
REMARK  6 active torsions:
REMARK  status: ('A' for Active; 'I' for Inactive)
REMARK    1  A    between atoms: C_3  and  C_16
REMARK    2  A    between atoms: C_4  and  C_19
REMARK    3  A    between atoms: C_6  and  O_14
REMARK    4  A    between atoms: C_16  and  O_17
REMARK    5  A    between atoms: C_22  and  C_23
REMARK    6  A    between atoms: C_24  and  O_27
REMARK                            x       y       z     vdW  Elec       q    Type
REMARK                         _______ _______ _______ _____ _____    ______ ____
ROOT
ATOM      1  C   UNL     1     -10.441  -6.741  27.838  0.00  0.00    +0.000 C 
ATOM      2  C   UNL     1      -9.263  -7.241  26.948  0.00  0.00    +0.000 C 
ATOM      3  C   UNL     1      -7.939  -6.468  26.817  0.00  0.00    +0.000 C 
ATOM      4  C   UNL     1     -11.877  -7.145  27.398  0.00  0.00    +0.000 C 
ATOM      5  C   UNL     1     -10.311  -5.287  27.840  0.00  0.00    +0.000 C 
ATOM      6  C   UNL     1      -7.980  -4.935  27.093  0.00  0.00    +0.000 C 
ATOM      7  C   UNL     1      -9.553  -8.443  26.242  0.00  0.00    +0.000 C 
ATOM      8  C   UNL     1      -9.193  -4.357  27.512  0.00  0.00    +0.000 C 
ATOM      9  C   UNL     1     -10.210  -7.312  29.271  0.00  0.00    +0.000 C 
ATOM     10  C   UNL     1     -10.937  -8.995  26.120  0.00  0.00    +0.000 C 
ATOM     11  C   UNL     1     -12.094  -8.398  26.660  0.00  0.00    +0.000 C 
ATOM     12  C   UNL     1      -7.443  -6.615  25.333  0.00  0.00    +0.000 C 
ATOM     13  C   UNL     1     -13.280  -8.870  26.272  0.00  0.00    +0.000 C 
ENDROOT
BRANCH   6  14
ATOM     14  O   UNL     1      -6.815  -4.190  27.128  0.00  0.00    +0.000 OA
ATOM     15  H   UNL     1      -6.962  -3.289  27.466  0.00  0.00    +0.000 HD
ENDBRANCH   6  14
BRANCH   4  16
ATOM     16  C   UNL     1     -13.008  -6.366  27.818  0.00  0.00    +0.000 C 
ATOM     17  C   UNL     1     -14.209  -5.527  28.262  0.00  0.00    +0.000 C 
BRANCH  17  20
ATOM     18  O   UNL     1     -16.588  -2.940  28.844  0.00  0.00    +0.000 OA
ATOM     19  O   UNL     1     -14.423  -2.566  28.060  0.00  0.00    +0.000 OA
ATOM     20  C   UNL     1     -15.229  -4.815  28.628  0.00  0.00    +0.000 C 
ATOM     21  C   UNL     1     -16.487  -5.283  29.151  0.00  0.00    +0.000 C 
ATOM     22  C   UNL     1     -15.303  -3.311  28.456  0.00  0.00    +0.000 C 
ATOM     23  C   UNL     1     -17.178  -4.071  29.202  0.00  0.00    +0.000 C 
BRANCH  21  24
ATOM     24  O   UNL     1     -17.021  -6.461  28.711  0.00  0.00    +0.000 OA
ATOM     25  H   UNL     1     -17.115  -7.108  29.432  0.00  0.00    +0.000 HD
ENDBRANCH  21  24
ENDBRANCH  17  20
ENDBRANCH   4  16
BRANCH   3  26
ATOM     26  C   UNL     1      -6.959  -7.091  27.751  0.00  0.00    +0.000 C 
BRANCH  26  27
ATOM     27  O   UNL     1      -6.088  -7.648  28.598  0.00  0.00    +0.000 OA
ATOM     28  H   UNL     1      -5.449  -8.204  28.116  0.00  0.00    +0.000 HD
ENDBRANCH  26  27
ENDBRANCH   3  26
TORSDOF 6
ENDMDL
MODEL 6
REMARK VINA RESULT:      -5.3      2.418      4.235
REMARK  Name = 5318517_Andrographolide.pdbqt.pdb
REMARK  6 active torsions:
REMARK  status: ('A' for Active; 'I' for Inactive)
REMARK    1  A    between atoms: C_3  and  C_16
REMARK    2  A    between atoms: C_4  and  C_19
REMARK    3  A    between atoms: C_6  and  O_14
REMARK    4  A    between atoms: C_16  and  O_17
REMARK    5  A    between atoms: C_22  and  C_23
REMARK    6  A    between atoms: C_24  and  O_27
REMARK                            x       y       z     vdW  Elec       q    Type
REMARK                         _______ _______ _______ _____ _____    ______ ____
ROOT
ATOM      1  C   UNL     1       6.516  -9.958  11.632  0.00  0.00    +0.000 C 
ATOM      2  C   UNL     1       6.404 -11.145  12.636  0.00  0.00    +0.000 C 
ATOM      3  C   UNL     1       5.175 -12.070  12.689  0.00  0.00    +0.000 C 
ATOM      4  C   UNL     1       7.371  -8.738  12.078  0.00  0.00    +0.000 C 
ATOM      5  C   UNL     1       5.137  -9.540  11.398  0.00  0.00    +0.000 C 
ATOM      6  C   UNL     1       3.826 -11.492  12.165  0.00  0.00    +0.000 C 
ATOM      7  C   UNL     1       7.516 -11.254  13.517  0.00  0.00    +0.000 C 
ATOM      8  C   UNL     1       3.816 -10.198  11.612  0.00  0.00    +0.000 C 
ATOM      9  C   UNL     1       7.147 -10.521  10.322  0.00  0.00    +0.000 C 
ATOM     10  C   UNL     1       8.531 -10.167  13.676  0.00  0.00    +0.000 C 
ATOM     11  C   UNL     1       8.499  -8.929  13.002  0.00  0.00    +0.000 C 
ATOM     12  C   UNL     1       4.917 -12.439  14.195  0.00  0.00    +0.000 C 
ATOM     13  C   UNL     1       9.328  -7.970  13.417  0.00  0.00    +0.000 C 
ENDROOT
BRANCH   6  14
ATOM     14  O   UNL     1       2.706 -12.297  12.053  0.00  0.00    +0.000 OA
ATOM     15  H   UNL     1       2.354 -12.561  12.921  0.00  0.00    +0.000 HD
ENDBRANCH   6  14
BRANCH   4  16
ATOM     16  C   UNL     1       7.147  -7.445  11.494  0.00  0.00    +0.000 C 
ATOM     17  C   UNL     1       6.905  -6.072  10.861  0.00  0.00    +0.000 C 
BRANCH  17  20
ATOM     18  O   UNL     1       5.660  -3.301   9.002  0.00  0.00    +0.000 OA
ATOM     19  O   UNL     1       5.048  -5.516   8.604  0.00  0.00    +0.000 OA
ATOM     20  C   UNL     1       6.691  -4.911  10.326  0.00  0.00    +0.000 C 
ATOM     21  C   UNL     1       7.244  -3.641  10.726  0.00  0.00    +0.000 C 
ATOM     22  C   UNL     1       5.694  -4.677   9.208  0.00  0.00    +0.000 C 
ATOM     23  C   UNL     1       6.525  -2.801   9.872  0.00  0.00    +0.000 C 
BRANCH  21  24
ATOM     24  O   UNL     1       7.487  -3.380  12.044  0.00  0.00    +0.000 OA
ATOM     25  H   UNL     1       7.919  -2.517  12.168  0.00  0.00    +0.000 HD
ENDBRANCH  21  24
ENDBRANCH  17  20
ENDBRANCH   4  16
BRANCH   3  26
ATOM     26  C   UNL     1       5.499 -13.297  11.907  0.00  0.00    +0.000 C 
BRANCH  26  27
ATOM     27  O   UNL     1       5.802 -14.392  11.204  0.00  0.00    +0.000 OA
ATOM     28  H   UNL     1       5.805 -14.197  10.249  0.00  0.00    +0.000 HD
ENDBRANCH  26  27
ENDBRANCH   3  26
TORSDOF 6
ENDMDL
MODEL 7
REMARK VINA RESULT:      -5.3     16.382     19.452
REMARK  Name = 5318517_Andrographolide.pdbqt.pdb
REMARK  6 active torsions:
REMARK  status: ('A' for Active; 'I' for Inactive)
REMARK    1  A    between atoms: C_3  and  C_16
REMARK    2  A    between atoms: C_4  and  C_19
REMARK    3  A    between atoms: C_6  and  O_14
REMARK    4  A    between atoms: C_16  and  O_17
REMARK    5  A    between atoms: C_22  and  C_23
REMARK    6  A    between atoms: C_24  and  O_27
REMARK                            x       y       z     vdW  Elec       q    Type
REMARK                         _______ _______ _______ _____ _____    ______ ____
ROOT
ATOM      1  C   UNL     1     -10.896 -17.070   9.518  0.00  0.00    +0.000 C 
ATOM      2  C   UNL     1     -12.368 -16.620   9.760  0.00  0.00    +0.000 C 
ATOM      3  C   UNL     1     -13.218 -17.159  10.925  0.00  0.00    +0.000 C 
ATOM      4  C   UNL     1     -10.386 -17.049   8.049  0.00  0.00    +0.000 C 
ATOM      5  C   UNL     1     -10.834 -18.430  10.047  0.00  0.00    +0.000 C 
ATOM      6  C   UNL     1     -12.827 -18.552  11.504  0.00  0.00    +0.000 C 
ATOM      7  C   UNL     1     -12.855 -15.710   8.779  0.00  0.00    +0.000 C 
ATOM      8  C   UNL     1     -11.693 -19.204  10.989  0.00  0.00    +0.000 C 
ATOM      9  C   UNL     1      -9.981 -16.118  10.347  0.00  0.00    +0.000 C 
ATOM     10  C   UNL     1     -12.144 -15.457   7.489  0.00  0.00    +0.000 C 
ATOM     11  C   UNL     1     -10.947 -16.087   7.090  0.00  0.00    +0.000 C 
ATOM     12  C   UNL     1     -14.694 -17.316  10.410  0.00  0.00    +0.000 C 
ATOM     13  C   UNL     1     -10.558 -15.944   5.822  0.00  0.00    +0.000 C 
ENDROOT
BRANCH   6  14
ATOM     14  O   UNL     1     -13.452 -19.049  12.635  0.00  0.00    +0.000 OA
ATOM     15  H   UNL     1     -12.897 -18.966  13.430  0.00  0.00    +0.000 HD
ENDBRANCH   6  14
BRANCH   4  16
ATOM     16  C   UNL     1      -9.281 -17.877   7.655  0.00  0.00    +0.000 C 
ATOM     17  C   UNL     1      -8.096 -18.757   7.245  0.00  0.00    +0.000 C 
BRANCH  17  20
ATOM     18  O   UNL     1      -5.702 -20.750   5.518  0.00  0.00    +0.000 OA
ATOM     19  O   UNL     1      -7.760 -20.116   4.620  0.00  0.00    +0.000 OA
ATOM     20  C   UNL     1      -7.096 -19.508   6.905  0.00  0.00    +0.000 C 
ATOM     21  C   UNL     1      -5.916 -19.806   7.676  0.00  0.00    +0.000 C 
ATOM     22  C   UNL     1      -6.952 -20.137   5.533  0.00  0.00    +0.000 C 
ATOM     23  C   UNL     1      -5.192 -20.519   6.718  0.00  0.00    +0.000 C 
BRANCH  21  24
ATOM     24  O   UNL     1      -5.380 -18.864   8.507  0.00  0.00    +0.000 OA
ATOM     25  H   UNL     1      -5.054 -18.090   8.015  0.00  0.00    +0.000 HD
ENDBRANCH  21  24
ENDBRANCH  17  20
ENDBRANCH   4  16
BRANCH   3  26
ATOM     26  C   UNL     1     -13.161 -16.156  12.026  0.00  0.00    +0.000 C 
BRANCH  26  27
ATOM     27  O   UNL     1     -13.100 -15.252  13.008  0.00  0.00    +0.000 OA
ATOM     28  H   UNL     1     -12.401 -15.485  13.646  0.00  0.00    +0.000 HD
ENDBRANCH  26  27
ENDBRANCH   3  26
TORSDOF 6
ENDMDL
MODEL 8
REMARK VINA RESULT:      -5.3      1.868      3.759
REMARK  Name = 5318517_Andrographolide.pdbqt.pdb
REMARK  6 active torsions:
REMARK  status: ('A' for Active; 'I' for Inactive)
REMARK    1  A    between atoms: C_3  and  C_16
REMARK    2  A    between atoms: C_4  and  C_19
REMARK    3  A    between atoms: C_6  and  O_14
REMARK    4  A    between atoms: C_16  and  O_17
REMARK    5  A    between atoms: C_22  and  C_23
REMARK    6  A    between atoms: C_24  and  O_27
REMARK                            x       y       z     vdW  Elec       q    Type
REMARK                         _______ _______ _______ _____ _____    ______ ____
ROOT
ATOM      1  C   UNL     1       7.200 -11.912  11.957  0.00  0.00    +0.000 C 
ATOM      2  C   UNL     1       7.873 -12.933  12.923  0.00  0.00    +0.000 C 
ATOM      3  C   UNL     1       7.094 -13.660  14.034  0.00  0.00    +0.000 C 
ATOM      4  C   UNL     1       8.102 -10.780  11.390  0.00  0.00    +0.000 C 
ATOM      5  C   UNL     1       6.105 -11.337  12.733  0.00  0.00    +0.000 C 
ATOM      6  C   UNL     1       5.803 -12.967  14.566  0.00  0.00    +0.000 C 
ATOM      7  C   UNL     1       9.272 -13.086  12.707  0.00  0.00    +0.000 C 
ATOM      8  C   UNL     1       5.384 -11.767  13.964  0.00  0.00    +0.000 C 
ATOM      9  C   UNL     1       6.645 -12.723  10.746  0.00  0.00    +0.000 C 
ATOM     10  C   UNL     1      10.066 -12.143  11.861  0.00  0.00    +0.000 C 
ATOM     11  C   UNL     1       9.542 -11.009  11.206  0.00  0.00    +0.000 C 
ATOM     12  C   UNL     1       8.044 -13.792  15.279  0.00  0.00    +0.000 C 
ATOM     13  C   UNL     1      10.404 -10.133  10.688  0.00  0.00    +0.000 C 
ENDROOT
BRANCH   6  14
ATOM     14  O   UNL     1       4.973 -13.612  15.467  0.00  0.00    +0.000 OA
ATOM     15  H   UNL     1       4.819 -13.084  16.270  0.00  0.00    +0.000 HD
ENDBRANCH   6  14
BRANCH   4  16
ATOM     16  C   UNL     1       7.516  -9.554  10.924  0.00  0.00    +0.000 C 
ATOM     17  C   UNL     1       6.900  -8.241  10.433  0.00  0.00    +0.000 C 
BRANCH  17  20
ATOM     18  O   UNL     1       5.141  -5.698   8.665  0.00  0.00    +0.000 OA
ATOM     19  O   UNL     1       5.520  -7.842   7.828  0.00  0.00    +0.000 OA
ATOM     20  C   UNL     1       6.386  -7.128  10.012  0.00  0.00    +0.000 C 
ATOM     21  C   UNL     1       6.311  -5.871  10.713  0.00  0.00    +0.000 C 
ATOM     22  C   UNL     1       5.649  -6.994   8.694  0.00  0.00    +0.000 C 
ATOM     23  C   UNL     1       5.536  -5.149   9.804  0.00  0.00    +0.000 C 
BRANCH  21  24
ATOM     24  O   UNL     1       6.140  -5.847  12.068  0.00  0.00    +0.000 OA
ATOM     25  H   UNL     1       5.213  -6.011  12.318  0.00  0.00    +0.000 HD
ENDBRANCH  21  24
ENDBRANCH  17  20
ENDBRANCH   4  16
BRANCH   3  26
ATOM     26  C   UNL     1       6.728 -15.010  13.519  0.00  0.00    +0.000 C 
BRANCH  26  27
ATOM     27  O   UNL     1       6.412 -16.223  13.057  0.00  0.00    +0.000 OA
ATOM     28  H   UNL     1       5.867 -16.706  13.705  0.00  0.00    +0.000 HD
ENDBRANCH  26  27
ENDBRANCH   3  26
TORSDOF 6
ENDMDL
MODEL 9
REMARK VINA RESULT:      -5.1     15.475     17.512
REMARK  Name = 5318517_Andrographolide.pdbqt.pdb
REMARK  6 active torsions:
REMARK  status: ('A' for Active; 'I' for Inactive)
REMARK    1  A    between atoms: C_3  and  C_16
REMARK    2  A    between atoms: C_4  and  C_19
REMARK    3  A    between atoms: C_6  and  O_14
REMARK    4  A    between atoms: C_16  and  O_17
REMARK    5  A    between atoms: C_22  and  C_23
REMARK    6  A    between atoms: C_24  and  O_27
REMARK                            x       y       z     vdW  Elec       q    Type
REMARK                         _______ _______ _______ _____ _____    ______ ____
ROOT
ATOM      1  C   UNL     1      -0.312  -6.485  -3.860  0.00  0.00    +0.000 C 
ATOM      2  C   UNL     1       1.132  -6.822  -4.337  0.00  0.00    +0.000 C 
ATOM      3  C   UNL     1       1.838  -8.141  -3.975  0.00  0.00    +0.000 C 
ATOM      4  C   UNL     1      -0.656  -4.981  -3.664  0.00  0.00    +0.000 C 
ATOM      5  C   UNL     1      -0.458  -7.197  -2.594  0.00  0.00    +0.000 C 
ATOM      6  C   UNL     1       1.359  -8.871  -2.684  0.00  0.00    +0.000 C 
ATOM      7  C   UNL     1       1.742  -5.779  -5.092  0.00  0.00    +0.000 C 
ATOM      8  C   UNL     1       0.277  -8.332  -1.965  0.00  0.00    +0.000 C 
ATOM      9  C   UNL     1      -1.295  -7.057  -4.926  0.00  0.00    +0.000 C 
ATOM     10  C   UNL     1       1.183  -4.394  -5.153  0.00  0.00    +0.000 C 
ATOM     11  C   UNL     1       0.026  -3.960  -4.473  0.00  0.00    +0.000 C 
ATOM     12  C   UNL     1       3.359  -7.824  -3.741  0.00  0.00    +0.000 C 
ATOM     13  C   UNL     1      -0.218  -2.649  -4.428  0.00  0.00    +0.000 C 
ENDROOT
BRANCH   6  14
ATOM     14  O   UNL     1       1.846 -10.125  -2.358  0.00  0.00    +0.000 OA
ATOM     15  H   UNL     1       2.443 -10.478  -3.041  0.00  0.00    +0.000 HD
ENDBRANCH   6  14
BRANCH   4  16
ATOM     16  C   UNL     1      -1.726  -4.591  -2.790  0.00  0.00    +0.000 C 
ATOM     17  C   UNL     1      -2.865  -4.185  -1.850  0.00  0.00    +0.000 C 
BRANCH  17  20
ATOM     18  O   UNL     1      -5.405  -4.050   0.643  0.00  0.00    +0.000 OA
ATOM     19  O   UNL     1      -4.423  -6.027  -0.109  0.00  0.00    +0.000 OA
ATOM     20  C   UNL     1      -3.823  -3.839  -1.049  0.00  0.00    +0.000 C 
ATOM     21  C   UNL     1      -4.307  -2.509  -0.776  0.00  0.00    +0.000 C 
ATOM     22  C   UNL     1      -4.551  -4.816  -0.146  0.00  0.00    +0.000 C 
ATOM     23  C   UNL     1      -5.210  -2.801   0.248  0.00  0.00    +0.000 C 
BRANCH  21  24
ATOM     24  O   UNL     1      -3.444  -1.450  -0.769  0.00  0.00    +0.000 OA
ATOM     25  H   UNL     1      -2.807  -1.498  -1.504  0.00  0.00    +0.000 HD
ENDBRANCH  21  24
ENDBRANCH  17  20
ENDBRANCH   4  16
BRANCH   3  26
ATOM     26  C   UNL     1       1.678  -9.070  -5.130  0.00  0.00    +0.000 C 
BRANCH  26  27
ATOM     27  O   UNL     1       1.522  -9.901  -6.165  0.00  0.00    +0.000 OA
ATOM     28  H   UNL     1       1.611 -10.828  -5.877  0.00  0.00    +0.000 HD
ENDBRANCH  26  27
ENDBRANCH   3  26
TORSDOF 6
ENDMDL
