MODEL 1
REMARK VINA RESULT:      -6.3      0.000      0.000
REMARK  Name = 5326018_Caulerpin.pdbqt.pdb
REMARK  4 active torsions:
REMARK  status: ('A' for Active; 'I' for Inactive)
REMARK    1  A    between atoms: C_11  and  C_26
REMARK    2  A    between atoms: C_12  and  C_30
REMARK    3  A    between atoms: C_26  and  O_27
REMARK    4  A    between atoms: C_30  and  O_31
REMARK                            x       y       z     vdW  Elec       q    Type
REMARK                         _______ _______ _______ _____ _____    ______ ____
ROOT
ATOM      1  N   UNL     1     -10.479  -4.779  27.685  0.00  0.00    +0.000 N 
ATOM      2  N   UNL     1     -14.718  -9.743  27.410  0.00  0.00    +0.000 N 
ATOM      3  C   UNL     1     -10.817  -6.928  27.258  0.00  0.00    +0.000 C 
ATOM      4  C   UNL     1     -14.254  -7.723  28.195  0.00  0.00    +0.000 C 
ATOM      5  C   UNL     1     -11.348  -5.824  27.922  0.00  0.00    +0.000 C 
ATOM      6  C   UNL     1     -13.679  -8.870  27.656  0.00  0.00    +0.000 C 
ATOM      7  C   UNL     1      -9.582  -6.562  26.670  0.00  0.00    +0.000 A 
ATOM      8  C   UNL     1     -15.648  -7.928  28.336  0.00  0.00    +0.000 A 
ATOM      9  C   UNL     1      -9.391  -5.211  26.957  0.00  0.00    +0.000 A 
ATOM     10  C   UNL     1     -15.913  -9.204  27.842  0.00  0.00    +0.000 A 
ATOM     11  C   UNL     1     -12.571  -5.639  28.658  0.00  0.00    +0.000 C 
ATOM     12  C   UNL     1     -12.322  -9.191  27.295  0.00  0.00    +0.000 C 
ATOM     13  C   UNL     1     -13.497  -6.551  28.508  0.00  0.00    +0.000 C 
ATOM     14  C   UNL     1     -11.483  -8.192  27.203  0.00  0.00    +0.000 C 
ATOM     15  C   UNL     1      -8.612  -7.239  25.907  0.00  0.00    +0.000 A 
ATOM     16  C   UNL     1     -16.718  -7.151  28.819  0.00  0.00    +0.000 A 
ATOM     17  C   UNL     1      -8.271  -4.495  26.521  0.00  0.00    +0.000 A 
ATOM     18  C   UNL     1     -17.200  -9.752  27.808  0.00  0.00    +0.000 A 
ATOM     19  C   UNL     1      -7.485  -6.541  25.469  0.00  0.00    +0.000 A 
ATOM     20  C   UNL     1     -18.007  -7.684  28.799  0.00  0.00    +0.000 A 
ATOM     21  C   UNL     1      -7.320  -5.194  25.773  0.00  0.00    +0.000 A 
ATOM     22  C   UNL     1     -18.240  -8.963  28.302  0.00  0.00    +0.000 A 
ATOM     23  H   UNL     1     -10.596  -3.818  27.978  0.00  0.00    +0.000 HD
ATOM     24  H   UNL     1     -14.656 -10.652  26.968  0.00  0.00    +0.000 HD
ENDROOT
BRANCH  11  26
ATOM     25  O   UNL     1     -13.037  -4.808  30.853  0.00  0.00    +0.000 OA
ATOM     26  C   UNL     1     -12.816  -4.572  29.671  0.00  0.00    +0.000 C 
BRANCH  26  27
ATOM     27  O   UNL     1     -12.726  -3.356  29.059  0.00  0.00    +0.000 OA
ATOM     28  C   UNL     1     -13.904  -2.769  28.572  0.00  0.00    +0.000 C 
ENDBRANCH  26  27
ENDBRANCH  11  26
BRANCH  12  30
ATOM     29  O   UNL     1     -12.471 -11.572  27.104  0.00  0.00    +0.000 OA
ATOM     30  C   UNL     1     -11.769 -10.569  27.147  0.00  0.00    +0.000 C 
BRANCH  30  31
ATOM     31  O   UNL     1     -10.410 -10.488  27.050  0.00  0.00    +0.000 OA
ATOM     32  C   UNL     1      -9.637 -11.367  27.825  0.00  0.00    +0.000 C 
ENDBRANCH  30  31
ENDBRANCH  12  30
TORSDOF 4
ENDMDL
MODEL 2
REMARK VINA RESULT:      -6.3     27.455     30.391
REMARK  Name = 5326018_Caulerpin.pdbqt.pdb
REMARK  4 active torsions:
REMARK  status: ('A' for Active; 'I' for Inactive)
REMARK    1  A    between atoms: C_11  and  C_26
REMARK    2  A    between atoms: C_12  and  C_30
REMARK    3  A    between atoms: C_26  and  O_27
REMARK    4  A    between atoms: C_30  and  O_31
REMARK                            x       y       z     vdW  Elec       q    Type
REMARK                         _______ _______ _______ _____ _____    ______ ____
ROOT
ATOM      1  N   UNL     1      -5.605  -1.660  -1.307  0.00  0.00    +0.000 N 
ATOM      2  N   UNL     1      -3.698  -7.855  -0.486  0.00  0.00    +0.000 N 
ATOM      3  C   UNL     1      -5.570  -3.447   0.004  0.00  0.00    +0.000 C 
ATOM      4  C   UNL     1      -4.099  -6.194  -1.898  0.00  0.00    +0.000 C 
ATOM      5  C   UNL     1      -5.427  -3.027  -1.317  0.00  0.00    +0.000 C 
ATOM      6  C   UNL     1      -4.370  -6.657  -0.614  0.00  0.00    +0.000 C 
ATOM      7  C   UNL     1      -5.904  -2.331   0.808  0.00  0.00    +0.000 A 
ATOM      8  C   UNL     1      -3.308  -7.152  -2.577  0.00  0.00    +0.000 A 
ATOM      9  C   UNL     1      -5.924  -1.223  -0.039  0.00  0.00    +0.000 A 
ATOM     10  C   UNL     1      -3.075  -8.186  -1.671  0.00  0.00    +0.000 A 
ATOM     11  C   UNL     1      -5.080  -3.736  -2.521  0.00  0.00    +0.000 C 
ATOM     12  C   UNL     1      -5.102  -6.081   0.485  0.00  0.00    +0.000 C 
ATOM     13  C   UNL     1      -4.561  -4.928  -2.378  0.00  0.00    +0.000 C 
ATOM     14  C   UNL     1      -5.373  -4.803   0.411  0.00  0.00    +0.000 C 
ATOM     15  C   UNL     1      -6.173  -2.145   2.177  0.00  0.00    +0.000 A 
ATOM     16  C   UNL     1      -2.751  -7.240  -3.866  0.00  0.00    +0.000 A 
ATOM     17  C   UNL     1      -6.207   0.070   0.413  0.00  0.00    +0.000 A 
ATOM     18  C   UNL     1      -2.311  -9.314  -1.990  0.00  0.00    +0.000 A 
ATOM     19  C   UNL     1      -6.464  -0.861   2.643  0.00  0.00    +0.000 A 
ATOM     20  C   UNL     1      -1.991  -8.361  -4.203  0.00  0.00    +0.000 A 
ATOM     21  C   UNL     1      -6.480   0.225   1.774  0.00  0.00    +0.000 A 
ATOM     22  C   UNL     1      -1.778  -9.379  -3.279  0.00  0.00    +0.000 A 
ATOM     23  H   UNL     1      -5.513  -1.032  -2.096  0.00  0.00    +0.000 HD
ATOM     24  H   UNL     1      -3.638  -8.431   0.345  0.00  0.00    +0.000 HD
ENDROOT
BRANCH  11  26
ATOM     25  O   UNL     1      -6.311  -3.728  -4.573  0.00  0.00    +0.000 OA
ATOM     26  C   UNL     1      -5.383  -3.281  -3.909  0.00  0.00    +0.000 C 
BRANCH  26  27
ATOM     27  O   UNL     1      -4.490  -2.311  -4.259  0.00  0.00    +0.000 OA
ATOM     28  C   UNL     1      -3.752  -2.481  -5.440  0.00  0.00    +0.000 C 
ENDBRANCH  26  27
ENDBRANCH  11  26
BRANCH  12  30
ATOM     29  O   UNL     1      -5.589  -6.477   2.794  0.00  0.00    +0.000 OA
ATOM     30  C   UNL     1      -5.686  -6.841   1.628  0.00  0.00    +0.000 C 
BRANCH  30  31
ATOM     31  O   UNL     1      -6.330  -7.941   1.141  0.00  0.00    +0.000 OA
ATOM     32  C   UNL     1      -6.105  -9.175   1.772  0.00  0.00    +0.000 C 
ENDBRANCH  30  31
ENDBRANCH  12  30
TORSDOF 4
ENDMDL
MODEL 3
REMARK VINA RESULT:      -6.1      0.457      7.657
REMARK  Name = 5326018_Caulerpin.pdbqt.pdb
REMARK  4 active torsions:
REMARK  status: ('A' for Active; 'I' for Inactive)
REMARK    1  A    between atoms: C_11  and  C_26
REMARK    2  A    between atoms: C_12  and  C_30
REMARK    3  A    between atoms: C_26  and  O_27
REMARK    4  A    between atoms: C_30  and  O_31
REMARK                            x       y       z     vdW  Elec       q    Type
REMARK                         _______ _______ _______ _____ _____    ______ ____
ROOT
ATOM      1  N   UNL     1     -14.572  -9.811  27.430  0.00  0.00    +0.000 N 
ATOM      2  N   UNL     1     -10.427  -4.765  27.638  0.00  0.00    +0.000 N 
ATOM      3  C   UNL     1     -14.150  -7.768  28.180  0.00  0.00    +0.000 C 
ATOM      4  C   UNL     1     -10.722  -6.927  27.248  0.00  0.00    +0.000 C 
ATOM      5  C   UNL     1     -13.550  -8.915  27.666  0.00  0.00    +0.000 C 
ATOM      6  C   UNL     1     -11.277  -5.822  27.888  0.00  0.00    +0.000 C 
ATOM      7  C   UNL     1     -15.540  -7.997  28.318  0.00  0.00    +0.000 A 
ATOM      8  C   UNL     1      -9.491  -6.549  26.660  0.00  0.00    +0.000 A 
ATOM      9  C   UNL     1     -15.778  -9.287  27.845  0.00  0.00    +0.000 A 
ATOM     10  C   UNL     1      -9.327  -5.190  26.923  0.00  0.00    +0.000 A 
ATOM     11  C   UNL     1     -12.186  -9.216  27.318  0.00  0.00    +0.000 C 
ATOM     12  C   UNL     1     -12.508  -5.646  28.615  0.00  0.00    +0.000 C 
ATOM     13  C   UNL     1     -11.364  -8.204  27.212  0.00  0.00    +0.000 C 
ATOM     14  C   UNL     1     -13.416  -6.577  28.476  0.00  0.00    +0.000 C 
ATOM     15  C   UNL     1     -16.626  -7.231  28.781  0.00  0.00    +0.000 A 
ATOM     16  C   UNL     1      -8.504  -7.221  25.914  0.00  0.00    +0.000 A 
ATOM     17  C   UNL     1     -17.055  -9.859  27.814  0.00  0.00    +0.000 A 
ATOM     18  C   UNL     1      -8.217  -4.461  26.481  0.00  0.00    +0.000 A 
ATOM     19  C   UNL     1     -17.906  -7.789  28.763  0.00  0.00    +0.000 A 
ATOM     20  C   UNL     1      -7.388  -6.510  25.470  0.00  0.00    +0.000 A 
ATOM     21  C   UNL     1     -18.113  -9.080  28.288  0.00  0.00    +0.000 A 
ATOM     22  C   UNL     1      -7.250  -5.155  25.751  0.00  0.00    +0.000 A 
ATOM     23  H   UNL     1     -14.489 -10.725  27.005  0.00  0.00    +0.000 HD
ATOM     24  H   UNL     1     -10.562  -3.800  27.913  0.00  0.00    +0.000 HD
ENDROOT
BRANCH  11  26
ATOM     25  O   UNL     1     -12.291 -11.601  27.149  0.00  0.00    +0.000 OA
ATOM     26  C   UNL     1     -11.607 -10.586  27.197  0.00  0.00    +0.000 C 
BRANCH  26  27
ATOM     27  O   UNL     1     -10.248 -10.485  27.131  0.00  0.00    +0.000 OA
ATOM     28  C   UNL     1      -9.480 -11.259  28.013  0.00  0.00    +0.000 C 
ENDBRANCH  26  27
ENDBRANCH  11  26
BRANCH  12  30
ATOM     29  O   UNL     1     -12.720  -3.373  29.333  0.00  0.00    +0.000 OA
ATOM     30  C   UNL     1     -12.779  -4.566  29.608  0.00  0.00    +0.000 C 
BRANCH  30  31
ATOM     31  O   UNL     1     -13.109  -5.139  30.802  0.00  0.00    +0.000 OA
ATOM     32  C   UNL     1     -12.070  -5.504  31.672  0.00  0.00    +0.000 C 
ENDBRANCH  30  31
ENDBRANCH  12  30
TORSDOF 4
ENDMDL
MODEL 4
REMARK VINA RESULT:      -6.0     23.713     28.150
REMARK  Name = 5326018_Caulerpin.pdbqt.pdb
REMARK  4 active torsions:
REMARK  status: ('A' for Active; 'I' for Inactive)
REMARK    1  A    between atoms: C_11  and  C_26
REMARK    2  A    between atoms: C_12  and  C_30
REMARK    3  A    between atoms: C_26  and  O_27
REMARK    4  A    between atoms: C_30  and  O_31
REMARK                            x       y       z     vdW  Elec       q    Type
REMARK                         _______ _______ _______ _____ _____    ______ ____
ROOT
ATOM      1  N   UNL     1       6.782  -9.781  11.299  0.00  0.00    +0.000 N 
ATOM      2  N   UNL     1      11.397 -14.325  12.155  0.00  0.00    +0.000 N 
ATOM      3  C   UNL     1       7.271 -11.933  11.501  0.00  0.00    +0.000 C 
ATOM      4  C   UNL     1      10.908 -12.246  11.561  0.00  0.00    +0.000 C 
ATOM      5  C   UNL     1       7.816 -10.687  11.195  0.00  0.00    +0.000 C 
ATOM      6  C   UNL     1      10.364 -13.517  11.729  0.00  0.00    +0.000 C 
ATOM      7  C   UNL     1       5.882 -11.786  11.727  0.00  0.00    +0.000 A 
ATOM      8  C   UNL     1      12.298 -12.300  11.826  0.00  0.00    +0.000 A 
ATOM      9  C   UNL     1       5.599 -10.428  11.590  0.00  0.00    +0.000 A 
ATOM     10  C   UNL     1      12.580 -13.616  12.192  0.00  0.00    +0.000 A 
ATOM     11  C   UNL     1       9.162 -10.269  10.903  0.00  0.00    +0.000 C 
ATOM     12  C   UNL     1       9.018 -14.013  11.607  0.00  0.00    +0.000 C 
ATOM     13  C   UNL     1      10.120 -11.109  11.200  0.00  0.00    +0.000 C 
ATOM     14  C   UNL     1       8.059 -13.124  11.578  0.00  0.00    +0.000 C 
ATOM     15  C   UNL     1       4.835 -12.669  12.052  0.00  0.00    +0.000 A 
ATOM     16  C   UNL     1      13.345 -11.360  11.810  0.00  0.00    +0.000 A 
ATOM     17  C   UNL     1       4.314  -9.901  11.758  0.00  0.00    +0.000 A 
ATOM     18  C   UNL     1      13.865 -14.046  12.541  0.00  0.00    +0.000 A 
ATOM     19  C   UNL     1       3.545 -12.160  12.217  0.00  0.00    +0.000 A 
ATOM     20  C   UNL     1      14.634 -11.774  12.149  0.00  0.00    +0.000 A 
ATOM     21  C   UNL     1       3.293 -10.800  12.071  0.00  0.00    +0.000 A 
ATOM     22  C   UNL     1      14.886 -13.094  12.507  0.00  0.00    +0.000 A 
ATOM     23  H   UNL     1       6.845  -8.776  11.196  0.00  0.00    +0.000 HD
ATOM     24  H   UNL     1      11.334 -15.299  12.424  0.00  0.00    +0.000 HD
ENDROOT
BRANCH  11  26
ATOM     25  O   UNL     1       8.746  -8.126   9.925  0.00  0.00    +0.000 OA
ATOM     26  C   UNL     1       9.541  -9.023  10.177  0.00  0.00    +0.000 C 
BRANCH  26  27
ATOM     27  O   UNL     1      10.874  -9.070   9.889  0.00  0.00    +0.000 OA
ATOM     28  C   UNL     1      11.627  -7.896  10.039  0.00  0.00    +0.000 C 
ENDBRANCH  26  27
ENDBRANCH  11  26
BRANCH  12  30
ATOM     29  O   UNL     1       8.264 -15.870  10.297  0.00  0.00    +0.000 OA
ATOM     30  C   UNL     1       8.639 -15.439  11.382  0.00  0.00    +0.000 C 
BRANCH  30  31
ATOM     31  O   UNL     1       8.807 -16.128  12.548  0.00  0.00    +0.000 OA
ATOM     32  C   UNL     1       7.723 -16.868  13.044  0.00  0.00    +0.000 C 
ENDBRANCH  30  31
ENDBRANCH  12  30
TORSDOF 4
ENDMDL
MODEL 5
REMARK VINA RESULT:      -6.0     29.396     32.703
REMARK  Name = 5326018_Caulerpin.pdbqt.pdb
REMARK  4 active torsions:
REMARK  status: ('A' for Active; 'I' for Inactive)
REMARK    1  A    between atoms: C_11  and  C_26
REMARK    2  A    between atoms: C_12  and  C_30
REMARK    3  A    between atoms: C_26  and  O_27
REMARK    4  A    between atoms: C_30  and  O_31
REMARK                            x       y       z     vdW  Elec       q    Type
REMARK                         _______ _______ _______ _____ _____    ______ ____
ROOT
ATOM      1  N   UNL     1      -2.511  -2.841  -2.138  0.00  0.00    +0.000 N 
ATOM      2  N   UNL     1      -0.562  -9.067  -2.504  0.00  0.00    +0.000 N 
ATOM      3  C   UNL     1      -2.989  -4.974  -1.771  0.00  0.00    +0.000 C 
ATOM      4  C   UNL     1      -0.298  -6.981  -3.206  0.00  0.00    +0.000 C 
ATOM      5  C   UNL     1      -2.162  -4.125  -2.503  0.00  0.00    +0.000 C 
ATOM      6  C   UNL     1      -1.199  -7.846  -2.592  0.00  0.00    +0.000 C 
ATOM      7  C   UNL     1      -3.890  -4.195  -1.007  0.00  0.00    +0.000 A 
ATOM      8  C   UNL     1       0.871  -7.701  -3.552  0.00  0.00    +0.000 A 
ATOM      9  C   UNL     1      -3.573  -2.861  -1.258  0.00  0.00    +0.000 A 
ATOM     10  C   UNL     1       0.678  -9.007  -3.106  0.00  0.00    +0.000 A 
ATOM     11  C   UNL     1      -1.076  -4.384  -3.411  0.00  0.00    +0.000 C 
ATOM     12  C   UNL     1      -2.511  -7.637  -2.036  0.00  0.00    +0.000 C 
ATOM     13  C   UNL     1      -0.571  -5.590  -3.402  0.00  0.00    +0.000 C 
ATOM     14  C   UNL     1      -2.871  -6.399  -1.817  0.00  0.00    +0.000 C 
ATOM     15  C   UNL     1      -4.935  -4.488  -0.110  0.00  0.00    +0.000 A 
ATOM     16  C   UNL     1       2.083  -7.372  -4.186  0.00  0.00    +0.000 A 
ATOM     17  C   UNL     1      -4.253  -1.794  -0.660  0.00  0.00    +0.000 A 
ATOM     18  C   UNL     1       1.639 -10.012  -3.263  0.00  0.00    +0.000 A 
ATOM     19  C   UNL     1      -5.628  -3.435   0.491  0.00  0.00    +0.000 A 
ATOM     20  C   UNL     1       3.051  -8.363  -4.357  0.00  0.00    +0.000 A 
ATOM     21  C   UNL     1      -5.291  -2.114   0.218  0.00  0.00    +0.000 A 
ATOM     22  C   UNL     1       2.829  -9.659  -3.904  0.00  0.00    +0.000 A 
ATOM     23  H   UNL     1      -2.068  -1.984  -2.443  0.00  0.00    +0.000 HD
ATOM     24  H   UNL     1      -0.916  -9.905  -2.060  0.00  0.00    +0.000 HD
ENDROOT
BRANCH  11  26
ATOM     25  O   UNL     1       0.616  -3.324  -4.730  0.00  0.00    +0.000 OA
ATOM     26  C   UNL     1      -0.571  -3.436  -4.446  0.00  0.00    +0.000 C 
BRANCH  26  27
ATOM     27  O   UNL     1      -1.632  -2.779  -4.997  0.00  0.00    +0.000 OA
ATOM     28  C   UNL     1      -2.227  -3.324  -6.145  0.00  0.00    +0.000 C 
ENDBRANCH  26  27
ENDBRANCH  11  26
BRANCH  12  30
ATOM     29  O   UNL     1      -3.259  -9.891  -1.736  0.00  0.00    +0.000 OA
ATOM     30  C   UNL     1      -3.534  -8.699  -1.811  0.00  0.00    +0.000 C 
BRANCH  30  31
ATOM     31  O   UNL     1      -4.759  -8.110  -1.689  0.00  0.00    +0.000 OA
ATOM     32  C   UNL     1      -5.466  -8.291  -0.490  0.00  0.00    +0.000 C 
ENDBRANCH  30  31
ENDBRANCH  12  30
TORSDOF 4
ENDMDL
MODEL 6
REMARK VINA RESULT:      -5.9     10.375     13.054
REMARK  Name = 5326018_Caulerpin.pdbqt.pdb
REMARK  4 active torsions:
REMARK  status: ('A' for Active; 'I' for Inactive)
REMARK    1  A    between atoms: C_11  and  C_26
REMARK    2  A    between atoms: C_12  and  C_30
REMARK    3  A    between atoms: C_26  and  O_27
REMARK    4  A    between atoms: C_30  and  O_31
REMARK                            x       y       z     vdW  Elec       q    Type
REMARK                         _______ _______ _______ _____ _____    ______ ____
ROOT
ATOM      1  N   UNL     1      -4.076 -16.574  20.937  0.00  0.00    +0.000 N 
ATOM      2  N   UNL     1     -10.226 -16.571  23.141  0.00  0.00    +0.000 N 
ATOM      3  C   UNL     1      -6.230 -16.794  20.466  0.00  0.00    +0.000 C 
ATOM      4  C   UNL     1      -8.069 -16.751  23.619  0.00  0.00    +0.000 C 
ATOM      5  C   UNL     1      -5.304 -16.842  21.505  0.00  0.00    +0.000 C 
ATOM      6  C   UNL     1      -8.994 -16.844  22.583  0.00  0.00    +0.000 C 
ATOM      7  C   UNL     1      -5.547 -16.562  19.248  0.00  0.00    +0.000 A 
ATOM      8  C   UNL     1      -8.755 -16.484  24.829  0.00  0.00    +0.000 A 
ATOM      9  C   UNL     1      -4.196 -16.432  19.571  0.00  0.00    +0.000 A 
ATOM     10  C   UNL     1     -10.107 -16.381  24.502  0.00  0.00    +0.000 A 
ATOM     11  C   UNL     1      -5.456 -17.029  22.924  0.00  0.00    +0.000 C 
ATOM     12  C   UNL     1      -8.841 -17.078  21.171  0.00  0.00    +0.000 C 
ATOM     13  C   UNL     1      -6.661 -16.891  23.414  0.00  0.00    +0.000 C 
ATOM     14  C   UNL     1      -7.637 -16.943  20.676  0.00  0.00    +0.000 C 
ATOM     15  C   UNL     1      -5.941 -16.429  17.904  0.00  0.00    +0.000 A 
ATOM     16  C   UNL     1      -8.364 -16.302  26.168  0.00  0.00    +0.000 A 
ATOM     17  C   UNL     1      -3.210 -16.180  18.611  0.00  0.00    +0.000 A 
ATOM     18  C   UNL     1     -11.097 -16.107  25.453  0.00  0.00    +0.000 A 
ATOM     19  C   UNL     1      -4.968 -16.184  16.932  0.00  0.00    +0.000 A 
ATOM     20  C   UNL     1      -9.339 -16.034  27.130  0.00  0.00    +0.000 A 
ATOM     21  C   UNL     1      -3.627 -16.062  17.283  0.00  0.00    +0.000 A 
ATOM     22  C   UNL     1     -10.681 -15.940  26.775  0.00  0.00    +0.000 A 
ATOM     23  H   UNL     1      -3.193 -16.478  21.422  0.00  0.00    +0.000 HD
ATOM     24  H   UNL     1     -11.111 -16.501  22.654  0.00  0.00    +0.000 HD
ENDROOT
BRANCH  11  26
ATOM     25  O   UNL     1      -4.465 -18.525  24.507  0.00  0.00    +0.000 OA
ATOM     26  C   UNL     1      -4.385 -17.491  23.854  0.00  0.00    +0.000 C 
BRANCH  26  27
ATOM     27  O   UNL     1      -3.353 -16.600  23.815  0.00  0.00    +0.000 OA
ATOM     28  C   UNL     1      -2.045 -17.093  23.933  0.00  0.00    +0.000 C 
ENDBRANCH  26  27
ENDBRANCH  11  26
BRANCH  12  30
ATOM     29  O   UNL     1     -11.098 -17.354  20.424  0.00  0.00    +0.000 OA
ATOM     30  C   UNL     1      -9.906 -17.584  20.257  0.00  0.00    +0.000 C 
BRANCH  30  31
ATOM     31  O   UNL     1      -9.319 -18.289  19.246  0.00  0.00    +0.000 OA
ATOM     32  C   UNL     1     -10.137 -19.094  18.437  0.00  0.00    +0.000 C 
ENDBRANCH  30  31
ENDBRANCH  12  30
TORSDOF 4
ENDMDL
MODEL 7
REMARK VINA RESULT:      -5.8     24.121     27.444
REMARK  Name = 5326018_Caulerpin.pdbqt.pdb
REMARK  4 active torsions:
REMARK  status: ('A' for Active; 'I' for Inactive)
REMARK    1  A    between atoms: C_11  and  C_26
REMARK    2  A    between atoms: C_12  and  C_30
REMARK    3  A    between atoms: C_26  and  O_27
REMARK    4  A    between atoms: C_30  and  O_31
REMARK                            x       y       z     vdW  Elec       q    Type
REMARK                         _______ _______ _______ _____ _____    ______ ____
ROOT
ATOM      1  N   UNL     1       5.552  -8.222  10.035  0.00  0.00    +0.000 N 
ATOM      2  N   UNL     1      11.243 -10.967  11.697  0.00  0.00    +0.000 N 
ATOM      3  C   UNL     1       7.688  -7.930  10.551  0.00  0.00    +0.000 C 
ATOM      4  C   UNL     1       9.039 -11.166  11.564  0.00  0.00    +0.000 C 
ATOM      5  C   UNL     1       6.627  -8.828  10.651  0.00  0.00    +0.000 C 
ATOM      6  C   UNL     1      10.076 -10.238  11.598  0.00  0.00    +0.000 C 
ATOM      7  C   UNL     1       7.231  -6.745   9.926  0.00  0.00    +0.000 A 
ATOM      8  C   UNL     1       9.579 -12.467  11.710  0.00  0.00    +0.000 A 
ATOM      9  C   UNL     1       5.888  -6.952   9.616  0.00  0.00    +0.000 A 
ATOM     10  C   UNL     1      10.963 -12.314  11.796  0.00  0.00    +0.000 A 
ATOM     11  C   UNL     1       6.542 -10.165  11.176  0.00  0.00    +0.000 C 
ATOM     12  C   UNL     1      10.090  -8.803  11.476  0.00  0.00    +0.000 C 
ATOM     13  C   UNL     1       7.671 -10.793  11.384  0.00  0.00    +0.000 C 
ATOM     14  C   UNL     1       9.007  -8.238  11.008  0.00  0.00    +0.000 C 
ATOM     15  C   UNL     1       7.830  -5.521   9.574  0.00  0.00    +0.000 A 
ATOM     16  C   UNL     1       9.035 -13.764  11.761  0.00  0.00    +0.000 A 
ATOM     17  C   UNL     1       5.102  -5.989   8.973  0.00  0.00    +0.000 A 
ATOM     18  C   UNL     1      11.838 -13.397  11.936  0.00  0.00    +0.000 A 
ATOM     19  C   UNL     1       7.058  -4.547   8.936  0.00  0.00    +0.000 A 
ATOM     20  C   UNL     1       9.893 -14.855  11.906  0.00  0.00    +0.000 A 
ATOM     21  C   UNL     1       5.719  -4.780   8.643  0.00  0.00    +0.000 A 
ATOM     22  C   UNL     1      11.269 -14.671  11.993  0.00  0.00    +0.000 A 
ATOM     23  H   UNL     1       4.636  -8.624   9.882  0.00  0.00    +0.000 HD
ATOM     24  H   UNL     1      12.188 -10.603  11.690  0.00  0.00    +0.000 HD
ENDROOT
BRANCH  11  26
ATOM     25  O   UNL     1       4.241 -10.241  11.828  0.00  0.00    +0.000 OA
ATOM     26  C   UNL     1       5.289 -10.841  11.622  0.00  0.00    +0.000 C 
BRANCH  26  27
ATOM     27  O   UNL     1       5.524 -12.181  11.724  0.00  0.00    +0.000 OA
ATOM     28  C   UNL     1       4.462 -13.015  12.104  0.00  0.00    +0.000 C 
ENDBRANCH  26  27
ENDBRANCH  11  26
BRANCH  12  30
ATOM     29  O   UNL     1      12.062  -8.273  12.724  0.00  0.00    +0.000 OA
ATOM     30  C   UNL     1      11.179  -7.905  11.959  0.00  0.00    +0.000 C 
BRANCH  30  31
ATOM     31  O   UNL     1      11.017  -6.674  11.392  0.00  0.00    +0.000 OA
ATOM     32  C   UNL     1      12.105  -6.110  10.708  0.00  0.00    +0.000 C 
ENDBRANCH  30  31
ENDBRANCH  12  30
TORSDOF 4
ENDMDL
MODEL 8
REMARK VINA RESULT:      -5.7     30.516     33.856
REMARK  Name = 5326018_Caulerpin.pdbqt.pdb
REMARK  4 active torsions:
REMARK  status: ('A' for Active; 'I' for Inactive)
REMARK    1  A    between atoms: C_11  and  C_26
REMARK    2  A    between atoms: C_12  and  C_30
REMARK    3  A    between atoms: C_26  and  O_27
REMARK    4  A    between atoms: C_30  and  O_31
REMARK                            x       y       z     vdW  Elec       q    Type
REMARK                         _______ _______ _______ _____ _____    ______ ____
ROOT
ATOM      1  N   UNL     1      -4.213  -1.318  -2.452  0.00  0.00    +0.000 N 
ATOM      2  N   UNL     1       1.035  -4.816  -4.160  0.00  0.00    +0.000 N 
ATOM      3  C   UNL     1      -3.106  -3.231  -2.284  0.00  0.00    +0.000 C 
ATOM      4  C   UNL     1      -0.290  -3.095  -4.604  0.00  0.00    +0.000 C 
ATOM      5  C   UNL     1      -3.249  -2.089  -3.069  0.00  0.00    +0.000 C 
ATOM      6  C   UNL     1      -0.223  -4.304  -3.916  0.00  0.00    +0.000 C 
ATOM      7  C   UNL     1      -4.039  -3.180  -1.221  0.00  0.00    +0.000 A 
ATOM      8  C   UNL     1       0.914  -2.905  -5.323  0.00  0.00    +0.000 A 
ATOM      9  C   UNL     1      -4.724  -1.973  -1.351  0.00  0.00    +0.000 A 
ATOM     10  C   UNL     1       1.726  -4.001  -5.032  0.00  0.00    +0.000 A 
ATOM     11  C   UNL     1      -2.553  -1.632  -4.243  0.00  0.00    +0.000 C 
ATOM     12  C   UNL     1      -1.148  -4.963  -3.031  0.00  0.00    +0.000 C 
ATOM     13  C   UNL     1      -1.421  -2.223  -4.528  0.00  0.00    +0.000 C 
ATOM     14  C   UNL     1      -2.132  -4.242  -2.559  0.00  0.00    +0.000 C 
ATOM     15  C   UNL     1      -4.359  -4.031  -0.146  0.00  0.00    +0.000 A 
ATOM     16  C   UNL     1       1.406  -1.905  -6.182  0.00  0.00    +0.000 A 
ATOM     17  C   UNL     1      -5.724  -1.570  -0.460  0.00  0.00    +0.000 A 
ATOM     18  C   UNL     1       3.013  -4.152  -5.561  0.00  0.00    +0.000 A 
ATOM     19  C   UNL     1      -5.360  -3.646   0.749  0.00  0.00    +0.000 A 
ATOM     20  C   UNL     1       2.686  -2.043  -6.723  0.00  0.00    +0.000 A 
ATOM     21  C   UNL     1      -6.028  -2.437   0.591  0.00  0.00    +0.000 A 
ATOM     22  C   UNL     1       3.471  -3.149  -6.416  0.00  0.00    +0.000 A 
ATOM     23  H   UNL     1      -4.520  -0.395  -2.732  0.00  0.00    +0.000 HD
ATOM     24  H   UNL     1       1.433  -5.659  -3.766  0.00  0.00    +0.000 HD
ENDROOT
BRANCH  11  26
ATOM     25  O   UNL     1      -2.374   0.218  -5.749  0.00  0.00    +0.000 OA
ATOM     26  C   UNL     1      -3.075  -0.639  -5.226  0.00  0.00    +0.000 C 
BRANCH  26  27
ATOM     27  O   UNL     1      -4.403  -0.879  -5.431  0.00  0.00    +0.000 OA
ATOM     28  C   UNL     1      -4.771  -1.687  -6.517  0.00  0.00    +0.000 C 
ENDBRANCH  26  27
ENDBRANCH  11  26
BRANCH  12  30
ATOM     29  O   UNL     1      -1.884  -7.227  -3.280  0.00  0.00    +0.000 OA
ATOM     30  C   UNL     1      -1.153  -6.421  -2.715  0.00  0.00    +0.000 C 
BRANCH  30  31
ATOM     31  O   UNL     1      -0.221  -6.664  -1.749  0.00  0.00    +0.000 OA
ATOM     32  C   UNL     1       0.239  -7.981  -1.588  0.00  0.00    +0.000 C 
ENDBRANCH  30  31
ENDBRANCH  12  30
TORSDOF 4
ENDMDL
MODEL 9
REMARK VINA RESULT:      -5.6     10.710     13.445
REMARK  Name = 5326018_Caulerpin.pdbqt.pdb
REMARK  4 active torsions:
REMARK  status: ('A' for Active; 'I' for Inactive)
REMARK    1  A    between atoms: C_11  and  C_26
REMARK    2  A    between atoms: C_12  and  C_30
REMARK    3  A    between atoms: C_26  and  O_27
REMARK    4  A    between atoms: C_30  and  O_31
REMARK                            x       y       z     vdW  Elec       q    Type
REMARK                         _______ _______ _______ _____ _____    ______ ____
ROOT
ATOM      1  N   UNL     1      -4.040 -16.823  20.457  0.00  0.00    +0.000 N 
ATOM      2  N   UNL     1      -9.004 -16.406  24.684  0.00  0.00    +0.000 N 
ATOM      3  C   UNL     1      -6.234 -16.746  20.762  0.00  0.00    +0.000 C 
ATOM      4  C   UNL     1      -6.863 -16.878  24.355  0.00  0.00    +0.000 C 
ATOM      5  C   UNL     1      -5.026 -17.019  21.401  0.00  0.00    +0.000 C 
ATOM      6  C   UNL     1      -8.089 -16.744  23.708  0.00  0.00    +0.000 C 
ATOM      7  C   UNL     1      -5.979 -16.446  19.402  0.00  0.00    +0.000 A 
ATOM      8  C   UNL     1      -7.051 -16.684  25.745  0.00  0.00    +0.000 A 
ATOM      9  C   UNL     1      -4.596 -16.505  19.236  0.00  0.00    +0.000 A 
ATOM     10  C   UNL     1      -8.403 -16.394  25.925  0.00  0.00    +0.000 A 
ATOM     11  C   UNL     1      -4.712 -17.357  22.764  0.00  0.00    +0.000 C 
ATOM     12  C   UNL     1      -8.460 -16.822  22.319  0.00  0.00    +0.000 C 
ATOM     13  C   UNL     1      -5.645 -17.147  23.656  0.00  0.00    +0.000 C 
ATOM     14  C   UNL     1      -7.491 -16.763  21.443  0.00  0.00    +0.000 C 
ATOM     15  C   UNL     1      -6.783 -16.112  18.297  0.00  0.00    +0.000 A 
ATOM     16  C   UNL     1      -6.205 -16.708  26.870  0.00  0.00    +0.000 A 
ATOM     17  C   UNL     1      -3.969 -16.251  18.011  0.00  0.00    +0.000 A 
ATOM     18  C   UNL     1      -8.959 -16.128  27.181  0.00  0.00    +0.000 A 
ATOM     19  C   UNL     1      -6.174 -15.860  17.065  0.00  0.00    +0.000 A 
ATOM     20  C   UNL     1      -6.745 -16.451  28.131  0.00  0.00    +0.000 A 
ATOM     21  C   UNL     1      -4.791 -15.930  16.929  0.00  0.00    +0.000 A 
ATOM     22  C   UNL     1      -8.099 -16.168  28.280  0.00  0.00    +0.000 A 
ATOM     23  H   UNL     1      -3.040 -16.882  20.605  0.00  0.00    +0.000 HD
ATOM     24  H   UNL     1      -9.982 -16.181  24.547  0.00  0.00    +0.000 HD
ENDROOT
BRANCH  11  26
ATOM     25  O   UNL     1      -2.906 -17.779  24.276  0.00  0.00    +0.000 OA
ATOM     26  C   UNL     1      -3.468 -18.042  23.220  0.00  0.00    +0.000 C 
BRANCH  26  27
ATOM     27  O   UNL     1      -3.117 -18.980  22.292  0.00  0.00    +0.000 OA
ATOM     28  C   UNL     1      -3.541 -20.302  22.492  0.00  0.00    +0.000 C 
ENDBRANCH  26  27
ENDBRANCH  11  26
BRANCH  12  30
ATOM     29  O   UNL     1     -10.285 -16.579  20.790  0.00  0.00    +0.000 OA
ATOM     30  C   UNL     1      -9.834 -17.095  21.806  0.00  0.00    +0.000 C 
BRANCH  30  31
ATOM     31  O   UNL     1     -10.440 -17.999  22.630  0.00  0.00    +0.000 OA
ATOM     32  C   UNL     1     -10.330 -19.362  22.314  0.00  0.00    +0.000 C 
ENDBRANCH  30  31
ENDBRANCH  12  30
TORSDOF 4
ENDMDL
