MODEL 1
REMARK VINA RESULT:      -3.4      0.000      0.000
REMARK  Name = 5350_Sulforaphane.pdbqt.pdb
REMARK  3 active torsions:
REMARK  status: ('A' for Active; 'I' for Inactive)
REMARK    1  A    between atoms: C_1  and  C_2
REMARK    2  A    between atoms: C_3  and  N_5
REMARK    3  A    between atoms: C_7  and  S_8
REMARK                            x       y       z     vdW  Elec       q    Type
REMARK                         _______ _______ _______ _____ _____    ______ ____
ROOT
ATOM      1  C   UNL     1      -5.078  -5.663   0.257  0.00  0.00    +0.000 C 
ATOM      2  C   UNL     1      -4.757  -4.372  -0.505  0.00  0.00    +0.000 C 
ENDROOT
BRANCH   2   3
ATOM      3  S   UNL     1      -4.387  -2.891  -1.384  0.00  0.00    +0.000 S 
ATOM      4  O   UNL     1      -3.031  -2.790  -0.751  0.00  0.00    +0.000 OA
ATOM      5  C   UNL     1      -5.110  -1.858  -0.155  0.00  0.00    +0.000 C 
ENDBRANCH   2   3
BRANCH   1   6
ATOM      6  C   UNL     1      -5.396  -6.952   1.021  0.00  0.00    +0.000 C 
ATOM      7  C   UNL     1      -5.714  -8.242   1.785  0.00  0.00    +0.000 C 
BRANCH   7   9
ATOM      8  S   UNL     1      -6.572 -11.449   0.703  0.00  0.00    +0.000 S 
ATOM      9  N   UNL     1      -5.994  -9.376   2.442  0.00  0.00    +0.000 NA
ATOM     10  C   UNL     1      -6.236 -10.242   1.688  0.00  0.00    +0.000 C 
ENDBRANCH   7   9
ENDBRANCH   1   6
TORSDOF 3
ENDMDL
MODEL 2
REMARK VINA RESULT:      -3.3      3.926      7.055
REMARK  Name = 5350_Sulforaphane.pdbqt.pdb
REMARK  3 active torsions:
REMARK  status: ('A' for Active; 'I' for Inactive)
REMARK    1  A    between atoms: C_1  and  C_2
REMARK    2  A    between atoms: C_3  and  N_5
REMARK    3  A    between atoms: C_7  and  S_8
REMARK                            x       y       z     vdW  Elec       q    Type
REMARK                         _______ _______ _______ _____ _____    ______ ____
ROOT
ATOM      1  C   UNL     1      -5.236  -5.726   0.260  0.00  0.00    +0.000 C 
ATOM      2  C   UNL     1      -5.723  -7.133   0.622  0.00  0.00    +0.000 C 
ENDROOT
BRANCH   2   3
ATOM      3  S   UNL     1      -6.288  -8.750   1.036  0.00  0.00    +0.000 S 
ATOM      4  O   UNL     1      -5.916  -9.285  -0.315  0.00  0.00    +0.000 OA
ATOM      5  C   UNL     1      -7.939  -8.418   0.522  0.00  0.00    +0.000 C 
ENDBRANCH   2   3
BRANCH   1   6
ATOM      6  C   UNL     1      -4.749  -4.319  -0.098  0.00  0.00    +0.000 C 
ATOM      7  C   UNL     1      -4.261  -2.911  -0.457  0.00  0.00    +0.000 C 
BRANCH   7   9
ATOM      8  S   UNL     1      -3.512  -1.364  -3.498  0.00  0.00    +0.000 S 
ATOM      9  N   UNL     1      -3.847  -1.675  -0.768  0.00  0.00    +0.000 NA
ATOM     10  C   UNL     1      -3.712  -1.563  -1.929  0.00  0.00    +0.000 C 
ENDBRANCH   7   9
ENDBRANCH   1   6
TORSDOF 3
ENDMDL
MODEL 3
REMARK VINA RESULT:      -3.1      7.585      9.173
REMARK  Name = 5350_Sulforaphane.pdbqt.pdb
REMARK  3 active torsions:
REMARK  status: ('A' for Active; 'I' for Inactive)
REMARK    1  A    between atoms: C_1  and  C_2
REMARK    2  A    between atoms: C_3  and  N_5
REMARK    3  A    between atoms: C_7  and  S_8
REMARK                            x       y       z     vdW  Elec       q    Type
REMARK                         _______ _______ _______ _____ _____    ______ ____
ROOT
ATOM      1  C   UNL     1     -12.200  -8.503   4.078  0.00  0.00    +0.000 C 
ATOM      2  C   UNL     1     -13.189  -8.354   5.239  0.00  0.00    +0.000 C 
ENDROOT
BRANCH   2   3
ATOM      3  S   UNL     1     -14.327  -8.179   6.572  0.00  0.00    +0.000 S 
ATOM      4  O   UNL     1     -14.146  -6.690   6.603  0.00  0.00    +0.000 OA
ATOM      5  C   UNL     1     -13.087  -8.421   7.799  0.00  0.00    +0.000 C 
ENDBRANCH   2   3
BRANCH   1   6
ATOM      6  C   UNL     1     -11.209  -8.651   2.919  0.00  0.00    +0.000 C 
ATOM      7  C   UNL     1     -10.218  -8.800   1.759  0.00  0.00    +0.000 C 
BRANCH   7   9
ATOM      8  S   UNL     1      -6.830  -8.005   1.461  0.00  0.00    +0.000 S 
ATOM      9  N   UNL     1      -9.344  -8.920   0.750  0.00  0.00    +0.000 NA
ATOM     10  C   UNL     1      -8.285  -8.528   1.071  0.00  0.00    +0.000 C 
ENDBRANCH   7   9
ENDBRANCH   1   6
TORSDOF 3
ENDMDL
MODEL 4
REMARK VINA RESULT:      -3.0     15.155     15.404
REMARK  Name = 5350_Sulforaphane.pdbqt.pdb
REMARK  3 active torsions:
REMARK  status: ('A' for Active; 'I' for Inactive)
REMARK    1  A    between atoms: C_1  and  C_2
REMARK    2  A    between atoms: C_3  and  N_5
REMARK    3  A    between atoms: C_7  and  S_8
REMARK                            x       y       z     vdW  Elec       q    Type
REMARK                         _______ _______ _______ _____ _____    ______ ____
ROOT
ATOM      1  C   UNL     1       5.323  -8.850  11.081  0.00  0.00    +0.000 C 
ATOM      2  C   UNL     1       5.947  -7.640  10.378  0.00  0.00    +0.000 C 
ENDROOT
BRANCH   2   3
ATOM      3  S   UNL     1       6.661  -6.246   9.571  0.00  0.00    +0.000 S 
ATOM      4  O   UNL     1       6.608  -6.924   8.234  0.00  0.00    +0.000 OA
ATOM      5  C   UNL     1       8.310  -6.795   9.857  0.00  0.00    +0.000 C 
ENDBRANCH   2   3
BRANCH   1   6
ATOM      6  C   UNL     1       4.698 -10.060  11.782  0.00  0.00    +0.000 C 
ATOM      7  C   UNL     1       4.073 -11.272  12.483  0.00  0.00    +0.000 C 
BRANCH   7   9
ATOM      8  S   UNL     1       4.284 -14.715  11.942  0.00  0.00    +0.000 S 
ATOM      9  N   UNL     1       3.521 -12.323  13.105  0.00  0.00    +0.000 NA
ATOM     10  C   UNL     1       3.857 -13.326  12.598  0.00  0.00    +0.000 C 
ENDBRANCH   7   9
ENDBRANCH   1   6
TORSDOF 3
ENDMDL
MODEL 5
REMARK VINA RESULT:      -3.0     15.280     16.120
REMARK  Name = 5350_Sulforaphane.pdbqt.pdb
REMARK  3 active torsions:
REMARK  status: ('A' for Active; 'I' for Inactive)
REMARK    1  A    between atoms: C_1  and  C_2
REMARK    2  A    between atoms: C_3  and  N_5
REMARK    3  A    between atoms: C_7  and  S_8
REMARK                            x       y       z     vdW  Elec       q    Type
REMARK                         _______ _______ _______ _____ _____    ______ ____
ROOT
ATOM      1  C   UNL     1      -8.900 -18.271   9.200  0.00  0.00    +0.000 C 
ATOM      2  C   UNL     1      -7.751 -19.103   8.620  0.00  0.00    +0.000 C 
ENDROOT
BRANCH   2   3
ATOM      3  S   UNL     1      -6.433 -20.061   7.950  0.00  0.00    +0.000 S 
ATOM      4  O   UNL     1      -5.460 -18.931   8.104  0.00  0.00    +0.000 OA
ATOM      5  C   UNL     1      -6.805 -19.602   6.291  0.00  0.00    +0.000 C 
ENDBRANCH   2   3
BRANCH   1   6
ATOM      6  C   UNL     1     -10.048 -17.441   9.782  0.00  0.00    +0.000 C 
ATOM      7  C   UNL     1     -11.198 -16.610  10.365  0.00  0.00    +0.000 C 
BRANCH   7   9
ATOM      8  S   UNL     1     -12.924 -16.805  13.394  0.00  0.00    +0.000 S 
ATOM      9  N   UNL     1     -12.206 -15.895  10.881  0.00  0.00    +0.000 NA
ATOM     10  C   UNL     1     -12.495 -16.296  11.946  0.00  0.00    +0.000 C 
ENDBRANCH   7   9
ENDBRANCH   1   6
TORSDOF 3
ENDMDL
MODEL 6
REMARK VINA RESULT:      -2.8      4.236      7.113
REMARK  Name = 5350_Sulforaphane.pdbqt.pdb
REMARK  3 active torsions:
REMARK  status: ('A' for Active; 'I' for Inactive)
REMARK    1  A    between atoms: C_1  and  C_2
REMARK    2  A    between atoms: C_3  and  N_5
REMARK    3  A    between atoms: C_7  and  S_8
REMARK                            x       y       z     vdW  Elec       q    Type
REMARK                         _______ _______ _______ _____ _____    ______ ____
ROOT
ATOM      1  C   UNL     1      -6.005  -6.719  -1.016  0.00  0.00    +0.000 C 
ATOM      2  C   UNL     1      -6.224  -7.794   0.055  0.00  0.00    +0.000 C 
ENDROOT
BRANCH   2   3
ATOM      3  S   UNL     1      -6.481  -9.030   1.284  0.00  0.00    +0.000 S 
ATOM      4  O   UNL     1      -7.722  -8.353   1.784  0.00  0.00    +0.000 OA
ATOM      5  C   UNL     1      -5.474  -8.206   2.470  0.00  0.00    +0.000 C 
ENDBRANCH   2   3
BRANCH   1   6
ATOM      6  C   UNL     1      -5.786  -5.644  -2.083  0.00  0.00    +0.000 C 
ATOM      7  C   UNL     1      -5.567  -4.567  -3.152  0.00  0.00    +0.000 C 
BRANCH   7   9
ATOM      8  S   UNL     1      -3.564  -1.708  -3.277  0.00  0.00    +0.000 S 
ATOM      9  N   UNL     1      -5.388  -3.625  -4.089  0.00  0.00    +0.000 NA
ATOM     10  C   UNL     1      -4.612  -2.823  -3.726  0.00  0.00    +0.000 C 
ENDBRANCH   7   9
ENDBRANCH   1   6
TORSDOF 3
ENDMDL
MODEL 7
REMARK VINA RESULT:      -2.7     15.211     16.508
REMARK  Name = 5350_Sulforaphane.pdbqt.pdb
REMARK  3 active torsions:
REMARK  status: ('A' for Active; 'I' for Inactive)
REMARK    1  A    between atoms: C_1  and  C_2
REMARK    2  A    between atoms: C_3  and  N_5
REMARK    3  A    between atoms: C_7  and  S_8
REMARK                            x       y       z     vdW  Elec       q    Type
REMARK                         _______ _______ _______ _____ _____    ______ ____
ROOT
ATOM      1  C   UNL     1       5.275  -9.014  11.011  0.00  0.00    +0.000 C 
ATOM      2  C   UNL     1       4.994 -10.267  11.848  0.00  0.00    +0.000 C 
ENDROOT
BRANCH   2   3
ATOM      3  S   UNL     1       4.673 -11.705  12.813  0.00  0.00    +0.000 S 
ATOM      4  O   UNL     1       3.567 -11.022  13.562  0.00  0.00    +0.000 OA
ATOM      5  C   UNL     1       5.859 -11.273  14.040  0.00  0.00    +0.000 C 
ENDBRANCH   2   3
BRANCH   1   6
ATOM      6  C   UNL     1       5.559  -7.763  10.174  0.00  0.00    +0.000 C 
ATOM      7  C   UNL     1       5.843  -6.512   9.335  0.00  0.00    +0.000 C 
BRANCH   7   9
ATOM      8  S   UNL     1       5.167  -3.128   9.876  0.00  0.00    +0.000 S 
ATOM      9  N   UNL     1       6.093  -5.410   8.613  0.00  0.00    +0.000 NA
ATOM     10  C   UNL     1       5.694  -4.455   9.165  0.00  0.00    +0.000 C 
ENDBRANCH   7   9
ENDBRANCH   1   6
TORSDOF 3
ENDMDL
MODEL 8
REMARK VINA RESULT:      -2.7     26.580     27.019
REMARK  Name = 5350_Sulforaphane.pdbqt.pdb
REMARK  3 active torsions:
REMARK  status: ('A' for Active; 'I' for Inactive)
REMARK    1  A    between atoms: C_1  and  C_2
REMARK    2  A    between atoms: C_3  and  N_5
REMARK    3  A    between atoms: C_7  and  S_8
REMARK                            x       y       z     vdW  Elec       q    Type
REMARK                         _______ _______ _______ _____ _____    ______ ____
ROOT
ATOM      1  C   UNL     1     -10.377  -6.535  26.893  0.00  0.00    +0.000 C 
ATOM      2  C   UNL     1      -9.039  -5.824  26.661  0.00  0.00    +0.000 C 
ENDROOT
BRANCH   2   3
ATOM      3  S   UNL     1      -7.502  -5.005  26.400  0.00  0.00    +0.000 S 
ATOM      4  O   UNL     1      -7.243  -5.777  25.140  0.00  0.00    +0.000 OA
ATOM      5  C   UNL     1      -6.601  -6.165  27.372  0.00  0.00    +0.000 C 
ENDBRANCH   2   3
BRANCH   1   6
ATOM      6  C   UNL     1     -11.715  -7.243  27.122  0.00  0.00    +0.000 C 
ATOM      7  C   UNL     1     -13.055  -7.953  27.352  0.00  0.00    +0.000 C 
BRANCH   7   9
ATOM      8  S   UNL     1     -14.377 -10.966  26.184  0.00  0.00    +0.000 S 
ATOM      9  N   UNL     1     -14.232  -8.563  27.548  0.00  0.00    +0.000 NA
ATOM     10  C   UNL     1     -14.274  -9.579  26.962  0.00  0.00    +0.000 C 
ENDBRANCH   7   9
ENDBRANCH   1   6
TORSDOF 3
ENDMDL
MODEL 9
REMARK VINA RESULT:      -2.7      6.157      6.852
REMARK  Name = 5350_Sulforaphane.pdbqt.pdb
REMARK  3 active torsions:
REMARK  status: ('A' for Active; 'I' for Inactive)
REMARK    1  A    between atoms: C_1  and  C_2
REMARK    2  A    between atoms: C_3  and  N_5
REMARK    3  A    between atoms: C_7  and  S_8
REMARK                            x       y       z     vdW  Elec       q    Type
REMARK                         _______ _______ _______ _____ _____    ______ ____
ROOT
ATOM      1  C   UNL     1      -3.276  -2.837  -3.002  0.00  0.00    +0.000 C 
ATOM      2  C   UNL     1      -2.005  -3.004  -3.841  0.00  0.00    +0.000 C 
ENDROOT
BRANCH   2   3
ATOM      3  S   UNL     1      -0.545  -3.200  -4.807  0.00  0.00    +0.000 S 
ATOM      4  O   UNL     1       0.336  -3.078  -3.600  0.00  0.00    +0.000 OA
ATOM      5  C   UNL     1      -0.418  -1.478  -5.155  0.00  0.00    +0.000 C 
ENDBRANCH   2   3
BRANCH   1   6
ATOM      6  C   UNL     1      -4.544  -2.670  -2.160  0.00  0.00    +0.000 C 
ATOM      7  C   UNL     1      -5.815  -2.503  -1.318  0.00  0.00    +0.000 C 
BRANCH   7   9
ATOM      8  S   UNL     1      -6.651  -0.346   1.299  0.00  0.00    +0.000 S 
ATOM      9  N   UNL     1      -6.930  -2.349  -0.591  0.00  0.00    +0.000 NA
ATOM     10  C   UNL     1      -6.792  -1.496   0.203  0.00  0.00    +0.000 C 
ENDBRANCH   7   9
ENDBRANCH   1   6
TORSDOF 3
ENDMDL
