MODEL 1
REMARK VINA RESULT:      -4.1      0.000      0.000
REMARK  Name = 5357283_Methylferulate.pdbqt.pdb
REMARK  5 active torsions:
REMARK  status: ('A' for Active; 'I' for Inactive)
REMARK    1  A    between atoms: C_1  and  C_11
REMARK    2  A    between atoms: C_2  and  O_7
REMARK    3  A    between atoms: C_5  and  O_9
REMARK    4  A    between atoms: C_12  and  C_14
REMARK    5  A    between atoms: C_14  and  O_15
REMARK                            x       y       z     vdW  Elec       q    Type
REMARK                         _______ _______ _______ _____ _____    ______ ____
ROOT
ATOM      1  C   UNL     1     -10.137   6.175   6.173  0.00  0.00    +0.000 A 
ATOM      2  C   UNL     1      -8.210   5.795   4.751  0.00  0.00    +0.000 A 
ATOM      3  C   UNL     1      -9.588   5.964   4.908  0.00  0.00    +0.000 A 
ATOM      4  C   UNL     1      -9.312   6.219   7.294  0.00  0.00    +0.000 A 
ATOM      5  C   UNL     1      -7.395   5.842   5.884  0.00  0.00    +0.000 A 
ATOM      6  C   UNL     1      -7.938   6.052   7.151  0.00  0.00    +0.000 A 
ENDROOT
BRANCH   2   7
ATOM      7  O   UNL     1      -7.589   5.583   3.543  0.00  0.00    +0.000 OA
ATOM      8  C   UNL     1      -8.373   4.948   2.567  0.00  0.00    +0.000 C 
ENDBRANCH   2   7
BRANCH   5   9
ATOM      9  O   UNL     1      -6.042   5.680   5.751  0.00  0.00    +0.000 OA
ATOM     10  H   UNL     1      -5.642   5.642   6.639  0.00  0.00    +0.000 HD
ENDBRANCH   5   9
BRANCH   1  11
ATOM     11  C   UNL     1     -11.546   6.344   6.315  0.00  0.00    +0.000 C 
ATOM     12  C   UNL     1     -12.734   6.485   6.436  0.00  0.00    +0.000 C 
BRANCH  12  14
ATOM     13  O   UNL     1     -14.868   5.674   6.793  0.00  0.00    +0.000 OA
ATOM     14  C   UNL     1     -14.161   6.651   6.580  0.00  0.00    +0.000 C 
BRANCH  14  15
ATOM     15  O   UNL     1     -14.523   7.961   6.447  0.00  0.00    +0.000 OA
ATOM     16  C   UNL     1     -14.010   8.883   7.376  0.00  0.00    +0.000 C 
ENDBRANCH  14  15
ENDBRANCH  12  14
ENDBRANCH   1  11
TORSDOF 5
ENDMDL
MODEL 2
REMARK VINA RESULT:      -4.1     24.415     25.641
REMARK  Name = 5357283_Methylferulate.pdbqt.pdb
REMARK  5 active torsions:
REMARK  status: ('A' for Active; 'I' for Inactive)
REMARK    1  A    between atoms: C_1  and  C_11
REMARK    2  A    between atoms: C_2  and  O_7
REMARK    3  A    between atoms: C_5  and  O_9
REMARK    4  A    between atoms: C_12  and  C_14
REMARK    5  A    between atoms: C_14  and  O_15
REMARK                            x       y       z     vdW  Elec       q    Type
REMARK                         _______ _______ _______ _____ _____    ______ ____
ROOT
ATOM      1  C   UNL     1      -9.552 -17.681   9.607  0.00  0.00    +0.000 A 
ATOM      2  C   UNL     1     -11.727 -17.706  10.679  0.00  0.00    +0.000 A 
ATOM      3  C   UNL     1     -10.671 -18.379  10.057  0.00  0.00    +0.000 A 
ATOM      4  C   UNL     1      -9.476 -16.300   9.775  0.00  0.00    +0.000 A 
ATOM      5  C   UNL     1     -11.637 -16.321  10.840  0.00  0.00    +0.000 A 
ATOM      6  C   UNL     1     -10.519 -15.618  10.393  0.00  0.00    +0.000 A 
ENDROOT
BRANCH   2   7
ATOM      7  O   UNL     1     -12.864 -18.318  11.150  0.00  0.00    +0.000 OA
ATOM      8  C   UNL     1     -12.700 -19.071  12.323  0.00  0.00    +0.000 C 
ENDBRANCH   2   7
BRANCH   5   9
ATOM      9  O   UNL     1     -12.659 -15.644  11.448  0.00  0.00    +0.000 OA
ATOM     10  H   UNL     1     -13.069 -15.046  10.796  0.00  0.00    +0.000 HD
ENDBRANCH   5   9
BRANCH   1  11
ATOM     11  C   UNL     1      -8.485 -18.383   8.974  0.00  0.00    +0.000 C 
ATOM     12  C   UNL     1      -7.586 -18.976   8.438  0.00  0.00    +0.000 C 
BRANCH  12  14
ATOM     13  O   UNL     1      -5.355 -19.313   7.940  0.00  0.00    +0.000 OA
ATOM     14  C   UNL     1      -6.509 -19.692   7.795  0.00  0.00    +0.000 C 
BRANCH  14  15
ATOM     15  O   UNL     1      -6.982 -20.753   7.076  0.00  0.00    +0.000 OA
ATOM     16  C   UNL     1      -7.426 -21.882   7.785  0.00  0.00    +0.000 C 
ENDBRANCH  14  15
ENDBRANCH  12  14
ENDBRANCH   1  11
TORSDOF 5
ENDMDL
MODEL 3
REMARK VINA RESULT:      -4.1     22.936     23.422
REMARK  Name = 5357283_Methylferulate.pdbqt.pdb
REMARK  5 active torsions:
REMARK  status: ('A' for Active; 'I' for Inactive)
REMARK    1  A    between atoms: C_1  and  C_11
REMARK    2  A    between atoms: C_2  and  O_7
REMARK    3  A    between atoms: C_5  and  O_9
REMARK    4  A    between atoms: C_12  and  C_14
REMARK    5  A    between atoms: C_14  and  O_15
REMARK                            x       y       z     vdW  Elec       q    Type
REMARK                         _______ _______ _______ _____ _____    ______ ____
ROOT
ATOM      1  C   UNL     1     -11.532 -16.224  10.916  0.00  0.00    +0.000 A 
ATOM      2  C   UNL     1     -11.939 -15.661   8.592  0.00  0.00    +0.000 A 
ATOM      3  C   UNL     1     -12.408 -16.080   9.841  0.00  0.00    +0.000 A 
ATOM      4  C   UNL     1     -10.176 -15.950  10.753  0.00  0.00    +0.000 A 
ATOM      5  C   UNL     1     -10.577 -15.390   8.444  0.00  0.00    +0.000 A 
ATOM      6  C   UNL     1      -9.696 -15.532   9.516  0.00  0.00    +0.000 A 
ENDROOT
BRANCH   2   7
ATOM      7  O   UNL     1     -12.734 -15.493   7.484  0.00  0.00    +0.000 OA
ATOM      8  C   UNL     1     -14.081 -15.199   7.748  0.00  0.00    +0.000 C 
ENDBRANCH   2   7
BRANCH   5   9
ATOM      9  O   UNL     1     -10.099 -14.977   7.230  0.00  0.00    +0.000 OA
ATOM     10  H   UNL     1      -9.583 -15.703   6.834  0.00  0.00    +0.000 HD
ENDBRANCH   5   9
BRANCH   1  11
ATOM     11  C   UNL     1     -12.027 -16.654  12.182  0.00  0.00    +0.000 C 
ATOM     12  C   UNL     1     -12.445 -17.018  13.249  0.00  0.00    +0.000 C 
BRANCH  12  14
ATOM     13  O   UNL     1     -12.447 -18.420  15.086  0.00  0.00    +0.000 OA
ATOM     14  C   UNL     1     -12.952 -17.455  14.529  0.00  0.00    +0.000 C 
BRANCH  14  15
ATOM     15  O   UNL     1     -13.988 -16.667  14.944  0.00  0.00    +0.000 OA
ATOM     16  C   UNL     1     -15.228 -16.816  14.300  0.00  0.00    +0.000 C 
ENDBRANCH  14  15
ENDBRANCH  12  14
ENDBRANCH   1  11
TORSDOF 5
ENDMDL
MODEL 4
REMARK VINA RESULT:      -4.1      1.299      2.704
REMARK  Name = 5357283_Methylferulate.pdbqt.pdb
REMARK  5 active torsions:
REMARK  status: ('A' for Active; 'I' for Inactive)
REMARK    1  A    between atoms: C_1  and  C_11
REMARK    2  A    between atoms: C_2  and  O_7
REMARK    3  A    between atoms: C_5  and  O_9
REMARK    4  A    between atoms: C_12  and  C_14
REMARK    5  A    between atoms: C_14  and  O_15
REMARK                            x       y       z     vdW  Elec       q    Type
REMARK                         _______ _______ _______ _____ _____    ______ ____
ROOT
ATOM      1  C   UNL     1     -10.872   5.765   4.530  0.00  0.00    +0.000 A 
ATOM      2  C   UNL     1      -8.494   5.300   4.418  0.00  0.00    +0.000 A 
ATOM      3  C   UNL     1      -9.633   5.639   5.156  0.00  0.00    +0.000 A 
ATOM      4  C   UNL     1     -10.987   5.552   3.158  0.00  0.00    +0.000 A 
ATOM      5  C   UNL     1      -8.625   5.089   3.043  0.00  0.00    +0.000 A 
ATOM      6  C   UNL     1      -9.862   5.214   2.412  0.00  0.00    +0.000 A 
ENDROOT
BRANCH   2   7
ATOM      7  O   UNL     1      -7.238   5.156   4.956  0.00  0.00    +0.000 OA
ATOM      8  C   UNL     1      -6.799   6.224   5.754  0.00  0.00    +0.000 C 
ENDBRANCH   2   7
BRANCH   5   9
ATOM      9  O   UNL     1      -7.523   4.755   2.304  0.00  0.00    +0.000 OA
ATOM     10  H   UNL     1      -6.871   4.329   2.890  0.00  0.00    +0.000 HD
ENDBRANCH   5   9
BRANCH   1  11
ATOM     11  C   UNL     1     -12.022   6.113   5.298  0.00  0.00    +0.000 C 
ATOM     12  C   UNL     1     -12.992   6.407   5.944  0.00  0.00    +0.000 C 
BRANCH  12  14
ATOM     13  O   UNL     1     -14.238   6.416   7.890  0.00  0.00    +0.000 OA
ATOM     14  C   UNL     1     -14.156   6.766   6.720  0.00  0.00    +0.000 C 
BRANCH  14  15
ATOM     15  O   UNL     1     -15.044   7.488   5.975  0.00  0.00    +0.000 OA
ATOM     16  C   UNL     1     -16.234   6.857   5.574  0.00  0.00    +0.000 C 
ENDBRANCH  14  15
ENDBRANCH  12  14
ENDBRANCH   1  11
TORSDOF 5
ENDMDL
MODEL 5
REMARK VINA RESULT:      -4.1     23.139     24.191
REMARK  Name = 5357283_Methylferulate.pdbqt.pdb
REMARK  5 active torsions:
REMARK  status: ('A' for Active; 'I' for Inactive)
REMARK    1  A    between atoms: C_1  and  C_11
REMARK    2  A    between atoms: C_2  and  O_7
REMARK    3  A    between atoms: C_5  and  O_9
REMARK    4  A    between atoms: C_12  and  C_14
REMARK    5  A    between atoms: C_14  and  O_15
REMARK                            x       y       z     vdW  Elec       q    Type
REMARK                         _______ _______ _______ _____ _____    ______ ____
ROOT
ATOM      1  C   UNL     1     -12.587 -16.297  12.488  0.00  0.00    +0.000 A 
ATOM      2  C   UNL     1     -14.516 -15.599  13.783  0.00  0.00    +0.000 A 
ATOM      3  C   UNL     1     -13.681 -15.452  12.671  0.00  0.00    +0.000 A 
ATOM      4  C   UNL     1     -12.316 -17.300  13.416  0.00  0.00    +0.000 A 
ATOM      5  C   UNL     1     -14.231 -16.609  14.706  0.00  0.00    +0.000 A 
ATOM      6  C   UNL     1     -13.139 -17.457  14.528  0.00  0.00    +0.000 A 
ENDROOT
BRANCH   2   7
ATOM      7  O   UNL     1     -15.612 -14.810  14.038  0.00  0.00    +0.000 OA
ATOM      8  C   UNL     1     -16.437 -14.552  12.932  0.00  0.00    +0.000 C 
ENDBRANCH   2   7
BRANCH   5   9
ATOM      9  O   UNL     1     -15.037 -16.770  15.800  0.00  0.00    +0.000 OA
ATOM     10  H   UNL     1     -15.744 -16.100  15.769  0.00  0.00    +0.000 HD
ENDBRANCH   5   9
BRANCH   1  11
ATOM     11  C   UNL     1     -11.746 -16.132  11.349  0.00  0.00    +0.000 C 
ATOM     12  C   UNL     1     -11.038 -15.993  10.387  0.00  0.00    +0.000 C 
BRANCH  12  14
ATOM     13  O   UNL     1     -10.565 -15.138   8.293  0.00  0.00    +0.000 OA
ATOM     14  C   UNL     1     -10.189 -15.830   9.230  0.00  0.00    +0.000 C 
BRANCH  14  15
ATOM     15  O   UNL     1      -9.020 -16.521   9.375  0.00  0.00    +0.000 OA
ATOM     16  C   UNL     1      -9.065 -17.921   9.261  0.00  0.00    +0.000 C 
ENDBRANCH  14  15
ENDBRANCH  12  14
ENDBRANCH   1  11
TORSDOF 5
ENDMDL
MODEL 6
REMARK VINA RESULT:      -4.0     23.523     24.809
REMARK  Name = 5357283_Methylferulate.pdbqt.pdb
REMARK  5 active torsions:
REMARK  status: ('A' for Active; 'I' for Inactive)
REMARK    1  A    between atoms: C_1  and  C_11
REMARK    2  A    between atoms: C_2  and  O_7
REMARK    3  A    between atoms: C_5  and  O_9
REMARK    4  A    between atoms: C_12  and  C_14
REMARK    5  A    between atoms: C_14  and  O_15
REMARK                            x       y       z     vdW  Elec       q    Type
REMARK                         _______ _______ _______ _____ _____    ______ ____
ROOT
ATOM      1  C   UNL     1      -8.904  -6.269  26.465  0.00  0.00    +0.000 A 
ATOM      2  C   UNL     1      -8.988  -3.885  26.902  0.00  0.00    +0.000 A 
ATOM      3  C   UNL     1      -9.465  -5.179  27.129  0.00  0.00    +0.000 A 
ATOM      4  C   UNL     1      -7.858  -6.076  25.566  0.00  0.00    +0.000 A 
ATOM      5  C   UNL     1      -7.938  -3.706  25.997  0.00  0.00    +0.000 A 
ATOM      6  C   UNL     1      -7.373  -4.792  25.331  0.00  0.00    +0.000 A 
ENDROOT
BRANCH   2   7
ATOM      7  O   UNL     1      -9.485  -2.759  27.514  0.00  0.00    +0.000 OA
ATOM      8  C   UNL     1     -10.577  -2.971  28.369  0.00  0.00    +0.000 C 
ENDBRANCH   2   7
BRANCH   5   9
ATOM      9  O   UNL     1      -7.456  -2.447  25.763  0.00  0.00    +0.000 OA
ATOM     10  H   UNL     1      -6.702  -2.285  26.358  0.00  0.00    +0.000 HD
ENDBRANCH   5   9
BRANCH   1  11
ATOM     11  C   UNL     1      -9.404  -7.582  26.707  0.00  0.00    +0.000 C 
ATOM     12  C   UNL     1      -9.826  -8.689  26.913  0.00  0.00    +0.000 C 
BRANCH  12  14
ATOM     13  O   UNL     1      -9.550 -10.948  27.313  0.00  0.00    +0.000 OA
ATOM     14  C   UNL     1     -10.332 -10.018  27.165  0.00  0.00    +0.000 C 
BRANCH  14  15
ATOM     15  O   UNL     1     -11.697 -10.028  27.201  0.00  0.00    +0.000 OA
ATOM     16  C   UNL     1     -12.388  -9.952  25.979  0.00  0.00    +0.000 C 
ENDBRANCH  14  15
ENDBRANCH  12  14
ENDBRANCH   1  11
TORSDOF 5
ENDMDL
MODEL 7
REMARK VINA RESULT:      -4.0     10.619     14.188
REMARK  Name = 5357283_Methylferulate.pdbqt.pdb
REMARK  5 active torsions:
REMARK  status: ('A' for Active; 'I' for Inactive)
REMARK    1  A    between atoms: C_1  and  C_11
REMARK    2  A    between atoms: C_2  and  O_7
REMARK    3  A    between atoms: C_5  and  O_9
REMARK    4  A    between atoms: C_12  and  C_14
REMARK    5  A    between atoms: C_14  and  O_15
REMARK                            x       y       z     vdW  Elec       q    Type
REMARK                         _______ _______ _______ _____ _____    ______ ____
ROOT
ATOM      1  C   UNL     1      -3.854  -2.283  -2.088  0.00  0.00    +0.000 A 
ATOM      2  C   UNL     1      -5.125  -2.564  -0.041  0.00  0.00    +0.000 A 
ATOM      3  C   UNL     1      -4.621  -1.745  -1.055  0.00  0.00    +0.000 A 
ATOM      4  C   UNL     1      -3.584  -3.649  -2.117  0.00  0.00    +0.000 A 
ATOM      5  C   UNL     1      -4.845  -3.932  -0.084  0.00  0.00    +0.000 A 
ATOM      6  C   UNL     1      -4.079  -4.476  -1.114  0.00  0.00    +0.000 A 
ENDROOT
BRANCH   2   7
ATOM      7  O   UNL     1      -5.887  -2.115   1.010  0.00  0.00    +0.000 OA
ATOM      8  C   UNL     1      -6.996  -1.330   0.657  0.00  0.00    +0.000 C 
ENDBRANCH   2   7
BRANCH   5   9
ATOM      9  O   UNL     1      -5.331  -4.752   0.899  0.00  0.00    +0.000 OA
ATOM     10  H   UNL     1      -6.120  -5.213   0.560  0.00  0.00    +0.000 HD
ENDBRANCH   5   9
BRANCH   1  11
ATOM     11  C   UNL     1      -3.347  -1.432  -3.113  0.00  0.00    +0.000 C 
ATOM     12  C   UNL     1      -2.919  -0.716  -3.978  0.00  0.00    +0.000 C 
BRANCH  12  14
ATOM     13  O   UNL     1      -2.794   0.012  -6.168  0.00  0.00    +0.000 OA
ATOM     14  C   UNL     1      -2.400   0.144  -5.017  0.00  0.00    +0.000 C 
BRANCH  14  15
ATOM     15  O   UNL     1      -1.489   1.029  -4.516  0.00  0.00    +0.000 OA
ATOM     16  C   UNL     1      -1.566   2.366  -4.943  0.00  0.00    +0.000 C 
ENDBRANCH  14  15
ENDBRANCH  12  14
ENDBRANCH   1  11
TORSDOF 5
ENDMDL
MODEL 8
REMARK VINA RESULT:      -4.0     22.801     23.858
REMARK  Name = 5357283_Methylferulate.pdbqt.pdb
REMARK  5 active torsions:
REMARK  status: ('A' for Active; 'I' for Inactive)
REMARK    1  A    between atoms: C_1  and  C_11
REMARK    2  A    between atoms: C_2  and  O_7
REMARK    3  A    between atoms: C_5  and  O_9
REMARK    4  A    between atoms: C_12  and  C_14
REMARK    5  A    between atoms: C_14  and  O_15
REMARK                            x       y       z     vdW  Elec       q    Type
REMARK                         _______ _______ _______ _____ _____    ______ ____
ROOT
ATOM      1  C   UNL     1     -12.340 -16.316  11.663  0.00  0.00    +0.000 A 
ATOM      2  C   UNL     1     -14.399 -15.053  11.877  0.00  0.00    +0.000 A 
ATOM      3  C   UNL     1     -13.331 -15.511  11.101  0.00  0.00    +0.000 A 
ATOM      4  C   UNL     1     -12.408 -16.671  13.008  0.00  0.00    +0.000 A 
ATOM      5  C   UNL     1     -14.454 -15.418  13.225  0.00  0.00    +0.000 A 
ATOM      6  C   UNL     1     -13.466 -16.222  13.791  0.00  0.00    +0.000 A 
ENDROOT
BRANCH   2   7
ATOM      7  O   UNL     1     -15.415 -14.258  11.403  0.00  0.00    +0.000 OA
ATOM      8  C   UNL     1     -15.328 -13.917  10.044  0.00  0.00    +0.000 C 
ENDBRANCH   2   7
BRANCH   5   9
ATOM      9  O   UNL     1     -15.493 -14.980  14.001  0.00  0.00    +0.000 OA
ATOM     10  H   UNL     1     -15.997 -14.312  13.501  0.00  0.00    +0.000 HD
ENDBRANCH   5   9
BRANCH   1  11
ATOM     11  C   UNL     1     -11.256 -16.773  10.857  0.00  0.00    +0.000 C 
ATOM     12  C   UNL     1     -10.343 -17.158  10.176  0.00  0.00    +0.000 C 
BRANCH  12  14
ATOM     13  O   UNL     1      -8.802 -18.750   9.521  0.00  0.00    +0.000 OA
ATOM     14  C   UNL     1      -9.249 -17.623   9.355  0.00  0.00    +0.000 C 
BRANCH  14  15
ATOM     15  O   UNL     1      -8.860 -16.666   8.462  0.00  0.00    +0.000 OA
ATOM     16  C   UNL     1      -9.564 -16.572   7.250  0.00  0.00    +0.000 C 
ENDBRANCH  14  15
ENDBRANCH  12  14
ENDBRANCH   1  11
TORSDOF 5
ENDMDL
MODEL 9
REMARK VINA RESULT:      -3.9     24.369     26.002
REMARK  Name = 5357283_Methylferulate.pdbqt.pdb
REMARK  5 active torsions:
REMARK  status: ('A' for Active; 'I' for Inactive)
REMARK    1  A    between atoms: C_1  and  C_11
REMARK    2  A    between atoms: C_2  and  O_7
REMARK    3  A    between atoms: C_5  and  O_9
REMARK    4  A    between atoms: C_12  and  C_14
REMARK    5  A    between atoms: C_14  and  O_15
REMARK                            x       y       z     vdW  Elec       q    Type
REMARK                         _______ _______ _______ _____ _____    ______ ____
ROOT
ATOM      1  C   UNL     1     -11.316  -8.415  26.573  0.00  0.00    +0.000 A 
ATOM      2  C   UNL     1     -13.666  -8.172  27.119  0.00  0.00    +0.000 A 
ATOM      3  C   UNL     1     -12.360  -7.673  27.124  0.00  0.00    +0.000 A 
ATOM      4  C   UNL     1     -11.566  -9.665  26.012  0.00  0.00    +0.000 A 
ATOM      5  C   UNL     1     -13.902  -9.427  26.553  0.00  0.00    +0.000 A 
ATOM      6  C   UNL     1     -12.862 -10.173  26.001  0.00  0.00    +0.000 A 
ENDROOT
BRANCH   2   7
ATOM      7  O   UNL     1     -14.750  -7.507  27.640  0.00  0.00    +0.000 OA
ATOM      8  C   UNL     1     -14.694  -7.249  29.018  0.00  0.00    +0.000 C 
ENDBRANCH   2   7
BRANCH   5   9
ATOM      9  O   UNL     1     -15.175  -9.933  26.538  0.00  0.00    +0.000 OA
ATOM     10  H   UNL     1     -15.291 -10.509  27.316  0.00  0.00    +0.000 HD
ENDBRANCH   5   9
BRANCH   1  11
ATOM     11  C   UNL     1      -9.990  -7.891  26.588  0.00  0.00    +0.000 C 
ATOM     12  C   UNL     1      -8.871  -7.450  26.598  0.00  0.00    +0.000 C 
BRANCH  12  14
ATOM     13  O   UNL     1      -6.829  -7.064  27.609  0.00  0.00    +0.000 OA
ATOM     14  C   UNL     1      -7.526  -6.925  26.612  0.00  0.00    +0.000 C 
BRANCH  14  15
ATOM     15  O   UNL     1      -7.222  -6.314  25.429  0.00  0.00    +0.000 OA
ATOM     16  C   UNL     1      -7.466  -4.934  25.319  0.00  0.00    +0.000 C 
ENDBRANCH  14  15
ENDBRANCH  12  14
ENDBRANCH   1  11
TORSDOF 5
ENDMDL
