MODEL 1
REMARK VINA RESULT:      -5.2      0.000      0.000
REMARK  Name = 5358691_Yuanhuacine.pdbqt.pdb
REMARK  12 active torsions:
REMARK  status: ('A' for Active; 'I' for Inactive)
REMARK    1  A    between atoms: C_9  and  C_48
REMARK    2  A    between atoms: C_13  and  C_23
REMARK    3  A    between atoms: C_14  and  O_26
REMARK    4  A    between atoms: C_15  and  O_28
REMARK    5  A    between atoms: C_16  and  O_39
REMARK    6  A    between atoms: C_17  and  C_30
REMARK    7  A    between atoms: C_31  and  C_32
REMARK    8  A    between atoms: C_33  and  C_34
REMARK    9  A    between atoms: C_35  and  C_36
REMARK   10  A    between atoms: O_39  and  C_41
REMARK   11  A    between atoms: C_41  and  C_42
REMARK   12  A    between atoms: C_48  and  O_49
REMARK                            x       y       z     vdW  Elec       q    Type
REMARK                         _______ _______ _______ _____ _____    ______ ____
ROOT
ATOM      1  O   UNL     1     -16.831 -10.225   3.998  0.00  0.00    +0.000 OA
ATOM      2  O   UNL     1     -15.583  -7.358   2.423  0.00  0.00    +0.000 OA
ATOM      3  O   UNL     1     -16.320  -9.021   0.899  0.00  0.00    +0.000 OA
ATOM      4  O   UNL     1     -14.677  -7.564   0.240  0.00  0.00    +0.000 OA
ATOM      5  O   UNL     1     -13.842  -8.554   7.921  0.00  0.00    +0.000 OA
ATOM      6  C   UNL     1     -15.003  -9.710   2.622  0.00  0.00    +0.000 C 
ATOM      7  C   UNL     1     -14.672  -8.285   3.089  0.00  0.00    +0.000 C 
ATOM      8  C   UNL     1     -15.710 -10.709   3.373  0.00  0.00    +0.000 C 
ATOM      9  C   UNL     1     -15.919 -10.995   4.793  0.00  0.00    +0.000 C 
ATOM     10  C   UNL     1     -15.101  -9.646   1.159  0.00  0.00    +0.000 C 
ATOM     11  C   UNL     1     -14.869  -8.114   4.565  0.00  0.00    +0.000 C 
ATOM     12  C   UNL     1     -13.215  -7.945   2.654  0.00  0.00    +0.000 C 
ATOM     13  C   UNL     1     -14.001  -8.840   0.426  0.00  0.00    +0.000 C 
ATOM     14  C   UNL     1     -14.268  -9.086   5.555  0.00  0.00    +0.000 C 
ATOM     15  C   UNL     1     -15.062 -10.333   5.814  0.00  0.00    +0.000 C 
ATOM     16  C   UNL     1     -12.852  -8.490   1.355  0.00  0.00    +0.000 C 
ATOM     17  C   UNL     1     -15.855  -7.674   1.036  0.00  0.00    +0.000 C 
ATOM     18  C   UNL     1     -15.182  -6.911   5.248  0.00  0.00    +0.000 C 
ATOM     19  C   UNL     1     -12.279  -6.944   3.333  0.00  0.00    +0.000 C 
ATOM     20  C   UNL     1     -14.262  -8.178   6.829  0.00  0.00    +0.000 C 
ATOM     21  C   UNL     1     -14.854  -6.842   6.494  0.00  0.00    +0.000 C 
ATOM     22  C   UNL     1     -15.459  -5.878   7.461  0.00  0.00    +0.000 C 
ENDROOT
BRANCH  13  23
ATOM     23  C   UNL     1     -13.641  -9.534  -0.908  0.00  0.00    +0.000 C 
ATOM     24  C   UNL     1     -12.957  -8.835  -2.082  0.00  0.00    +0.000 C 
ATOM     25  C   UNL     1     -14.138 -10.731  -1.283  0.00  0.00    +0.000 C 
ENDBRANCH  13  23
BRANCH  14  26
ATOM     26  O   UNL     1     -12.967  -9.472   5.166  0.00  0.00    +0.000 OA
ATOM     27  H   UNL     1     -12.817  -9.121   4.266  0.00  0.00    +0.000 HD
ENDBRANCH  14  26
BRANCH  15  28
ATOM     28  O   UNL     1     -14.826 -10.991   7.023  0.00  0.00    +0.000 OA
ATOM     29  H   UNL     1     -15.579 -10.983   7.653  0.00  0.00    +0.000 HD
ENDBRANCH  15  28
BRANCH  17  30
ATOM     30  C   UNL     1     -16.867  -6.750   0.533  0.00  0.00    +0.000 C 
ATOM     31  C   UNL     1     -17.698  -5.990   0.118  0.00  0.00    +0.000 C 
BRANCH  31  32
ATOM     32  C   UNL     1     -18.758  -5.022  -0.414  0.00  0.00    +0.000 C 
ATOM     33  C   UNL     1     -19.590  -4.263  -0.830  0.00  0.00    +0.000 C 
BRANCH  33  34
ATOM     34  C   UNL     1     -20.653  -3.297  -1.363  0.00  0.00    +0.000 C 
ATOM     35  C   UNL     1     -21.715  -2.331  -1.894  0.00  0.00    +0.000 C 
BRANCH  35  36
ATOM     36  C   UNL     1     -22.777  -1.363  -2.426  0.00  0.00    +0.000 C 
ATOM     37  C   UNL     1     -23.839  -0.395  -2.956  0.00  0.00    +0.000 C 
ATOM     38  C   UNL     1     -24.901   0.574  -3.486  0.00  0.00    +0.000 C 
ENDBRANCH  35  36
ENDBRANCH  33  34
ENDBRANCH  31  32
ENDBRANCH  17  30
BRANCH  16  39
ATOM     39  O   UNL     1     -11.487  -8.606   1.044  0.00  0.00    +0.000 OA
BRANCH  39  41
ATOM     40  O   UNL     1     -10.269  -9.605   2.717  0.00  0.00    +0.000 OA
ATOM     41  C   UNL     1     -10.860  -9.656   1.652  0.00  0.00    +0.000 C 
BRANCH  41  42
ATOM     42  C   UNL     1     -10.957 -10.865   0.814  0.00  0.00    +0.000 A 
ATOM     43  C   UNL     1     -11.702 -11.973   1.215  0.00  0.00    +0.000 A 
ATOM     44  C   UNL     1     -10.282 -10.878  -0.406  0.00  0.00    +0.000 A 
ATOM     45  C   UNL     1     -11.771 -13.096   0.394  0.00  0.00    +0.000 A 
ATOM     46  C   UNL     1     -10.353 -12.002  -1.225  0.00  0.00    +0.000 A 
ATOM     47  C   UNL     1     -11.097 -13.110  -0.824  0.00  0.00    +0.000 A 
ENDBRANCH  41  42
ENDBRANCH  39  41
ENDBRANCH  16  39
BRANCH   9  48
ATOM     48  C   UNL     1     -16.534 -12.266   5.151  0.00  0.00    +0.000 C 
BRANCH  48  49
ATOM     49  O   UNL     1     -17.094 -13.426   5.484  0.00  0.00    +0.000 OA
ATOM     50  H   UNL     1     -16.901 -14.102   4.811  0.00  0.00    +0.000 HD
ENDBRANCH  48  49
ENDBRANCH   9  48
TORSDOF 12
ENDMDL
MODEL 2
REMARK VINA RESULT:      -5.0     21.467     25.354
REMARK  Name = 5358691_Yuanhuacine.pdbqt.pdb
REMARK  12 active torsions:
REMARK  status: ('A' for Active; 'I' for Inactive)
REMARK    1  A    between atoms: C_9  and  C_48
REMARK    2  A    between atoms: C_13  and  C_23
REMARK    3  A    between atoms: C_14  and  O_26
REMARK    4  A    between atoms: C_15  and  O_28
REMARK    5  A    between atoms: C_16  and  O_39
REMARK    6  A    between atoms: C_17  and  C_30
REMARK    7  A    between atoms: C_31  and  C_32
REMARK    8  A    between atoms: C_33  and  C_34
REMARK    9  A    between atoms: C_35  and  C_36
REMARK   10  A    between atoms: O_39  and  C_41
REMARK   11  A    between atoms: C_41  and  C_42
REMARK   12  A    between atoms: C_48  and  O_49
REMARK                            x       y       z     vdW  Elec       q    Type
REMARK                         _______ _______ _______ _____ _____    ______ ____
ROOT
ATOM      1  O   UNL     1       2.143 -12.316  15.113  0.00  0.00    +0.000 OA
ATOM      2  O   UNL     1       1.403 -14.003  18.091  0.00  0.00    +0.000 OA
ATOM      3  O   UNL     1       0.233 -11.951  17.858  0.00  0.00    +0.000 OA
ATOM      4  O   UNL     1       0.682 -12.738  19.965  0.00  0.00    +0.000 OA
ATOM      5  O   UNL     1       6.512 -15.136  15.389  0.00  0.00    +0.000 OA
ATOM      6  C   UNL     1       2.463 -11.926  17.404  0.00  0.00    +0.000 C 
ATOM      7  C   UNL     1       2.700 -13.354  17.918  0.00  0.00    +0.000 C 
ATOM      8  C   UNL     1       2.654 -11.464  16.059  0.00  0.00    +0.000 C 
ATOM      9  C   UNL     1       3.490 -11.863  14.925  0.00  0.00    +0.000 C 
ATOM     10  C   UNL     1       1.423 -11.351  18.266  0.00  0.00    +0.000 C 
ATOM     11  C   UNL     1       3.481 -14.182  16.944  0.00  0.00    +0.000 C 
ATOM     12  C   UNL     1       3.402 -13.272  19.307  0.00  0.00    +0.000 C 
ATOM     13  C   UNL     1       1.570 -11.599  19.787  0.00  0.00    +0.000 C 
ATOM     14  C   UNL     1       4.774 -13.677  16.344  0.00  0.00    +0.000 C 
ATOM     15  C   UNL     1       4.635 -12.788  15.143  0.00  0.00    +0.000 C 
ATOM     16  C   UNL     1       2.936 -12.168  20.131  0.00  0.00    +0.000 C 
ATOM     17  C   UNL     1       0.369 -13.147  18.635  0.00  0.00    +0.000 C 
ATOM     18  C   UNL     1       3.440 -15.593  16.801  0.00  0.00    +0.000 C 
ATOM     19  C   UNL     1       4.308 -14.337  19.925  0.00  0.00    +0.000 C 
ATOM     20  C   UNL     1       5.414 -15.044  15.931  0.00  0.00    +0.000 C 
ATOM     21  C   UNL     1       4.476 -16.160  16.281  0.00  0.00    +0.000 C 
ATOM     22  C   UNL     1       4.458 -17.522  15.669  0.00  0.00    +0.000 C 
ENDROOT
BRANCH  13  23
ATOM     23  C   UNL     1       1.113 -10.346  20.571  0.00  0.00    +0.000 C 
ATOM     24  C   UNL     1       0.270 -10.393  21.845  0.00  0.00    +0.000 C 
ATOM     25  C   UNL     1       1.161  -9.095  20.070  0.00  0.00    +0.000 C 
ENDBRANCH  13  23
BRANCH  14  26
ATOM     26  O   UNL     1       5.549 -12.991  17.304  0.00  0.00    +0.000 OA
ATOM     27  H   UNL     1       4.978 -12.306  17.703  0.00  0.00    +0.000 HD
ENDBRANCH  14  26
BRANCH  15  28
ATOM     28  O   UNL     1       5.738 -12.706  14.288  0.00  0.00    +0.000 OA
ATOM     29  H   UNL     1       6.609 -12.833  14.722  0.00  0.00    +0.000 HD
ENDBRANCH  15  28
BRANCH  17  30
ATOM     30  C   UNL     1      -0.894 -13.878  18.638  0.00  0.00    +0.000 C 
ATOM     31  C   UNL     1      -1.933 -14.479  18.639  0.00  0.00    +0.000 C 
BRANCH  31  32
ATOM     32  C   UNL     1      -3.259 -15.245  18.638  0.00  0.00    +0.000 C 
ATOM     33  C   UNL     1      -4.299 -15.845  18.638  0.00  0.00    +0.000 C 
BRANCH  33  34
ATOM     34  C   UNL     1      -5.627 -16.608  18.637  0.00  0.00    +0.000 C 
ATOM     35  C   UNL     1      -6.953 -17.371  18.638  0.00  0.00    +0.000 C 
BRANCH  35  36
ATOM     36  C   UNL     1      -8.283 -18.135  18.639  0.00  0.00    +0.000 C 
ATOM     37  C   UNL     1      -9.611 -18.897  18.639  0.00  0.00    +0.000 C 
ATOM     38  C   UNL     1     -10.940 -19.660  18.638  0.00  0.00    +0.000 C 
ENDBRANCH  35  36
ENDBRANCH  33  34
ENDBRANCH  31  32
ENDBRANCH  17  30
BRANCH  16  39
ATOM     39  O   UNL     1       3.750 -11.749  21.196  0.00  0.00    +0.000 OA
BRANCH  39  41
ATOM     40  O   UNL     1       5.463 -10.941  19.895  0.00  0.00    +0.000 OA
ATOM     41  C   UNL     1       4.708 -10.840  20.847  0.00  0.00    +0.000 C 
BRANCH  41  42
ATOM     42  C   UNL     1       4.736  -9.728  21.814  0.00  0.00    +0.000 A 
ATOM     43  C   UNL     1       5.082  -9.931  23.149  0.00  0.00    +0.000 A 
ATOM     44  C   UNL     1       4.407  -8.451  21.361  0.00  0.00    +0.000 A 
ATOM     45  C   UNL     1       5.099  -8.854  24.033  0.00  0.00    +0.000 A 
ATOM     46  C   UNL     1       4.425  -7.376  22.246  0.00  0.00    +0.000 A 
ATOM     47  C   UNL     1       4.770  -7.578  23.580  0.00  0.00    +0.000 A 
ENDBRANCH  41  42
ENDBRANCH  39  41
ENDBRANCH  16  39
BRANCH   9  48
ATOM     48  C   UNL     1       3.552 -10.973  13.774  0.00  0.00    +0.000 C 
BRANCH  48  49
ATOM     49  O   UNL     1       3.607 -10.165  12.719  0.00  0.00    +0.000 OA
ATOM     50  H   UNL     1       4.300 -10.458  12.102  0.00  0.00    +0.000 HD
ENDBRANCH  48  49
ENDBRANCH   9  48
TORSDOF 12
ENDMDL
MODEL 3
REMARK VINA RESULT:      -5.0     22.370     27.194
REMARK  Name = 5358691_Yuanhuacine.pdbqt.pdb
REMARK  12 active torsions:
REMARK  status: ('A' for Active; 'I' for Inactive)
REMARK    1  A    between atoms: C_9  and  C_48
REMARK    2  A    between atoms: C_13  and  C_23
REMARK    3  A    between atoms: C_14  and  O_26
REMARK    4  A    between atoms: C_15  and  O_28
REMARK    5  A    between atoms: C_16  and  O_39
REMARK    6  A    between atoms: C_17  and  C_30
REMARK    7  A    between atoms: C_31  and  C_32
REMARK    8  A    between atoms: C_33  and  C_34
REMARK    9  A    between atoms: C_35  and  C_36
REMARK   10  A    between atoms: O_39  and  C_41
REMARK   11  A    between atoms: C_41  and  C_42
REMARK   12  A    between atoms: C_48  and  O_49
REMARK                            x       y       z     vdW  Elec       q    Type
REMARK                         _______ _______ _______ _____ _____    ______ ____
ROOT
ATOM      1  O   UNL     1       4.694 -11.790  15.646  0.00  0.00    +0.000 OA
ATOM      2  O   UNL     1       7.671 -10.928  14.018  0.00  0.00    +0.000 OA
ATOM      3  O   UNL     1       6.772  -9.164  15.328  0.00  0.00    +0.000 OA
ATOM      4  O   UNL     1       8.067  -8.644  13.509  0.00  0.00    +0.000 OA
ATOM      5  O   UNL     1       4.408 -15.309  11.818  0.00  0.00    +0.000 OA
ATOM      6  C   UNL     1       5.329 -10.280  13.967  0.00  0.00    +0.000 C 
ATOM      7  C   UNL     1       6.434 -11.074  13.256  0.00  0.00    +0.000 C 
ATOM      8  C   UNL     1       4.269 -10.826  14.767  0.00  0.00    +0.000 C 
ATOM      9  C   UNL     1       3.558 -12.104  14.828  0.00  0.00    +0.000 C 
ATOM     10  C   UNL     1       5.901  -8.960  14.259  0.00  0.00    +0.000 C 
ATOM     11  C   UNL     1       6.126 -12.539  13.193  0.00  0.00    +0.000 C 
ATOM     12  C   UNL     1       6.651 -10.464  11.838  0.00  0.00    +0.000 C 
ATOM     13  C   UNL     1       6.710  -8.289  13.122  0.00  0.00    +0.000 C 
ATOM     14  C   UNL     1       4.789 -13.039  12.693  0.00  0.00    +0.000 C 
ATOM     15  C   UNL     1       3.681 -13.071  13.704  0.00  0.00    +0.000 C 
ATOM     16  C   UNL     1       6.526  -9.016  11.801  0.00  0.00    +0.000 C 
ATOM     17  C   UNL     1       7.895  -9.600  14.553  0.00  0.00    +0.000 C 
ATOM     18  C   UNL     1       7.060 -13.604  13.121  0.00  0.00    +0.000 C 
ATOM     19  C   UNL     1       7.189 -11.200  10.611  0.00  0.00    +0.000 C 
ATOM     20  C   UNL     1       5.196 -14.497  12.295  0.00  0.00    +0.000 C 
ATOM     21  C   UNL     1       6.646 -14.714  12.609  0.00  0.00    +0.000 C 
ATOM     22  C   UNL     1       7.313 -16.032  12.832  0.00  0.00    +0.000 C 
ENDROOT
BRANCH  13  23
ATOM     23  C   UNL     1       6.458  -6.763  13.126  0.00  0.00    +0.000 C 
ATOM     24  C   UNL     1       7.521  -5.720  13.471  0.00  0.00    +0.000 C 
ATOM     25  C   UNL     1       5.228  -6.211  13.109  0.00  0.00    +0.000 C 
ENDBRANCH  13  23
BRANCH  14  26
ATOM     26  O   UNL     1       4.344 -12.286  11.585  0.00  0.00    +0.000 OA
ATOM     27  H   UNL     1       4.374 -11.344  11.843  0.00  0.00    +0.000 HD
ENDBRANCH  14  26
BRANCH  15  28
ATOM     28  O   UNL     1       2.622 -13.947  13.452  0.00  0.00    +0.000 OA
ATOM     29  H   UNL     1       1.749 -13.648  13.784  0.00  0.00    +0.000 HD
ENDBRANCH  15  28
BRANCH  17  30
ATOM     30  C   UNL     1       9.091  -9.625  15.389  0.00  0.00    +0.000 C 
ATOM     31  C   UNL     1      10.075  -9.645  16.075  0.00  0.00    +0.000 C 
BRANCH  31  32
ATOM     32  C   UNL     1      11.332  -9.670  16.950  0.00  0.00    +0.000 C 
ATOM     33  C   UNL     1      12.317  -9.688  17.635  0.00  0.00    +0.000 C 
BRANCH  33  34
ATOM     34  C   UNL     1      13.577  -9.713  18.507  0.00  0.00    +0.000 C 
ATOM     35  C   UNL     1      14.834  -9.737  19.379  0.00  0.00    +0.000 C 
BRANCH  35  36
ATOM     36  C   UNL     1      16.094  -9.764  20.252  0.00  0.00    +0.000 C 
ATOM     37  C   UNL     1      17.352  -9.791  21.124  0.00  0.00    +0.000 C 
ATOM     38  C   UNL     1      18.612  -9.819  21.995  0.00  0.00    +0.000 C 
ENDBRANCH  35  36
ENDBRANCH  33  34
ENDBRANCH  31  32
ENDBRANCH  17  30
BRANCH  16  39
ATOM     39  O   UNL     1       6.294  -8.404  10.558  0.00  0.00    +0.000 OA
BRANCH  39  41
ATOM     40  O   UNL     1       8.506  -7.983  10.099  0.00  0.00    +0.000 OA
ATOM     41  C   UNL     1       7.334  -7.645  10.103  0.00  0.00    +0.000 C 
BRANCH  41  42
ATOM     42  C   UNL     1       6.849  -6.329   9.651  0.00  0.00    +0.000 A 
ATOM     43  C   UNL     1       5.579  -6.170   9.098  0.00  0.00    +0.000 A 
ATOM     44  C   UNL     1       7.695  -5.230   9.791  0.00  0.00    +0.000 A 
ATOM     45  C   UNL     1       5.155  -4.908   8.685  0.00  0.00    +0.000 A 
ATOM     46  C   UNL     1       7.270  -3.971   9.378  0.00  0.00    +0.000 A 
ATOM     47  C   UNL     1       6.001  -3.811   8.825  0.00  0.00    +0.000 A 
ENDBRANCH  41  42
ENDBRANCH  39  41
ENDBRANCH  16  39
BRANCH   9  48
ATOM     48  C   UNL     1       2.364 -12.182  15.658  0.00  0.00    +0.000 C 
BRANCH  48  49
ATOM     49  O   UNL     1       1.269 -12.253  16.411  0.00  0.00    +0.000 OA
ATOM     50  H   UNL     1       0.484 -12.006  15.892  0.00  0.00    +0.000 HD
ENDBRANCH  48  49
ENDBRANCH   9  48
TORSDOF 12
ENDMDL
MODEL 4
REMARK VINA RESULT:      -4.9     16.861     21.267
REMARK  Name = 5358691_Yuanhuacine.pdbqt.pdb
REMARK  12 active torsions:
REMARK  status: ('A' for Active; 'I' for Inactive)
REMARK    1  A    between atoms: C_9  and  C_48
REMARK    2  A    between atoms: C_13  and  C_23
REMARK    3  A    between atoms: C_14  and  O_26
REMARK    4  A    between atoms: C_15  and  O_28
REMARK    5  A    between atoms: C_16  and  O_39
REMARK    6  A    between atoms: C_17  and  C_30
REMARK    7  A    between atoms: C_31  and  C_32
REMARK    8  A    between atoms: C_33  and  C_34
REMARK    9  A    between atoms: C_35  and  C_36
REMARK   10  A    between atoms: O_39  and  C_41
REMARK   11  A    between atoms: C_41  and  C_42
REMARK   12  A    between atoms: C_48  and  O_49
REMARK                            x       y       z     vdW  Elec       q    Type
REMARK                         _______ _______ _______ _____ _____    ______ ____
ROOT
ATOM      1  O   UNL     1     -10.132 -16.558  20.889  0.00  0.00    +0.000 OA
ATOM      2  O   UNL     1      -9.838 -18.517  18.002  0.00  0.00    +0.000 OA
ATOM      3  O   UNL     1     -11.966 -18.686  19.039  0.00  0.00    +0.000 OA
ATOM      4  O   UNL     1     -11.194 -20.454  17.801  0.00  0.00    +0.000 OA
ATOM      5  O   UNL     1      -4.942 -16.990  20.897  0.00  0.00    +0.000 OA
ATOM      6  C   UNL     1     -10.143 -18.850  20.391  0.00  0.00    +0.000 C 
ATOM      7  C   UNL     1      -9.143 -18.905  19.227  0.00  0.00    +0.000 C 
ATOM      8  C   UNL     1     -10.221 -17.829  21.397  0.00  0.00    +0.000 C 
ATOM      9  C   UNL     1      -9.282 -16.880  21.998  0.00  0.00    +0.000 C 
ATOM     10  C   UNL     1     -11.343 -19.558  19.930  0.00  0.00    +0.000 C 
ATOM     11  C   UNL     1      -8.006 -17.946  19.411  0.00  0.00    +0.000 C 
ATOM     12  C   UNL     1      -8.645 -20.374  19.069  0.00  0.00    +0.000 C 
ATOM     13  C   UNL     1     -11.114 -20.896  19.186  0.00  0.00    +0.000 C 
ATOM     14  C   UNL     1      -7.223 -17.897  20.704  0.00  0.00    +0.000 C 
ATOM     15  C   UNL     1      -7.818 -17.064  21.800  0.00  0.00    +0.000 C 
ATOM     16  C   UNL     1      -9.676 -21.369  19.315  0.00  0.00    +0.000 C 
ATOM     17  C   UNL     1     -11.188 -19.031  17.888  0.00  0.00    +0.000 C 
ATOM     18  C   UNL     1      -7.230 -17.339  18.391  0.00  0.00    +0.000 C 
ATOM     19  C   UNL     1      -7.306 -20.814  18.476  0.00  0.00    +0.000 C 
ATOM     20  C   UNL     1      -5.907 -17.233  20.178  0.00  0.00    +0.000 C 
ATOM     21  C   UNL     1      -6.044 -16.944  18.713  0.00  0.00    +0.000 C 
ATOM     22  C   UNL     1      -5.266 -15.932  17.937  0.00  0.00    +0.000 C 
ENDROOT
BRANCH  13  23
ATOM     23  C   UNL     1     -12.223 -21.906  19.564  0.00  0.00    +0.000 C 
ATOM     24  C   UNL     1     -12.579 -23.139  18.735  0.00  0.00    +0.000 C 
ATOM     25  C   UNL     1     -13.169 -21.659  20.493  0.00  0.00    +0.000 C 
ENDBRANCH  13  23
BRANCH  14  26
ATOM     26  O   UNL     1      -7.000 -19.194  21.215  0.00  0.00    +0.000 OA
ATOM     27  H   UNL     1      -6.032 -19.327  21.258  0.00  0.00    +0.000 HD
ENDBRANCH  14  26
BRANCH  15  28
ATOM     28  O   UNL     1      -6.943 -16.596  22.783  0.00  0.00    +0.000 OA
ATOM     29  H   UNL     1      -6.060 -17.025  22.791  0.00  0.00    +0.000 HD
ENDBRANCH  15  28
BRANCH  17  30
ATOM     30  C   UNL     1     -11.804 -18.470  16.690  0.00  0.00    +0.000 C 
ATOM     31  C   UNL     1     -12.312 -18.007  15.706  0.00  0.00    +0.000 C 
BRANCH  31  32
ATOM     32  C   UNL     1     -12.957 -17.415  14.450  0.00  0.00    +0.000 C 
ATOM     33  C   UNL     1     -13.464 -16.950  13.467  0.00  0.00    +0.000 C 
BRANCH  33  34
ATOM     34  C   UNL     1     -14.113 -16.355  12.212  0.00  0.00    +0.000 C 
ATOM     35  C   UNL     1     -14.761 -15.761  10.960  0.00  0.00    +0.000 C 
BRANCH  35  36
ATOM     36  C   UNL     1     -15.410 -15.164   9.706  0.00  0.00    +0.000 C 
ATOM     37  C   UNL     1     -16.059 -14.569   8.453  0.00  0.00    +0.000 C 
ATOM     38  C   UNL     1     -16.709 -13.973   7.200  0.00  0.00    +0.000 C 
ENDBRANCH  35  36
ENDBRANCH  33  34
ENDBRANCH  31  32
ENDBRANCH  17  30
BRANCH  16  39
ATOM     39  O   UNL     1      -9.272 -22.683  19.603  0.00  0.00    +0.000 OA
BRANCH  39  41
ATOM     40  O   UNL     1      -7.556 -22.960  21.107  0.00  0.00    +0.000 OA
ATOM     41  C   UNL     1      -8.743 -22.847  20.852  0.00  0.00    +0.000 C 
BRANCH  41  42
ATOM     42  C   UNL     1      -9.818 -22.914  21.858  0.00  0.00    +0.000 A 
ATOM     43  C   UNL     1     -10.080 -21.848  22.718  0.00  0.00    +0.000 A 
ATOM     44  C   UNL     1     -10.579 -24.079  21.934  0.00  0.00    +0.000 A 
ATOM     45  C   UNL     1     -11.106 -21.948  23.655  0.00  0.00    +0.000 A 
ATOM     46  C   UNL     1     -11.604 -24.177  22.871  0.00  0.00    +0.000 A 
ATOM     47  C   UNL     1     -11.867 -23.113  23.731  0.00  0.00    +0.000 A 
ENDBRANCH  41  42
ENDBRANCH  39  41
ENDBRANCH  16  39
BRANCH   9  48
ATOM     48  C   UNL     1      -9.715 -16.144  23.178  0.00  0.00    +0.000 C 
BRANCH  48  49
ATOM     49  O   UNL     1     -10.105 -15.470  24.256  0.00  0.00    +0.000 OA
ATOM     50  H   UNL     1     -11.076 -15.464  24.321  0.00  0.00    +0.000 HD
ENDBRANCH  48  49
ENDBRANCH   9  48
TORSDOF 12
ENDMDL
MODEL 5
REMARK VINA RESULT:      -4.8     17.251     23.646
REMARK  Name = 5358691_Yuanhuacine.pdbqt.pdb
REMARK  12 active torsions:
REMARK  status: ('A' for Active; 'I' for Inactive)
REMARK    1  A    between atoms: C_9  and  C_48
REMARK    2  A    between atoms: C_13  and  C_23
REMARK    3  A    between atoms: C_14  and  O_26
REMARK    4  A    between atoms: C_15  and  O_28
REMARK    5  A    between atoms: C_16  and  O_39
REMARK    6  A    between atoms: C_17  and  C_30
REMARK    7  A    between atoms: C_31  and  C_32
REMARK    8  A    between atoms: C_33  and  C_34
REMARK    9  A    between atoms: C_35  and  C_36
REMARK   10  A    between atoms: O_39  and  C_41
REMARK   11  A    between atoms: C_41  and  C_42
REMARK   12  A    between atoms: C_48  and  O_49
REMARK                            x       y       z     vdW  Elec       q    Type
REMARK                         _______ _______ _______ _____ _____    ______ ____
ROOT
ATOM      1  O   UNL     1     -15.633   3.654  15.941  0.00  0.00    +0.000 OA
ATOM      2  O   UNL     1     -15.315   5.477  18.913  0.00  0.00    +0.000 OA
ATOM      3  O   UNL     1     -15.480   3.135  19.261  0.00  0.00    +0.000 OA
ATOM      4  O   UNL     1     -16.199   4.554  20.912  0.00  0.00    +0.000 OA
ATOM      5  O   UNL     1     -17.436   8.194  14.138  0.00  0.00    +0.000 OA
ATOM      6  C   UNL     1     -16.972   4.073  17.821  0.00  0.00    +0.000 C 
ATOM      7  C   UNL     1     -16.565   5.515  18.159  0.00  0.00    +0.000 C 
ATOM      8  C   UNL     1     -16.845   3.431  16.543  0.00  0.00    +0.000 C 
ATOM      9  C   UNL     1     -16.807   3.877  15.149  0.00  0.00    +0.000 C 
ATOM     10  C   UNL     1     -16.849   3.313  19.070  0.00  0.00    +0.000 C 
ATOM     11  C   UNL     1     -16.314   6.334  16.930  0.00  0.00    +0.000 C 
ATOM     12  C   UNL     1     -17.668   6.144  19.062  0.00  0.00    +0.000 C 
ATOM     13  C   UNL     1     -17.413   3.984  20.347  0.00  0.00    +0.000 C 
ATOM     14  C   UNL     1     -17.317   6.381  15.799  0.00  0.00    +0.000 C 
ATOM     15  C   UNL     1     -17.235   5.260  14.804  0.00  0.00    +0.000 C 
ATOM     16  C   UNL     1     -18.246   5.208  20.013  0.00  0.00    +0.000 C 
ATOM     17  C   UNL     1     -15.227   4.401  19.880  0.00  0.00    +0.000 C 
ATOM     18  C   UNL     1     -15.455   7.458  16.816  0.00  0.00    +0.000 C 
ATOM     19  C   UNL     1     -17.997   7.632  19.182  0.00  0.00    +0.000 C 
ATOM     20  C   UNL     1     -16.882   7.727  15.130  0.00  0.00    +0.000 C 
ATOM     21  C   UNL     1     -15.712   8.299  15.871  0.00  0.00    +0.000 C 
ATOM     22  C   UNL     1     -14.715   9.272  15.331  0.00  0.00    +0.000 C 
ENDROOT
BRANCH  13  23
ATOM     23  C   UNL     1     -18.062   2.917  21.259  0.00  0.00    +0.000 C 
ATOM     24  C   UNL     1     -18.296   3.098  22.758  0.00  0.00    +0.000 C 
ATOM     25  C   UNL     1     -18.227   1.628  20.897  0.00  0.00    +0.000 C 
ENDBRANCH  13  23
BRANCH  14  26
ATOM     26  O   UNL     1     -18.639   6.429  16.291  0.00  0.00    +0.000 OA
ATOM     27  H   UNL     1     -19.185   5.860  15.713  0.00  0.00    +0.000 HD
ENDBRANCH  14  26
BRANCH  15  28
ATOM     28  O   UNL     1     -17.766   5.503  13.535  0.00  0.00    +0.000 OA
ATOM     29  H   UNL     1     -17.313   6.208  13.024  0.00  0.00    +0.000 HD
ENDBRANCH  15  28
BRANCH  17  30
ATOM     30  C   UNL     1     -13.891   4.405  20.467  0.00  0.00    +0.000 C 
ATOM     31  C   UNL     1     -12.792   4.405  20.950  0.00  0.00    +0.000 C 
BRANCH  31  32
ATOM     32  C   UNL     1     -11.390   4.406  21.564  0.00  0.00    +0.000 C 
ATOM     33  C   UNL     1     -10.291   4.405  22.046  0.00  0.00    +0.000 C 
BRANCH  33  34
ATOM     34  C   UNL     1      -8.889   4.404  22.664  0.00  0.00    +0.000 C 
ATOM     35  C   UNL     1      -7.488   4.404  23.281  0.00  0.00    +0.000 C 
BRANCH  35  36
ATOM     36  C   UNL     1      -6.086   4.405  23.901  0.00  0.00    +0.000 C 
ATOM     37  C   UNL     1      -4.685   4.405  24.519  0.00  0.00    +0.000 C 
ATOM     38  C   UNL     1      -3.283   4.405  25.136  0.00  0.00    +0.000 C 
ENDBRANCH  35  36
ENDBRANCH  33  34
ENDBRANCH  31  32
ENDBRANCH  17  30
BRANCH  16  39
ATOM     39  O   UNL     1     -19.493   5.525  20.578  0.00  0.00    +0.000 OA
BRANCH  39  41
ATOM     40  O   UNL     1     -21.128   6.314  19.169  0.00  0.00    +0.000 OA
ATOM     41  C   UNL     1     -20.548   5.395  19.721  0.00  0.00    +0.000 C 
BRANCH  41  42
ATOM     42  C   UNL     1     -20.925   3.976  19.585  0.00  0.00    +0.000 A 
ATOM     43  C   UNL     1     -20.632   3.250  18.431  0.00  0.00    +0.000 A 
ATOM     44  C   UNL     1     -21.588   3.365  20.648  0.00  0.00    +0.000 A 
ATOM     45  C   UNL     1     -21.003   1.910  18.341  0.00  0.00    +0.000 A 
ATOM     46  C   UNL     1     -21.957   2.025  20.556  0.00  0.00    +0.000 A 
ATOM     47  C   UNL     1     -21.665   1.300  19.404  0.00  0.00    +0.000 A 
ENDBRANCH  41  42
ENDBRANCH  39  41
ENDBRANCH  16  39
BRANCH   9  48
ATOM     48  C   UNL     1     -16.894   2.865  14.105  0.00  0.00    +0.000 C 
BRANCH  48  49
ATOM     49  O   UNL     1     -16.980   1.942  13.151  0.00  0.00    +0.000 OA
ATOM     50  H   UNL     1     -17.604   1.241  13.410  0.00  0.00    +0.000 HD
ENDBRANCH  48  49
ENDBRANCH   9  48
TORSDOF 12
ENDMDL
MODEL 6
REMARK VINA RESULT:      -4.7     12.251     16.894
REMARK  Name = 5358691_Yuanhuacine.pdbqt.pdb
REMARK  12 active torsions:
REMARK  status: ('A' for Active; 'I' for Inactive)
REMARK    1  A    between atoms: C_9  and  C_48
REMARK    2  A    between atoms: C_13  and  C_23
REMARK    3  A    between atoms: C_14  and  O_26
REMARK    4  A    between atoms: C_15  and  O_28
REMARK    5  A    between atoms: C_16  and  O_39
REMARK    6  A    between atoms: C_17  and  C_30
REMARK    7  A    between atoms: C_31  and  C_32
REMARK    8  A    between atoms: C_33  and  C_34
REMARK    9  A    between atoms: C_35  and  C_36
REMARK   10  A    between atoms: O_39  and  C_41
REMARK   11  A    between atoms: C_41  and  C_42
REMARK   12  A    between atoms: C_48  and  O_49
REMARK                            x       y       z     vdW  Elec       q    Type
REMARK                         _______ _______ _______ _____ _____    ______ ____
ROOT
ATOM      1  O   UNL     1     -16.589 -20.291  14.356  0.00  0.00    +0.000 OA
ATOM      2  O   UNL     1     -14.911 -17.385  15.356  0.00  0.00    +0.000 OA
ATOM      3  O   UNL     1     -17.096 -16.970  14.528  0.00  0.00    +0.000 OA
ATOM      4  O   UNL     1     -15.511 -15.322  14.348  0.00  0.00    +0.000 OA
ATOM      5  O   UNL     1     -11.737 -22.120  13.875  0.00  0.00    +0.000 OA
ATOM      6  C   UNL     1     -15.774 -18.359  13.303  0.00  0.00    +0.000 C 
ATOM      7  C   UNL     1     -14.513 -18.079  14.134  0.00  0.00    +0.000 C 
ATOM      8  C   UNL     1     -16.438 -19.625  13.166  0.00  0.00    +0.000 C 
ATOM      9  C   UNL     1     -16.037 -21.030  13.258  0.00  0.00    +0.000 C 
ATOM     10  C   UNL     1     -16.524 -17.098  13.263  0.00  0.00    +0.000 C 
ATOM     11  C   UNL     1     -13.817 -19.339  14.548  0.00  0.00    +0.000 C 
ATOM     12  C   UNL     1     -13.577 -17.140  13.315  0.00  0.00    +0.000 C 
ATOM     13  C   UNL     1     -15.703 -15.813  12.992  0.00  0.00    +0.000 C 
ATOM     14  C   UNL     1     -13.489 -20.421  13.544  0.00  0.00    +0.000 C 
ATOM     15  C   UNL     1     -14.593 -21.389  13.239  0.00  0.00    +0.000 C 
ATOM     16  C   UNL     1     -14.290 -16.138  12.539  0.00  0.00    +0.000 C 
ATOM     17  C   UNL     1     -15.954 -16.396  15.175  0.00  0.00    +0.000 C 
ATOM     18  C   UNL     1     -12.999 -19.523  15.692  0.00  0.00    +0.000 C 
ATOM     19  C   UNL     1     -12.057 -17.042  13.446  0.00  0.00    +0.000 C 
ATOM     20  C   UNL     1     -12.338 -21.145  14.319  0.00  0.00    +0.000 C 
ATOM     21  C   UNL     1     -12.129 -20.475  15.644  0.00  0.00    +0.000 C 
ATOM     22  C   UNL     1     -11.499 -21.088  16.852  0.00  0.00    +0.000 C 
ENDROOT
BRANCH  13  23
ATOM     23  C   UNL     1     -16.521 -14.843  12.107  0.00  0.00    +0.000 C 
ATOM     24  C   UNL     1     -16.856 -13.404  12.495  0.00  0.00    +0.000 C 
ATOM     25  C   UNL     1     -17.257 -15.242  11.049  0.00  0.00    +0.000 C 
ENDBRANCH  13  23
BRANCH  14  26
ATOM     26  O   UNL     1     -13.046 -19.867  12.323  0.00  0.00    +0.000 OA
ATOM     27  H   UNL     1     -13.824 -19.464  11.889  0.00  0.00    +0.000 HD
ENDBRANCH  14  26
BRANCH  15  28
ATOM     28  O   UNL     1     -14.217 -22.637  12.735  0.00  0.00    +0.000 OA
ATOM     29  H   UNL     1     -13.310 -22.924  12.975  0.00  0.00    +0.000 HD
ENDBRANCH  15  28
BRANCH  17  30
ATOM     30  C   UNL     1     -16.339 -15.875  16.482  0.00  0.00    +0.000 C 
ATOM     31  C   UNL     1     -16.658 -15.444  17.557  0.00  0.00    +0.000 C 
BRANCH  31  32
ATOM     32  C   UNL     1     -17.065 -14.895  18.926  0.00  0.00    +0.000 C 
ATOM     33  C   UNL     1     -17.385 -14.465  20.001  0.00  0.00    +0.000 C 
BRANCH  33  34
ATOM     34  C   UNL     1     -17.796 -13.918  21.371  0.00  0.00    +0.000 C 
ATOM     35  C   UNL     1     -18.207 -13.369  22.740  0.00  0.00    +0.000 C 
BRANCH  35  36
ATOM     36  C   UNL     1     -18.619 -12.820  24.110  0.00  0.00    +0.000 C 
ATOM     37  C   UNL     1     -19.030 -12.272  25.480  0.00  0.00    +0.000 C 
ATOM     38  C   UNL     1     -19.440 -11.724  26.850  0.00  0.00    +0.000 C 
ENDBRANCH  35  36
ENDBRANCH  33  34
ENDBRANCH  31  32
ENDBRANCH  17  30
BRANCH  16  39
ATOM     39  O   UNL     1     -13.614 -15.521  11.473  0.00  0.00    +0.000 OA
BRANCH  39  41
ATOM     40  O   UNL     1     -14.450 -16.688   9.679  0.00  0.00    +0.000 OA
ATOM     41  C   UNL     1     -13.513 -16.292  10.350  0.00  0.00    +0.000 C 
BRANCH  41  42
ATOM     42  C   UNL     1     -12.102 -16.623  10.082  0.00  0.00    +0.000 A 
ATOM     43  C   UNL     1     -11.708 -17.915   9.733  0.00  0.00    +0.000 A 
ATOM     44  C   UNL     1     -11.154 -15.605  10.182  0.00  0.00    +0.000 A 
ATOM     45  C   UNL     1     -10.365 -18.188   9.485  0.00  0.00    +0.000 A 
ATOM     46  C   UNL     1      -9.813 -15.880   9.933  0.00  0.00    +0.000 A 
ATOM     47  C   UNL     1      -9.419 -17.171   9.585  0.00  0.00    +0.000 A 
ENDBRANCH  41  42
ENDBRANCH  39  41
ENDBRANCH  16  39
BRANCH   9  48
ATOM     48  C   UNL     1     -16.990 -22.042  12.821  0.00  0.00    +0.000 C 
BRANCH  48  49
ATOM     49  O   UNL     1     -17.859 -22.963  12.416  0.00  0.00    +0.000 OA
ATOM     50  H   UNL     1     -18.705 -22.864  12.886  0.00  0.00    +0.000 HD
ENDBRANCH  48  49
ENDBRANCH   9  48
TORSDOF 12
ENDMDL
MODEL 7
REMARK VINA RESULT:      -4.7     22.754     27.555
REMARK  Name = 5358691_Yuanhuacine.pdbqt.pdb
REMARK  12 active torsions:
REMARK  status: ('A' for Active; 'I' for Inactive)
REMARK    1  A    between atoms: C_9  and  C_48
REMARK    2  A    between atoms: C_13  and  C_23
REMARK    3  A    between atoms: C_14  and  O_26
REMARK    4  A    between atoms: C_15  and  O_28
REMARK    5  A    between atoms: C_16  and  O_39
REMARK    6  A    between atoms: C_17  and  C_30
REMARK    7  A    between atoms: C_31  and  C_32
REMARK    8  A    between atoms: C_33  and  C_34
REMARK    9  A    between atoms: C_35  and  C_36
REMARK   10  A    between atoms: O_39  and  C_41
REMARK   11  A    between atoms: C_41  and  C_42
REMARK   12  A    between atoms: C_48  and  O_49
REMARK                            x       y       z     vdW  Elec       q    Type
REMARK                         _______ _______ _______ _____ _____    ______ ____
ROOT
ATOM      1  O   UNL     1       5.628 -12.600  14.500  0.00  0.00    +0.000 OA
ATOM      2  O   UNL     1       8.417 -10.537  14.032  0.00  0.00    +0.000 OA
ATOM      3  O   UNL     1       6.641  -9.467  15.186  0.00  0.00    +0.000 OA
ATOM      4  O   UNL     1       8.093  -8.187  13.957  0.00  0.00    +0.000 OA
ATOM      5  O   UNL     1       7.624 -15.095  10.388  0.00  0.00    +0.000 OA
ATOM      6  C   UNL     1       6.098 -10.634  13.310  0.00  0.00    +0.000 C 
ATOM      7  C   UNL     1       7.558 -10.878  12.901  0.00  0.00    +0.000 C 
ATOM      8  C   UNL     1       5.133 -11.639  13.655  0.00  0.00    +0.000 C 
ATOM      9  C   UNL     1       4.934 -13.053  13.329  0.00  0.00    +0.000 C 
ATOM     10  C   UNL     1       6.065  -9.303  13.927  0.00  0.00    +0.000 C 
ATOM     11  C   UNL     1       7.820 -12.314  12.566  0.00  0.00    +0.000 C 
ATOM     12  C   UNL     1       7.906  -9.931  11.713  0.00  0.00    +0.000 C 
ATOM     13  C   UNL     1       6.850  -8.183  13.201  0.00  0.00    +0.000 C 
ATOM     14  C   UNL     1       6.929 -13.071  11.606  0.00  0.00    +0.000 C 
ATOM     15  C   UNL     1       5.682 -13.661  12.196  0.00  0.00    +0.000 C 
ATOM     16  C   UNL     1       7.288  -8.619  11.813  0.00  0.00    +0.000 C 
ATOM     17  C   UNL     1       8.006  -9.358  14.767  0.00  0.00    +0.000 C 
ATOM     18  C   UNL     1       9.056 -13.002  12.669  0.00  0.00    +0.000 C 
ATOM     19  C   UNL     1       8.972 -10.176  10.644  0.00  0.00    +0.000 C 
ATOM     20  C   UNL     1       7.917 -14.210  11.187  0.00  0.00    +0.000 C 
ATOM     21  C   UNL     1       9.214 -14.042  11.922  0.00  0.00    +0.000 C 
ATOM     22  C   UNL     1      10.223 -15.111  12.186  0.00  0.00    +0.000 C 
ENDROOT
BRANCH  13  23
ATOM     23  C   UNL     1       6.080  -6.846  13.308  0.00  0.00    +0.000 C 
ATOM     24  C   UNL     1       6.599  -5.615  14.050  0.00  0.00    +0.000 C 
ATOM     25  C   UNL     1       4.770  -6.715  13.013  0.00  0.00    +0.000 C 
ENDBRANCH  13  23
BRANCH  14  26
ATOM     26  O   UNL     1       6.552 -12.261  10.513  0.00  0.00    +0.000 OA
ATOM     27  H   UNL     1       7.177 -11.510  10.480  0.00  0.00    +0.000 HD
ENDBRANCH  14  26
BRANCH  15  28
ATOM     28  O   UNL     1       5.110 -14.738  11.513  0.00  0.00    +0.000 OA
ATOM     29  H   UNL     1       4.133 -14.798  11.580  0.00  0.00    +0.000 HD
ENDBRANCH  15  28
BRANCH  17  30
ATOM     30  C   UNL     1       8.869  -9.206  15.933  0.00  0.00    +0.000 C 
ATOM     31  C   UNL     1       9.581  -9.079  16.892  0.00  0.00    +0.000 C 
BRANCH  31  32
ATOM     32  C   UNL     1      10.488  -8.916  18.114  0.00  0.00    +0.000 C 
ATOM     33  C   UNL     1      11.200  -8.788  19.072  0.00  0.00    +0.000 C 
BRANCH  33  34
ATOM     34  C   UNL     1      12.111  -8.623  20.293  0.00  0.00    +0.000 C 
ATOM     35  C   UNL     1      13.020  -8.460  21.513  0.00  0.00    +0.000 C 
BRANCH  35  36
ATOM     36  C   UNL     1      13.931  -8.297  22.735  0.00  0.00    +0.000 C 
ATOM     37  C   UNL     1      14.842  -8.136  23.955  0.00  0.00    +0.000 C 
ATOM     38  C   UNL     1      15.755  -7.975  25.175  0.00  0.00    +0.000 C 
ENDBRANCH  35  36
ENDBRANCH  33  34
ENDBRANCH  31  32
ENDBRANCH  17  30
BRANCH  16  39
ATOM     39  O   UNL     1       7.187  -7.844  10.645  0.00  0.00    +0.000 OA
BRANCH  39  41
ATOM     40  O   UNL     1       9.033  -6.540  11.056  0.00  0.00    +0.000 OA
ATOM     41  C   UNL     1       7.877  -6.667  10.690  0.00  0.00    +0.000 C 
BRANCH  41  42
ATOM     42  C   UNL     1       7.012  -5.549  10.272  0.00  0.00    +0.000 A 
ATOM     43  C   UNL     1       7.180  -4.264  10.787  0.00  0.00    +0.000 A 
ATOM     44  C   UNL     1       6.009  -5.805   9.338  0.00  0.00    +0.000 A 
ATOM     45  C   UNL     1       6.343  -3.233  10.366  0.00  0.00    +0.000 A 
ATOM     46  C   UNL     1       5.174  -4.773   8.919  0.00  0.00    +0.000 A 
ATOM     47  C   UNL     1       5.341  -3.489   9.432  0.00  0.00    +0.000 A 
ENDBRANCH  41  42
ENDBRANCH  39  41
ENDBRANCH  16  39
BRANCH   9  48
ATOM     48  C   UNL     1       3.674 -13.672  13.715  0.00  0.00    +0.000 C 
BRANCH  48  49
ATOM     49  O   UNL     1       2.520 -14.236  14.062  0.00  0.00    +0.000 OA
ATOM     50  H   UNL     1       1.863 -14.130  13.352  0.00  0.00    +0.000 HD
ENDBRANCH  48  49
ENDBRANCH   9  48
TORSDOF 12
ENDMDL
MODEL 8
REMARK VINA RESULT:      -4.7     20.158     23.668
REMARK  Name = 5358691_Yuanhuacine.pdbqt.pdb
REMARK  12 active torsions:
REMARK  status: ('A' for Active; 'I' for Inactive)
REMARK    1  A    between atoms: C_9  and  C_48
REMARK    2  A    between atoms: C_13  and  C_23
REMARK    3  A    between atoms: C_14  and  O_26
REMARK    4  A    between atoms: C_15  and  O_28
REMARK    5  A    between atoms: C_16  and  O_39
REMARK    6  A    between atoms: C_17  and  C_30
REMARK    7  A    between atoms: C_31  and  C_32
REMARK    8  A    between atoms: C_33  and  C_34
REMARK    9  A    between atoms: C_35  and  C_36
REMARK   10  A    between atoms: O_39  and  C_41
REMARK   11  A    between atoms: C_41  and  C_42
REMARK   12  A    between atoms: C_48  and  O_49
REMARK                            x       y       z     vdW  Elec       q    Type
REMARK                         _______ _______ _______ _____ _____    ______ ____
ROOT
ATOM      1  O   UNL     1      -2.543 -20.772  18.031  0.00  0.00    +0.000 OA
ATOM      2  O   UNL     1      -4.450 -18.472  19.857  0.00  0.00    +0.000 OA
ATOM      3  O   UNL     1      -4.604 -18.166  17.508  0.00  0.00    +0.000 OA
ATOM      4  O   UNL     1      -4.918 -16.359  18.884  0.00  0.00    +0.000 OA
ATOM      5  O   UNL     1       0.141 -21.062  22.484  0.00  0.00    +0.000 OA
ATOM      6  C   UNL     1      -2.521 -18.452  18.378  0.00  0.00    +0.000 C 
ATOM      7  C   UNL     1      -2.993 -18.366  19.836  0.00  0.00    +0.000 C 
ATOM      8  C   UNL     1      -1.910 -19.588  17.747  0.00  0.00    +0.000 C 
ATOM      9  C   UNL     1      -1.119 -20.734  18.199  0.00  0.00    +0.000 C 
ATOM     10  C   UNL     1      -3.371 -17.526  17.619  0.00  0.00    +0.000 C 
ATOM     11  C   UNL     1      -2.457 -19.488  20.671  0.00  0.00    +0.000 C 
ATOM     12  C   UNL     1      -2.591 -16.972  20.407  0.00  0.00    +0.000 C 
ATOM     13  C   UNL     1      -3.623 -16.138  18.257  0.00  0.00    +0.000 C 
ATOM     14  C   UNL     1      -0.984 -19.832  20.672  0.00  0.00    +0.000 C 
ATOM     15  C   UNL     1      -0.519 -20.726  19.561  0.00  0.00    +0.000 C 
ATOM     16  C   UNL     1      -2.704 -15.892  19.441  0.00  0.00    +0.000 C 
ATOM     17  C   UNL     1      -5.120 -17.767  18.783  0.00  0.00    +0.000 C 
ATOM     18  C   UNL     1      -3.049 -20.041  21.836  0.00  0.00    +0.000 C 
ATOM     19  C   UNL     1      -2.336 -16.638  21.877  0.00  0.00    +0.000 C 
ATOM     20  C   UNL     1      -0.901 -20.587  22.041  0.00  0.00    +0.000 C 
ATOM     21  C   UNL     1      -2.263 -20.638  22.667  0.00  0.00    +0.000 C 
ATOM     22  C   UNL     1      -2.727 -21.623  23.689  0.00  0.00    +0.000 C 
ENDROOT
BRANCH  13  23
ATOM     23  C   UNL     1      -3.660 -15.052  17.157  0.00  0.00    +0.000 C 
ATOM     24  C   UNL     1      -3.216 -13.605  17.365  0.00  0.00    +0.000 C 
ATOM     25  C   UNL     1      -4.343 -15.186  16.001  0.00  0.00    +0.000 C 
ENDBRANCH  13  23
BRANCH  14  26
ATOM     26  O   UNL     1      -0.188 -18.666  20.655  0.00  0.00    +0.000 OA
ATOM     27  H   UNL     1      -0.409 -18.152  21.456  0.00  0.00    +0.000 HD
ENDBRANCH  14  26
BRANCH  15  28
ATOM     28  O   UNL     1       0.656 -21.448  19.782  0.00  0.00    +0.000 OA
ATOM     29  H   UNL     1       1.436 -21.136  19.276  0.00  0.00    +0.000 HD
ENDBRANCH  15  28
BRANCH  17  30
ATOM     30  C   UNL     1      -6.548 -18.057  18.850  0.00  0.00    +0.000 C 
ATOM     31  C   UNL     1      -7.724 -18.296  18.902  0.00  0.00    +0.000 C 
BRANCH  31  32
ATOM     32  C   UNL     1      -9.222 -18.601  18.968  0.00  0.00    +0.000 C 
ATOM     33  C   UNL     1     -10.398 -18.840  19.019  0.00  0.00    +0.000 C 
BRANCH  33  34
ATOM     34  C   UNL     1     -11.898 -19.142  19.083  0.00  0.00    +0.000 C 
ATOM     35  C   UNL     1     -13.397 -19.445  19.145  0.00  0.00    +0.000 C 
BRANCH  35  36
ATOM     36  C   UNL     1     -14.898 -19.750  19.208  0.00  0.00    +0.000 C 
ATOM     37  C   UNL     1     -16.397 -20.054  19.272  0.00  0.00    +0.000 C 
ATOM     38  C   UNL     1     -17.898 -20.357  19.337  0.00  0.00    +0.000 C 
ENDBRANCH  35  36
ENDBRANCH  33  34
ENDBRANCH  31  32
ENDBRANCH  17  30
BRANCH  16  39
ATOM     39  O   UNL     1      -2.001 -14.702  19.694  0.00  0.00    +0.000 OA
BRANCH  39  41
ATOM     40  O   UNL     1      -0.118 -15.678  18.812  0.00  0.00    +0.000 OA
ATOM     41  C   UNL     1      -0.708 -14.708  19.256  0.00  0.00    +0.000 C 
BRANCH  41  42
ATOM     42  C   UNL     1      -0.100 -13.378  19.436  0.00  0.00    +0.000 A 
ATOM     43  C   UNL     1       0.376 -12.640  18.352  0.00  0.00    +0.000 A 
ATOM     44  C   UNL     1      -0.009 -12.863  20.728  0.00  0.00    +0.000 A 
ATOM     45  C   UNL     1       0.943 -11.385  18.563  0.00  0.00    +0.000 A 
ATOM     46  C   UNL     1       0.558 -11.608  20.936  0.00  0.00    +0.000 A 
ATOM     47  C   UNL     1       1.033 -10.871  19.854  0.00  0.00    +0.000 A 
ENDBRANCH  41  42
ENDBRANCH  39  41
ENDBRANCH  16  39
BRANCH   9  48
ATOM     48  C   UNL     1      -0.484 -21.568  17.188  0.00  0.00    +0.000 C 
BRANCH  48  49
ATOM     49  O   UNL     1       0.102 -22.328  16.267  0.00  0.00    +0.000 OA
ATOM     50  H   UNL     1      -0.363 -22.251  15.415  0.00  0.00    +0.000 HD
ENDBRANCH  48  49
ENDBRANCH   9  48
TORSDOF 12
ENDMDL
MODEL 9
REMARK VINA RESULT:      -4.6     17.199     21.205
REMARK  Name = 5358691_Yuanhuacine.pdbqt.pdb
REMARK  12 active torsions:
REMARK  status: ('A' for Active; 'I' for Inactive)
REMARK    1  A    between atoms: C_9  and  C_48
REMARK    2  A    between atoms: C_13  and  C_23
REMARK    3  A    between atoms: C_14  and  O_26
REMARK    4  A    between atoms: C_15  and  O_28
REMARK    5  A    between atoms: C_16  and  O_39
REMARK    6  A    between atoms: C_17  and  C_30
REMARK    7  A    between atoms: C_31  and  C_32
REMARK    8  A    between atoms: C_33  and  C_34
REMARK    9  A    between atoms: C_35  and  C_36
REMARK   10  A    between atoms: O_39  and  C_41
REMARK   11  A    between atoms: C_41  and  C_42
REMARK   12  A    between atoms: C_48  and  O_49
REMARK                            x       y       z     vdW  Elec       q    Type
REMARK                         _______ _______ _______ _____ _____    ______ ____
ROOT
ATOM      1  O   UNL     1     -13.409   3.836  16.387  0.00  0.00    +0.000 OA
ATOM      2  O   UNL     1     -16.260   5.869  16.415  0.00  0.00    +0.000 OA
ATOM      3  O   UNL     1     -14.860   6.240  14.535  0.00  0.00    +0.000 OA
ATOM      4  O   UNL     1     -16.177   7.958  15.293  0.00  0.00    +0.000 OA
ATOM      5  O   UNL     1     -14.307   3.659  21.513  0.00  0.00    +0.000 OA
ATOM      6  C   UNL     1     -13.848   6.133  16.571  0.00  0.00    +0.000 C 
ATOM      7  C   UNL     1     -15.169   6.121  17.354  0.00  0.00    +0.000 C 
ATOM      8  C   UNL     1     -12.866   5.086  16.543  0.00  0.00    +0.000 C 
ATOM      9  C   UNL     1     -12.461   4.010  17.448  0.00  0.00    +0.000 C 
ATOM     10  C   UNL     1     -14.075   6.996  15.405  0.00  0.00    +0.000 C 
ATOM     11  C   UNL     1     -15.208   5.029  18.379  0.00  0.00    +0.000 C 
ATOM     12  C   UNL     1     -15.381   7.526  17.993  0.00  0.00    +0.000 C 
ATOM     13  C   UNL     1     -14.819   8.328  15.664  0.00  0.00    +0.000 C 
ATOM     14  C   UNL     1     -14.076   4.834  19.362  0.00  0.00    +0.000 C 
ATOM     15  C   UNL     1     -12.909   4.030  18.867  0.00  0.00    +0.000 C 
ATOM     16  C   UNL     1     -14.936   8.623  17.149  0.00  0.00    +0.000 C 
ATOM     17  C   UNL     1     -16.123   6.541  15.139  0.00  0.00    +0.000 C 
ATOM     18  C   UNL     1     -16.362   4.379  18.887  0.00  0.00    +0.000 C 
ATOM     19  C   UNL     1     -16.191   7.833  19.253  0.00  0.00    +0.000 C 
ATOM     20  C   UNL     1     -14.840   4.044  20.476  0.00  0.00    +0.000 C 
ATOM     21  C   UNL     1     -16.263   3.835  20.053  0.00  0.00    +0.000 C 
ATOM     22  C   UNL     1     -17.186   2.773  20.556  0.00  0.00    +0.000 C 
ENDROOT
BRANCH  13  23
ATOM     23  C   UNL     1     -14.230   9.443  14.769  0.00  0.00    +0.000 C 
ATOM     24  C   UNL     1     -14.918  10.780  14.499  0.00  0.00    +0.000 C 
ATOM     25  C   UNL     1     -13.203   9.249  13.916  0.00  0.00    +0.000 C 
ENDBRANCH  13  23
BRANCH  14  26
ATOM     26  O   UNL     1     -13.584   6.073  19.826  0.00  0.00    +0.000 OA
ATOM     27  H   UNL     1     -14.357   6.618  20.073  0.00  0.00    +0.000 HD
ENDBRANCH  14  26
BRANCH  15  28
ATOM     28  O   UNL     1     -12.106   3.422  19.835  0.00  0.00    +0.000 OA
ATOM     29  H   UNL     1     -12.342   2.492  20.044  0.00  0.00    +0.000 HD
ENDBRANCH  15  28
BRANCH  17  30
ATOM     30  C   UNL     1     -17.205   6.107  14.261  0.00  0.00    +0.000 C 
ATOM     31  C   UNL     1     -18.094   5.751  13.537  0.00  0.00    +0.000 C 
BRANCH  31  32
ATOM     32  C   UNL     1     -19.227   5.298  12.613  0.00  0.00    +0.000 C 
ATOM     33  C   UNL     1     -20.115   4.941  11.888  0.00  0.00    +0.000 C 
BRANCH  33  34
ATOM     34  C   UNL     1     -21.246   4.485  10.961  0.00  0.00    +0.000 C 
ATOM     35  C   UNL     1     -22.376   4.030  10.034  0.00  0.00    +0.000 C 
BRANCH  35  36
ATOM     36  C   UNL     1     -23.506   3.574   9.105  0.00  0.00    +0.000 C 
ATOM     37  C   UNL     1     -24.635   3.117   8.176  0.00  0.00    +0.000 C 
ATOM     38  C   UNL     1     -25.764   2.659   7.247  0.00  0.00    +0.000 C 
ENDBRANCH  35  36
ENDBRANCH  33  34
ENDBRANCH  31  32
ENDBRANCH  17  30
BRANCH  16  39
ATOM     39  O   UNL     1     -14.695   9.868  17.755  0.00  0.00    +0.000 OA
BRANCH  39  41
ATOM     40  O   UNL     1     -13.496   9.904  19.714  0.00  0.00    +0.000 OA
ATOM     41  C   UNL     1     -13.550   9.920  18.496  0.00  0.00    +0.000 C 
BRANCH  41  42
ATOM     42  C   UNL     1     -12.374  10.044  17.615  0.00  0.00    +0.000 A 
ATOM     43  C   UNL     1     -11.519   8.967  17.383  0.00  0.00    +0.000 A 
ATOM     44  C   UNL     1     -12.131  11.275  17.009  0.00  0.00    +0.000 A 
ATOM     45  C   UNL     1     -10.419   9.124  16.543  0.00  0.00    +0.000 A 
ATOM     46  C   UNL     1     -11.032  11.429  16.169  0.00  0.00    +0.000 A 
ATOM     47  C   UNL     1     -10.177  10.354  15.936  0.00  0.00    +0.000 A 
ENDBRANCH  41  42
ENDBRANCH  39  41
ENDBRANCH  16  39
BRANCH   9  48
ATOM     48  C   UNL     1     -11.239   3.280  17.138  0.00  0.00    +0.000 C 
BRANCH  48  49
ATOM     49  O   UNL     1     -10.120   2.618  16.857  0.00  0.00    +0.000 OA
ATOM     50  H   UNL     1      -9.969   1.912  17.509  0.00  0.00    +0.000 HD
ENDBRANCH  48  49
ENDBRANCH   9  48
TORSDOF 12
ENDMDL
