MODEL 1
REMARK VINA RESULT:      -4.2      0.000      0.000
REMARK  Name = 5386_Tegafur.pdbqt.pdb
REMARK  1 active torsions:
REMARK  status: ('A' for Active; 'I' for Inactive)
REMARK    1  A    between atoms: N_4  and  C_12
REMARK                            x       y       z     vdW  Elec       q    Type
REMARK                         _______ _______ _______ _____ _____    ______ ____
ROOT
ATOM      1  F   UNL     1       6.272  -9.324  10.041  0.00  0.00    +0.000 F 
ATOM      2  O   UNL     1       6.073  -3.896  10.032  0.00  0.00    +0.000 OA
ATOM      3  O   UNL     1       5.325  -7.849   7.820  0.00  0.00    +0.000 OA
ATOM      4  N   UNL     1       6.354  -5.911  11.238  0.00  0.00    +0.000 N 
ATOM      5  N   UNL     1       5.633  -5.897   9.001  0.00  0.00    +0.000 N 
ATOM      6  C   UNL     1       6.030  -5.118  10.113  0.00  0.00    +0.000 C 
ATOM      7  C   UNL     1       6.248  -7.249  11.100  0.00  0.00    +0.000 C 
ATOM      8  C   UNL     1       5.897  -8.038  10.142  0.00  0.00    +0.000 C 
ATOM      9  C   UNL     1       5.585  -7.292   8.880  0.00  0.00    +0.000 C 
ATOM     10  H   UNL     1       5.429  -5.375   8.161  0.00  0.00    +0.000 HD
ENDROOT
BRANCH   4  12
ATOM     11  O   UNL     1       7.981  -4.720  12.590  0.00  0.00    +0.000 OA
ATOM     12  C   UNL     1       6.767  -5.401  12.434  0.00  0.00    +0.000 C 
ATOM     13  C   UNL     1       6.119  -5.447  13.698  0.00  0.00    +0.000 C 
ATOM     14  C   UNL     1       6.732  -4.824  14.953  0.00  0.00    +0.000 C 
ATOM     15  C   UNL     1       7.793  -4.510  13.899  0.00  0.00    +0.000 C 
ENDBRANCH   4  12
TORSDOF 1
ENDMDL
MODEL 2
REMARK VINA RESULT:      -4.1     19.187     20.545
REMARK  Name = 5386_Tegafur.pdbqt.pdb
REMARK  1 active torsions:
REMARK  status: ('A' for Active; 'I' for Inactive)
REMARK    1  A    between atoms: N_4  and  C_12
REMARK                            x       y       z     vdW  Elec       q    Type
REMARK                         _______ _______ _______ _____ _____    ______ ____
ROOT
ATOM      1  F   UNL     1      -7.847   9.892   8.208  0.00  0.00    +0.000 F 
ATOM      2  O   UNL     1      -6.605   4.923   6.400  0.00  0.00    +0.000 OA
ATOM      3  O   UNL     1      -5.477   8.553   8.977  0.00  0.00    +0.000 OA
ATOM      4  N   UNL     1      -8.202   6.652   6.640  0.00  0.00    +0.000 N 
ATOM      5  N   UNL     1      -6.127   6.721   7.742  0.00  0.00    +0.000 N 
ATOM      6  C   UNL     1      -6.972   5.994   6.870  0.00  0.00    +0.000 C 
ATOM      7  C   UNL     1      -8.391   7.838   7.255  0.00  0.00    +0.000 C 
ATOM      8  C   UNL     1      -7.692   8.567   8.057  0.00  0.00    +0.000 C 
ATOM      9  C   UNL     1      -6.339   7.979   8.322  0.00  0.00    +0.000 C 
ATOM     10  H   UNL     1      -5.220   6.308   7.906  0.00  0.00    +0.000 HD
ENDROOT
BRANCH   4  12
ATOM     11  O   UNL     1      -9.016   5.961   4.461  0.00  0.00    +0.000 OA
ATOM     12  C   UNL     1      -9.188   6.160   5.836  0.00  0.00    +0.000 C 
ATOM     13  C   UNL     1     -10.512   5.775   6.178  0.00  0.00    +0.000 C 
ATOM     14  C   UNL     1     -11.502   5.244   5.140  0.00  0.00    +0.000 C 
ATOM     15  C   UNL     1     -10.263   5.504   4.285  0.00  0.00    +0.000 C 
ENDBRANCH   4  12
TORSDOF 1
ENDMDL
MODEL 3
REMARK VINA RESULT:      -3.7     19.254     20.467
REMARK  Name = 5386_Tegafur.pdbqt.pdb
REMARK  1 active torsions:
REMARK  status: ('A' for Active; 'I' for Inactive)
REMARK    1  A    between atoms: N_4  and  C_12
REMARK                            x       y       z     vdW  Elec       q    Type
REMARK                         _______ _______ _______ _____ _____    ______ ____
ROOT
ATOM      1  F   UNL     1      -9.413 -20.101   9.810  0.00  0.00    +0.000 F 
ATOM      2  O   UNL     1     -10.102 -14.713   9.742  0.00  0.00    +0.000 OA
ATOM      3  O   UNL     1      -7.829 -18.394   8.204  0.00  0.00    +0.000 OA
ATOM      4  N   UNL     1     -10.899 -16.851  10.368  0.00  0.00    +0.000 N 
ATOM      5  N   UNL     1      -9.055 -16.588   8.936  0.00  0.00    +0.000 N 
ATOM      6  C   UNL     1     -10.050 -15.937   9.702  0.00  0.00    +0.000 C 
ATOM      7  C   UNL     1     -10.651 -18.165  10.191  0.00  0.00    +0.000 C 
ATOM      8  C   UNL     1      -9.783 -18.843   9.520  0.00  0.00    +0.000 C 
ATOM      9  C   UNL     1      -8.796 -17.960   8.818  0.00  0.00    +0.000 C 
ATOM     10  H   UNL     1      -8.399 -15.975   8.472  0.00  0.00    +0.000 HD
ENDROOT
BRANCH   4  12
ATOM     11  O   UNL     1     -13.044 -15.762  10.697  0.00  0.00    +0.000 OA
ATOM     12  C   UNL     1     -11.937 -16.477  11.171  0.00  0.00    +0.000 C 
ATOM     13  C   UNL     1     -12.115 -16.700  12.563  0.00  0.00    +0.000 C 
ATOM     14  C   UNL     1     -13.349 -16.201  13.318  0.00  0.00    +0.000 C 
ATOM     15  C   UNL     1     -13.636 -15.716  11.898  0.00  0.00    +0.000 C 
ENDBRANCH   4  12
TORSDOF 1
ENDMDL
MODEL 4
REMARK VINA RESULT:      -3.7     20.998     22.414
REMARK  Name = 5386_Tegafur.pdbqt.pdb
REMARK  1 active torsions:
REMARK  status: ('A' for Active; 'I' for Inactive)
REMARK    1  A    between atoms: N_4  and  C_12
REMARK                            x       y       z     vdW  Elec       q    Type
REMARK                         _______ _______ _______ _____ _____    ______ ____
ROOT
ATOM      1  F   UNL     1     -11.358   0.122  25.746  0.00  0.00    +0.000 F 
ATOM      2  O   UNL     1      -6.420  -1.469  27.357  0.00  0.00    +0.000 OA
ATOM      3  O   UNL     1      -9.496   1.909  26.903  0.00  0.00    +0.000 OA
ATOM      4  N   UNL     1      -8.599  -2.042  26.635  0.00  0.00    +0.000 N 
ATOM      5  N   UNL     1      -8.020   0.166  27.191  0.00  0.00    +0.000 N 
ATOM      6  C   UNL     1      -7.578  -1.173  27.083  0.00  0.00    +0.000 C 
ATOM      7  C   UNL     1      -9.805  -1.496  26.378  0.00  0.00    +0.000 C 
ATOM      8  C   UNL     1     -10.296  -0.305  26.449  0.00  0.00    +0.000 C 
ATOM      9  C   UNL     1      -9.271   0.706  26.865  0.00  0.00    +0.000 C 
ATOM     10  H   UNL     1      -7.313   0.831  27.471  0.00  0.00    +0.000 HD
ENDROOT
BRANCH   4  12
ATOM     11  O   UNL     1      -9.103  -4.348  27.203  0.00  0.00    +0.000 OA
ATOM     12  C   UNL     1      -8.427  -3.383  26.446  0.00  0.00    +0.000 C 
ATOM     13  C   UNL     1      -7.585  -4.054  25.519  0.00  0.00    +0.000 C 
ATOM     14  C   UNL     1      -7.508  -5.580  25.444  0.00  0.00    +0.000 C 
ATOM     15  C   UNL     1      -8.523  -5.375  26.567  0.00  0.00    +0.000 C 
ENDBRANCH   4  12
TORSDOF 1
ENDMDL
MODEL 5
REMARK VINA RESULT:      -3.6     19.385     20.226
REMARK  Name = 5386_Tegafur.pdbqt.pdb
REMARK  1 active torsions:
REMARK  status: ('A' for Active; 'I' for Inactive)
REMARK    1  A    between atoms: N_4  and  C_12
REMARK                            x       y       z     vdW  Elec       q    Type
REMARK                         _______ _______ _______ _____ _____    ______ ____
ROOT
ATOM      1  F   UNL     1      -6.604   8.439   9.842  0.00  0.00    +0.000 F 
ATOM      2  O   UNL     1      -6.128   8.694   4.438  0.00  0.00    +0.000 OA
ATOM      3  O   UNL     1      -4.827  10.230   8.564  0.00  0.00    +0.000 OA
ATOM      4  N   UNL     1      -6.942   7.562   6.350  0.00  0.00    +0.000 N 
ATOM      5  N   UNL     1      -5.446   9.366   6.521  0.00  0.00    +0.000 N 
ATOM      6  C   UNL     1      -6.184   8.530   5.651  0.00  0.00    +0.000 C 
ATOM      7  C   UNL     1      -6.863   7.572   7.696  0.00  0.00    +0.000 C 
ATOM      8  C   UNL     1      -6.226   8.282   8.563  0.00  0.00    +0.000 C 
ATOM      9  C   UNL     1      -5.430   9.379   7.922  0.00  0.00    +0.000 C 
ATOM     10  H   UNL     1      -4.919  10.100   6.069  0.00  0.00    +0.000 HD
ENDROOT
BRANCH   4  12
ATOM     11  O   UNL     1      -7.230   5.574   4.988  0.00  0.00    +0.000 OA
ATOM     12  C   UNL     1      -7.740   6.638   5.741  0.00  0.00    +0.000 C 
ATOM     13  C   UNL     1      -9.159   6.554   5.724  0.00  0.00    +0.000 C 
ATOM     14  C   UNL     1      -9.901   5.445   4.978  0.00  0.00    +0.000 C 
ATOM     15  C   UNL     1      -8.443   5.091   4.690  0.00  0.00    +0.000 C 
ENDBRANCH   4  12
TORSDOF 1
ENDMDL
MODEL 6
REMARK VINA RESULT:      -3.6     14.226     15.021
REMARK  Name = 5386_Tegafur.pdbqt.pdb
REMARK  1 active torsions:
REMARK  status: ('A' for Active; 'I' for Inactive)
REMARK    1  A    between atoms: N_4  and  C_12
REMARK                            x       y       z     vdW  Elec       q    Type
REMARK                         _______ _______ _______ _____ _____    ______ ____
ROOT
ATOM      1  F   UNL     1       2.610 -21.257   3.375  0.00  0.00    +0.000 F 
ATOM      2  O   UNL     1       5.468 -16.645   3.130  0.00  0.00    +0.000 OA
ATOM      3  O   UNL     1       1.554 -18.882   2.260  0.00  0.00    +0.000 OA
ATOM      4  N   UNL     1       5.236 -18.842   3.974  0.00  0.00    +0.000 N 
ATOM      5  N   UNL     1       3.503 -17.779   2.797  0.00  0.00    +0.000 N 
ATOM      6  C   UNL     1       4.819 -17.670   3.302  0.00  0.00    +0.000 C 
ATOM      7  C   UNL     1       4.357 -19.864   4.034  0.00  0.00    +0.000 C 
ATOM      8  C   UNL     1       3.153 -20.052   3.612  0.00  0.00    +0.000 C 
ATOM      9  C   UNL     1       2.637 -18.879   2.834  0.00  0.00    +0.000 C 
ATOM     10  H   UNL     1       3.175 -16.979   2.274  0.00  0.00    +0.000 HD
ENDROOT
BRANCH   4  12
ATOM     11  O   UNL     1       6.826 -18.351   5.741  0.00  0.00    +0.000 OA
ATOM     12  C   UNL     1       6.464 -18.992   4.551  0.00  0.00    +0.000 C 
ATOM     13  C   UNL     1       7.571 -19.764   4.107  0.00  0.00    +0.000 C 
ATOM     14  C   UNL     1       8.891 -19.816   4.878  0.00  0.00    +0.000 C 
ATOM     15  C   UNL     1       8.058 -18.876   5.749  0.00  0.00    +0.000 C 
ENDBRANCH   4  12
TORSDOF 1
ENDMDL
MODEL 7
REMARK VINA RESULT:      -3.6     28.317     28.945
REMARK  Name = 5386_Tegafur.pdbqt.pdb
REMARK  1 active torsions:
REMARK  status: ('A' for Active; 'I' for Inactive)
REMARK    1  A    between atoms: N_4  and  C_12
REMARK                            x       y       z     vdW  Elec       q    Type
REMARK                         _______ _______ _______ _____ _____    ______ ____
ROOT
ATOM      1  F   UNL     1     -23.352  -4.106  22.678  0.00  0.00    +0.000 F 
ATOM      2  O   UNL     1     -17.985  -4.509  21.947  0.00  0.00    +0.000 OA
ATOM      3  O   UNL     1     -22.045  -6.601  22.416  0.00  0.00    +0.000 OA
ATOM      4  N   UNL     1     -19.928  -3.160  21.995  0.00  0.00    +0.000 N 
ATOM      5  N   UNL     1     -20.045  -5.505  22.097  0.00  0.00    +0.000 N 
ATOM      6  C   UNL     1     -19.202  -4.373  22.003  0.00  0.00    +0.000 C 
ATOM      7  C   UNL     1     -21.272  -3.246  22.079  0.00  0.00    +0.000 C 
ATOM      8  C   UNL     1     -22.116  -4.217  22.164  0.00  0.00    +0.000 C 
ATOM      9  C   UNL     1     -21.439  -5.552  22.235  0.00  0.00    +0.000 C 
ATOM     10  H   UNL     1     -19.568  -6.394  22.145  0.00  0.00    +0.000 HD
ENDROOT
BRANCH   4  12
ATOM     11  O   UNL     1     -18.740  -1.451  20.747  0.00  0.00    +0.000 OA
ATOM     12  C   UNL     1     -19.348  -1.928  21.914  0.00  0.00    +0.000 C 
ATOM     13  C   UNL     1     -19.229  -0.928  22.917  0.00  0.00    +0.000 C 
ATOM     14  C   UNL     1     -18.534   0.410  22.657  0.00  0.00    +0.000 C 
ATOM     15  C   UNL     1     -18.395  -0.282  21.302  0.00  0.00    +0.000 C 
ENDBRANCH   4  12
TORSDOF 1
ENDMDL
MODEL 8
REMARK VINA RESULT:      -3.6      2.954      4.791
REMARK  Name = 5386_Tegafur.pdbqt.pdb
REMARK  1 active torsions:
REMARK  status: ('A' for Active; 'I' for Inactive)
REMARK    1  A    between atoms: N_4  and  C_12
REMARK                            x       y       z     vdW  Elec       q    Type
REMARK                         _______ _______ _______ _____ _____    ______ ____
ROOT
ATOM      1  F   UNL     1       7.397  -6.069  13.310  0.00  0.00    +0.000 F 
ATOM      2  O   UNL     1       4.894  -8.292   9.032  0.00  0.00    +0.000 OA
ATOM      3  O   UNL     1       7.321  -4.808  10.779  0.00  0.00    +0.000 OA
ATOM      4  N   UNL     1       5.736  -8.519  11.231  0.00  0.00    +0.000 N 
ATOM      5  N   UNL     1       6.183  -6.617   9.925  0.00  0.00    +0.000 N 
ATOM      6  C   UNL     1       5.539  -7.876   9.988  0.00  0.00    +0.000 C 
ATOM      7  C   UNL     1       6.476  -7.868  12.152  0.00  0.00    +0.000 C 
ATOM      8  C   UNL     1       7.096  -6.738  12.185  0.00  0.00    +0.000 C 
ATOM      9  C   UNL     1       6.902  -5.949  10.925  0.00  0.00    +0.000 C 
ATOM     10  H   UNL     1       6.038  -6.102   9.068  0.00  0.00    +0.000 HD
ENDROOT
BRANCH   4  12
ATOM     11  O   UNL     1       5.992 -10.908  11.576  0.00  0.00    +0.000 OA
ATOM     12  C   UNL     1       5.218  -9.742  11.544  0.00  0.00    +0.000 C 
ATOM     13  C   UNL     1       3.880 -10.088  11.874  0.00  0.00    +0.000 C 
ATOM     14  C   UNL     1       3.465 -11.525  12.195  0.00  0.00    +0.000 C 
ATOM     15  C   UNL     1       4.958 -11.688  11.916  0.00  0.00    +0.000 C 
ENDBRANCH   4  12
TORSDOF 1
ENDMDL
MODEL 9
REMARK VINA RESULT:      -3.5     29.296     29.888
REMARK  Name = 5386_Tegafur.pdbqt.pdb
REMARK  1 active torsions:
REMARK  status: ('A' for Active; 'I' for Inactive)
REMARK    1  A    between atoms: N_4  and  C_12
REMARK                            x       y       z     vdW  Elec       q    Type
REMARK                         _______ _______ _______ _____ _____    ______ ____
ROOT
ATOM      1  F   UNL     1     -23.437   5.030   6.496  0.00  0.00    +0.000 F 
ATOM      2  O   UNL     1     -22.190   0.245   8.744  0.00  0.00    +0.000 OA
ATOM      3  O   UNL     1     -24.339   2.573   5.421  0.00  0.00    +0.000 OA
ATOM      4  N   UNL     1     -21.821   2.578   8.608  0.00  0.00    +0.000 N 
ATOM      5  N   UNL     1     -23.172   1.445   7.054  0.00  0.00    +0.000 N 
ATOM      6  C   UNL     1     -22.358   1.333   8.205  0.00  0.00    +0.000 C 
ATOM      7  C   UNL     1     -22.150   3.658   7.870  0.00  0.00    +0.000 C 
ATOM      8  C   UNL     1     -22.872   3.855   6.820  0.00  0.00    +0.000 C 
ATOM      9  C   UNL     1     -23.534   2.598   6.344  0.00  0.00    +0.000 C 
ATOM     10  H   UNL     1     -23.610   0.586   6.751  0.00  0.00    +0.000 HD
ENDROOT
BRANCH   4  12
ATOM     11  O   UNL     1     -19.755   2.119   9.796  0.00  0.00    +0.000 OA
ATOM     12  C   UNL     1     -21.006   2.740   9.690  0.00  0.00    +0.000 C 
ATOM     13  C   UNL     1     -21.223   3.506  10.867  0.00  0.00    +0.000 C 
ATOM     14  C   UNL     1     -20.196   3.572  11.998  0.00  0.00    +0.000 C 
ATOM     15  C   UNL     1     -19.501   2.646  11.001  0.00  0.00    +0.000 C 
ENDBRANCH   4  12
TORSDOF 1
ENDMDL
