MODEL 1
REMARK VINA RESULT:      -5.4      0.000      0.000
REMARK  Name = 5470187_Zerumbone.pdbqt.pdb
REMARK  0 active torsions:
REMARK  status: ('A' for Active; 'I' for Inactive)
REMARK                            x       y       z     vdW  Elec       q    Type
REMARK                         _______ _______ _______ _____ _____    ______ ____
ROOT
ATOM      1  O   UNL     1     -15.575 -13.568   9.537  0.00  0.00    +0.000 OA
ATOM      2  C   UNL     1     -12.019 -16.643  10.869  0.00  0.00    +0.000 C 
ATOM      3  C   UNL     1     -12.088 -17.135  12.265  0.00  0.00    +0.000 C 
ATOM      4  C   UNL     1     -12.110 -17.832   9.882  0.00  0.00    +0.000 C 
ATOM      5  C   UNL     1     -10.701 -15.855  10.661  0.00  0.00    +0.000 C 
ATOM      6  C   UNL     1     -13.192 -15.730  10.682  0.00  0.00    +0.000 C 
ATOM      7  C   UNL     1     -12.510 -17.397  13.722  0.00  0.00    +0.000 C 
ATOM      8  C   UNL     1     -13.188 -17.346  14.830  0.00  0.00    +0.000 C 
ATOM      9  C   UNL     1     -14.293 -16.465  14.714  0.00  0.00    +0.000 C 
ATOM     10  C   UNL     1     -15.249 -15.489  14.025  0.00  0.00    +0.000 C 
ATOM     11  C   UNL     1     -14.157 -15.008  10.621  0.00  0.00    +0.000 C 
ATOM     12  C   UNL     1     -13.268 -18.541  15.721  0.00  0.00    +0.000 C 
ATOM     13  C   UNL     1     -15.856 -14.626  12.915  0.00  0.00    +0.000 C 
ATOM     14  C   UNL     1     -16.183 -13.982  11.833  0.00  0.00    +0.000 C 
ATOM     15  C   UNL     1     -15.336 -14.139  10.595  0.00  0.00    +0.000 C 
ATOM     16  C   UNL     1     -17.405 -13.098  11.902  0.00  0.00    +0.000 C 
ENDROOT
TORSDOF 0
ENDMDL
MODEL 2
REMARK VINA RESULT:      -4.9     19.761     22.549
REMARK  Name = 5470187_Zerumbone.pdbqt.pdb
REMARK  0 active torsions:
REMARK  status: ('A' for Active; 'I' for Inactive)
REMARK                            x       y       z     vdW  Elec       q    Type
REMARK                         _______ _______ _______ _____ _____    ______ ____
ROOT
ATOM      1  O   UNL     1       3.995 -11.781  11.880  0.00  0.00    +0.000 OA
ATOM      2  C   UNL     1       6.336  -7.545  11.211  0.00  0.00    +0.000 C 
ATOM      3  C   UNL     1       7.797  -7.650  10.986  0.00  0.00    +0.000 C 
ATOM      4  C   UNL     1       5.657  -6.886   9.987  0.00  0.00    +0.000 C 
ATOM      5  C   UNL     1       6.067  -6.724  12.498  0.00  0.00    +0.000 C 
ATOM      6  C   UNL     1       5.832  -8.945  11.387  0.00  0.00    +0.000 C 
ATOM      7  C   UNL     1       9.230  -8.178  10.795  0.00  0.00    +0.000 C 
ATOM      8  C   UNL     1      10.228  -9.004  10.688  0.00  0.00    +0.000 C 
ATOM      9  C   UNL     1       9.806 -10.345  10.882  0.00  0.00    +0.000 C 
ATOM     10  C   UNL     1       8.822 -11.488  11.135  0.00  0.00    +0.000 C 
ATOM     11  C   UNL     1       5.513 -10.101  11.522  0.00  0.00    +0.000 C 
ATOM     12  C   UNL     1      11.367  -8.698   9.773  0.00  0.00    +0.000 C 
ATOM     13  C   UNL     1       7.488 -12.195  11.394  0.00  0.00    +0.000 C 
ATOM     14  C   UNL     1       6.258 -12.564  11.606  0.00  0.00    +0.000 C 
ATOM     15  C   UNL     1       5.175 -11.516  11.683  0.00  0.00    +0.000 C 
ATOM     16  C   UNL     1       6.004 -14.042  11.776  0.00  0.00    +0.000 C 
ENDROOT
TORSDOF 0
ENDMDL
MODEL 3
REMARK VINA RESULT:      -4.5     17.916     20.746
REMARK  Name = 5470187_Zerumbone.pdbqt.pdb
REMARK  0 active torsions:
REMARK  status: ('A' for Active; 'I' for Inactive)
REMARK                            x       y       z     vdW  Elec       q    Type
REMARK                         _______ _______ _______ _____ _____    ______ ____
ROOT
ATOM      1  O   UNL     1       0.488  -6.153  -3.617  0.00  0.00    +0.000 OA
ATOM      2  C   UNL     1      -3.431  -3.803  -1.887  0.00  0.00    +0.000 C 
ATOM      3  C   UNL     1      -4.391  -4.635  -1.124  0.00  0.00    +0.000 C 
ATOM      4  C   UNL     1      -2.873  -2.676  -0.986  0.00  0.00    +0.000 C 
ATOM      5  C   UNL     1      -4.134  -3.212  -3.135  0.00  0.00    +0.000 C 
ATOM      6  C   UNL     1      -2.323  -4.716  -2.313  0.00  0.00    +0.000 C 
ATOM      7  C   UNL     1      -5.103  -5.807  -0.424  0.00  0.00    +0.000 C 
ATOM      8  C   UNL     1      -5.349  -7.005   0.015  0.00  0.00    +0.000 C 
ATOM      9  C   UNL     1      -4.342  -7.917  -0.393  0.00  0.00    +0.000 C 
ATOM     10  C   UNL     1      -3.044  -8.374  -1.062  0.00  0.00    +0.000 C 
ATOM     11  C   UNL     1      -1.477  -5.521  -2.618  0.00  0.00    +0.000 C 
ATOM     12  C   UNL     1      -6.062  -7.202   1.312  0.00  0.00    +0.000 C 
ATOM     13  C   UNL     1      -1.732  -8.285  -1.848  0.00  0.00    +0.000 C 
ATOM     14  C   UNL     1      -0.674  -7.966  -2.535  0.00  0.00    +0.000 C 
ATOM     15  C   UNL     1      -0.480  -6.534  -2.968  0.00  0.00    +0.000 C 
ATOM     16  C   UNL     1       0.293  -9.077  -2.863  0.00  0.00    +0.000 C 
ENDROOT
TORSDOF 0
ENDMDL
MODEL 4
REMARK VINA RESULT:      -4.4      2.120      5.479
REMARK  Name = 5470187_Zerumbone.pdbqt.pdb
REMARK  0 active torsions:
REMARK  status: ('A' for Active; 'I' for Inactive)
REMARK                            x       y       z     vdW  Elec       q    Type
REMARK                         _______ _______ _______ _____ _____    ______ ____
ROOT
ATOM      1  O   UNL     1     -15.356 -17.144  15.856  0.00  0.00    +0.000 OA
ATOM      2  C   UNL     1     -16.309 -14.980  11.580  0.00  0.00    +0.000 C 
ATOM      3  C   UNL     1     -15.197 -14.981  10.600  0.00  0.00    +0.000 C 
ATOM      4  C   UNL     1     -17.529 -15.734  10.998  0.00  0.00    +0.000 C 
ATOM      5  C   UNL     1     -16.683 -13.520  11.938  0.00  0.00    +0.000 C 
ATOM      6  C   UNL     1     -15.802 -15.688  12.799  0.00  0.00    +0.000 C 
ATOM      7  C   UNL     1     -13.842 -15.191   9.901  0.00  0.00    +0.000 C 
ATOM      8  C   UNL     1     -12.615 -15.567   9.692  0.00  0.00    +0.000 C 
ATOM      9  C   UNL     1     -12.077 -16.214  10.834  0.00  0.00    +0.000 C 
ATOM     10  C   UNL     1     -12.069 -16.797  12.249  0.00  0.00    +0.000 C 
ATOM     11  C   UNL     1     -15.311 -16.264  13.739  0.00  0.00    +0.000 C 
ATOM     12  C   UNL     1     -12.169 -15.962   8.324  0.00  0.00    +0.000 C 
ATOM     13  C   UNL     1     -12.586 -17.194  13.635  0.00  0.00    +0.000 C 
ATOM     14  C   UNL     1     -13.240 -17.425  14.736  0.00  0.00    +0.000 C 
ATOM     15  C   UNL     1     -14.672 -16.965  14.855  0.00  0.00    +0.000 C 
ATOM     16  C   UNL     1     -12.498 -18.140  15.839  0.00  0.00    +0.000 C 
ENDROOT
TORSDOF 0
ENDMDL
MODEL 5
REMARK VINA RESULT:      -4.3     17.715     19.673
REMARK  Name = 5470187_Zerumbone.pdbqt.pdb
REMARK  0 active torsions:
REMARK  status: ('A' for Active; 'I' for Inactive)
REMARK                            x       y       z     vdW  Elec       q    Type
REMARK                         _______ _______ _______ _____ _____    ______ ____
ROOT
ATOM      1  O   UNL     1      -7.526 -10.707  30.621  0.00  0.00    +0.000 OA
ATOM      2  C   UNL     1     -10.330  -8.395  27.355  0.00  0.00    +0.000 C 
ATOM      3  C   UNL     1      -9.768  -7.138  26.805  0.00  0.00    +0.000 C 
ATOM      4  C   UNL     1     -10.563  -9.415  26.215  0.00  0.00    +0.000 C 
ATOM      5  C   UNL     1     -11.654  -8.090  28.099  0.00  0.00    +0.000 C 
ATOM      6  C   UNL     1      -9.315  -8.927  28.320  0.00  0.00    +0.000 C 
ATOM      7  C   UNL     1      -8.860  -5.935  26.496  0.00  0.00    +0.000 C 
ATOM      8  C   UNL     1      -7.840  -5.130  26.524  0.00  0.00    +0.000 C 
ATOM      9  C   UNL     1      -6.863  -5.573  27.452  0.00  0.00    +0.000 C 
ATOM     10  C   UNL     1      -6.227  -6.497  28.494  0.00  0.00    +0.000 C 
ATOM     11  C   UNL     1      -8.447  -9.280  29.081  0.00  0.00    +0.000 C 
ATOM     12  C   UNL     1      -7.429  -4.388  25.295  0.00  0.00    +0.000 C 
ATOM     13  C   UNL     1      -6.064  -7.699  29.428  0.00  0.00    +0.000 C 
ATOM     14  C   UNL     1      -6.148  -8.791  30.131  0.00  0.00    +0.000 C 
ATOM     15  C   UNL     1      -7.370  -9.665  29.995  0.00  0.00    +0.000 C 
ATOM     16  C   UNL     1      -4.998  -9.102  31.058  0.00  0.00    +0.000 C 
ENDROOT
TORSDOF 0
ENDMDL
MODEL 6
REMARK VINA RESULT:      -4.3      2.220      5.276
REMARK  Name = 5470187_Zerumbone.pdbqt.pdb
REMARK  0 active torsions:
REMARK  status: ('A' for Active; 'I' for Inactive)
REMARK                            x       y       z     vdW  Elec       q    Type
REMARK                         _______ _______ _______ _____ _____    ______ ____
ROOT
ATOM      1  O   UNL     1     -14.704 -14.562  12.320  0.00  0.00    +0.000 OA
ATOM      2  C   UNL     1     -15.906 -16.042  16.819  0.00  0.00    +0.000 C 
ATOM      3  C   UNL     1     -15.032 -17.086  17.404  0.00  0.00    +0.000 C 
ATOM      4  C   UNL     1     -15.870 -14.767  17.697  0.00  0.00    +0.000 C 
ATOM      5  C   UNL     1     -17.351 -16.585  16.696  0.00  0.00    +0.000 C 
ATOM      6  C   UNL     1     -15.357 -15.743  15.457  0.00  0.00    +0.000 C 
ATOM      7  C   UNL     1     -13.923 -18.129  17.634  0.00  0.00    +0.000 C 
ATOM      8  C   UNL     1     -12.877 -18.871  17.427  0.00  0.00    +0.000 C 
ATOM      9  C   UNL     1     -12.339 -18.649  16.133  0.00  0.00    +0.000 C 
ATOM     10  C   UNL     1     -12.221 -18.009  14.748  0.00  0.00    +0.000 C 
ATOM     11  C   UNL     1     -14.853 -15.569  14.375  0.00  0.00    +0.000 C 
ATOM     12  C   UNL     1     -11.980 -19.246  18.560  0.00  0.00    +0.000 C 
ATOM     13  C   UNL     1     -12.543 -17.089  13.567  0.00  0.00    +0.000 C 
ATOM     14  C   UNL     1     -13.003 -16.225  12.709  0.00  0.00    +0.000 C 
ATOM     15  C   UNL     1     -14.210 -15.396  13.071  0.00  0.00    +0.000 C 
ATOM     16  C   UNL     1     -12.287 -16.124  11.384  0.00  0.00    +0.000 C 
ENDROOT
TORSDOF 0
ENDMDL
MODEL 7
REMARK VINA RESULT:      -4.3     28.939     30.898
REMARK  Name = 5470187_Zerumbone.pdbqt.pdb
REMARK  0 active torsions:
REMARK  status: ('A' for Active; 'I' for Inactive)
REMARK                            x       y       z     vdW  Elec       q    Type
REMARK                         _______ _______ _______ _____ _____    ______ ____
ROOT
ATOM      1  O   UNL     1      -4.294   6.615  -4.069  0.00  0.00    +0.000 OA
ATOM      2  C   UNL     1      -5.448   9.239  -0.111  0.00  0.00    +0.000 C 
ATOM      3  C   UNL     1      -4.426  10.221   0.326  0.00  0.00    +0.000 C 
ATOM      4  C   UNL     1      -6.765   9.968  -0.468  0.00  0.00    +0.000 C 
ATOM      5  C   UNL     1      -5.681   8.199   1.013  0.00  0.00    +0.000 C 
ATOM      6  C   UNL     1      -4.891   8.560  -1.325  0.00  0.00    +0.000 C 
ATOM      7  C   UNL     1      -3.156  11.082   0.440  0.00  0.00    +0.000 C 
ATOM      8  C   UNL     1      -1.983  11.577   0.177  0.00  0.00    +0.000 C 
ATOM      9  C   UNL     1      -1.398  10.940  -0.947  0.00  0.00    +0.000 C 
ATOM     10  C   UNL     1      -1.311   9.975  -2.132  0.00  0.00    +0.000 C 
ATOM     11  C   UNL     1      -4.366   8.062  -2.291  0.00  0.00    +0.000 C 
ATOM     12  C   UNL     1      -1.685  13.010   0.469  0.00  0.00    +0.000 C 
ATOM     13  C   UNL     1      -1.736   8.890  -3.126  0.00  0.00    +0.000 C 
ATOM     14  C   UNL     1      -2.309   7.962  -3.835  0.00  0.00    +0.000 C 
ATOM     15  C   UNL     1      -3.687   7.484  -3.453  0.00  0.00    +0.000 C 
ATOM     16  C   UNL     1      -1.530   7.413  -5.006  0.00  0.00    +0.000 C 
ENDROOT
TORSDOF 0
ENDMDL
MODEL 8
REMARK VINA RESULT:      -4.2     20.039     23.060
REMARK  Name = 5470187_Zerumbone.pdbqt.pdb
REMARK  0 active torsions:
REMARK  status: ('A' for Active; 'I' for Inactive)
REMARK                            x       y       z     vdW  Elec       q    Type
REMARK                         _______ _______ _______ _____ _____    ______ ____
ROOT
ATOM      1  O   UNL     1       7.472 -11.667  13.015  0.00  0.00    +0.000 OA
ATOM      2  C   UNL     1       9.767  -7.928  10.863  0.00  0.00    +0.000 C 
ATOM      3  C   UNL     1       8.907  -7.021  10.067  0.00  0.00    +0.000 C 
ATOM      4  C   UNL     1      10.444  -7.143  12.012  0.00  0.00    +0.000 C 
ATOM      5  C   UNL     1      10.828  -8.579   9.941  0.00  0.00    +0.000 C 
ATOM      6  C   UNL     1       8.866  -8.985  11.425  0.00  0.00    +0.000 C 
ATOM      7  C   UNL     1       7.707  -6.353   9.371  0.00  0.00    +0.000 C 
ATOM      8  C   UNL     1       6.489  -6.122   8.981  0.00  0.00    +0.000 C 
ATOM      9  C   UNL     1       5.600  -7.118   9.460  0.00  0.00    +0.000 C 
ATOM     10  C   UNL     1       5.171  -8.370  10.227  0.00  0.00    +0.000 C 
ATOM     11  C   UNL     1       8.071  -9.797  11.831  0.00  0.00    +0.000 C 
ATOM     12  C   UNL     1       6.013  -4.721   8.782  0.00  0.00    +0.000 C 
ATOM     13  C   UNL     1       5.286  -9.612  11.115  0.00  0.00    +0.000 C 
ATOM     14  C   UNL     1       5.628 -10.607  11.882  0.00  0.00    +0.000 C 
ATOM     15  C   UNL     1       7.070 -10.760  12.295  0.00  0.00    +0.000 C 
ATOM     16  C   UNL     1       4.533 -11.559  12.301  0.00  0.00    +0.000 C 
ENDROOT
TORSDOF 0
ENDMDL
MODEL 9
REMARK VINA RESULT:      -4.2     13.009     15.253
REMARK  Name = 5470187_Zerumbone.pdbqt.pdb
REMARK  0 active torsions:
REMARK  status: ('A' for Active; 'I' for Inactive)
REMARK                            x       y       z     vdW  Elec       q    Type
REMARK                         _______ _______ _______ _____ _____    ______ ____
ROOT
ATOM      1  O   UNL     1     -23.740  -7.848  17.162  0.00  0.00    +0.000 OA
ATOM      2  C   UNL     1     -23.139  -7.290  21.978  0.00  0.00    +0.000 C 
ATOM      3  C   UNL     1     -21.974  -6.470  22.387  0.00  0.00    +0.000 C 
ATOM      4  C   UNL     1     -24.449  -6.640  22.486  0.00  0.00    +0.000 C 
ATOM      5  C   UNL     1     -22.985  -8.726  22.538  0.00  0.00    +0.000 C 
ATOM      6  C   UNL     1     -23.129  -7.324  20.481  0.00  0.00    +0.000 C 
ATOM      7  C   UNL     1     -20.709  -5.593  22.386  0.00  0.00    +0.000 C 
ATOM      8  C   UNL     1     -19.699  -4.899  21.953  0.00  0.00    +0.000 C 
ATOM      9  C   UNL     1     -19.626  -4.930  20.537  0.00  0.00    +0.000 C 
ATOM     10  C   UNL     1     -20.055  -5.288  19.113  0.00  0.00    +0.000 C 
ATOM     11  C   UNL     1     -23.043  -7.304  19.277  0.00  0.00    +0.000 C 
ATOM     12  C   UNL     1     -19.230  -3.698  22.705  0.00  0.00    +0.000 C 
ATOM     13  C   UNL     1     -20.889  -5.896  17.981  0.00  0.00    +0.000 C 
ATOM     14  C   UNL     1     -21.742  -6.500  17.206  0.00  0.00    +0.000 C 
ATOM     15  C   UNL     1     -22.894  -7.254  17.821  0.00  0.00    +0.000 C 
ATOM     16  C   UNL     1     -21.503  -6.408  15.718  0.00  0.00    +0.000 C 
ENDROOT
TORSDOF 0
ENDMDL
