MODEL 1
REMARK VINA RESULT:      -5.0      0.000      0.000
REMARK  Name = 5azacytidine.pdbqt.pdb
REMARK  5 active torsions:
REMARK  status: ('A' for Active; 'I' for Inactive)
REMARK    1  A    between atoms: C2*_2  and  O2*_16
REMARK    2  A    between atoms: C3*_3  and  O3*_21
REMARK    3  A    between atoms: C4*_4  and  C5*_18
REMARK    4  A    between atoms: C1*_5  and  N_6
REMARK    5  A    between atoms: C5*_18  and  O5*_19
REMARK                            x       y       z     vdW  Elec       q    Type
REMARK                         _______ _______ _______ _____ _____    ______ ____
ROOT
ATOM      1  O4* UNL     1       6.507  -6.702  10.861  0.00  0.00    +0.000 OA
ATOM      2  C2* UNL     1       5.371  -7.320   8.951  0.00  0.00    +0.000 A 
ATOM      3  C3* UNL     1       5.610  -5.909   8.899  0.00  0.00    +0.000 A 
ATOM      4  C4* UNL     1       6.325  -5.543  10.087  0.00  0.00    +0.000 A 
ATOM      5  C1* UNL     1       5.918  -7.800  10.196  0.00  0.00    +0.000 A 
ENDROOT
BRANCH   5   6
ATOM      6  N   UNL     1       5.896  -9.039  10.762  0.00  0.00    +0.000 N 
ATOM      7  C   UNL     1       6.910  -9.989  10.752  0.00  0.00    +0.000 A 
ATOM      8  O   UNL     1       7.985  -9.830  10.178  0.00  0.00    +0.000 OA
ATOM      9  N   UNL     1       6.619 -11.168  11.434  0.00  0.00    +0.000 NA
ATOM     10  C   UNL     1       5.461 -11.328  12.022  0.00  0.00    +0.000 A 
ATOM     11  N   UNL     1       4.443 -10.389  12.003  0.00  0.00    +0.000 NA
ATOM     12  C   UNL     1       4.814  -9.451  11.418  0.00  0.00    +0.000 A 
ATOM     13  N   UNL     1       5.224 -12.492  12.678  0.00  0.00    +0.000 N 
ATOM     14  H   UNL     1       4.246 -12.739  12.753  0.00  0.00    +0.000 HD
ATOM     15  H   UNL     1       5.834 -13.249  12.392  0.00  0.00    +0.000 HD
ENDBRANCH   5   6
BRANCH   2  16
ATOM     16  O2* UNL     1       4.280  -7.846   8.317  0.00  0.00    +0.000 OA
ATOM     17  H2* UNL     1       4.427  -8.779   8.047  0.00  0.00    +0.000 HD
ENDBRANCH   2  16
BRANCH   3  18
ATOM     18  O3* UNL     1       4.722  -5.065   8.291  0.00  0.00    +0.000 OA
ATOM     19  H3* UNL     1       3.844  -5.151   8.708  0.00  0.00    +0.000 HD
ENDBRANCH   3  18
BRANCH   4  20
ATOM     20  C5* UNL     1       6.535  -4.250  10.603  0.00  0.00    +0.000 C 
BRANCH  20  21
ATOM     21  O5* UNL     1       6.740  -3.027  11.082  0.00  0.00    +0.000 OA
ATOM     22  H5* UNL     1       6.641  -3.028  12.050  0.00  0.00    +0.000 HD
ENDBRANCH  20  21
ENDBRANCH   4  20
TORSDOF 5
ENDMDL
MODEL 2
REMARK VINA RESULT:      -4.7     15.170     16.439
REMARK  Name = 5azacytidine.pdbqt.pdb
REMARK  5 active torsions:
REMARK  status: ('A' for Active; 'I' for Inactive)
REMARK    1  A    between atoms: C2*_2  and  O2*_16
REMARK    2  A    between atoms: C3*_3  and  O3*_21
REMARK    3  A    between atoms: C4*_4  and  C5*_18
REMARK    4  A    between atoms: C1*_5  and  N_6
REMARK    5  A    between atoms: C5*_18  and  O5*_19
REMARK                            x       y       z     vdW  Elec       q    Type
REMARK                         _______ _______ _______ _____ _____    ______ ____
ROOT
ATOM      1  O4* UNL     1      -2.115  -5.606  -1.663  0.00  0.00    +0.000 OA
ATOM      2  C2* UNL     1      -3.883  -7.010  -2.139  0.00  0.00    +0.000 A 
ATOM      3  C3* UNL     1      -2.669  -7.667  -2.518  0.00  0.00    +0.000 A 
ATOM      4  C4* UNL     1      -1.580  -6.787  -2.206  0.00  0.00    +0.000 A 
ATOM      5  C1* UNL     1      -3.523  -5.710  -1.626  0.00  0.00    +0.000 A 
ENDROOT
BRANCH   5   6
ATOM      6  N   UNL     1      -4.297  -4.672  -1.201  0.00  0.00    +0.000 N 
ATOM      7  C   UNL     1      -4.909  -4.529   0.039  0.00  0.00    +0.000 A 
ATOM      8  O   UNL     1      -4.848  -5.375   0.928  0.00  0.00    +0.000 OA
ATOM      9  N   UNL     1      -5.627  -3.348   0.208  0.00  0.00    +0.000 NA
ATOM     10  C   UNL     1      -5.696  -2.468  -0.759  0.00  0.00    +0.000 A 
ATOM     11  N   UNL     1      -5.109  -2.630  -2.002  0.00  0.00    +0.000 NA
ATOM     12  C   UNL     1      -4.532  -3.643  -2.011  0.00  0.00    +0.000 A 
ATOM     13  N   UNL     1      -6.404  -1.330  -0.547  0.00  0.00    +0.000 N 
ATOM     14  H   UNL     1      -6.766  -0.899  -1.387  0.00  0.00    +0.000 HD
ATOM     15  H   UNL     1      -7.068  -1.401   0.215  0.00  0.00    +0.000 HD
ENDBRANCH   5   6
BRANCH   2  16
ATOM     16  O2* UNL     1      -5.045  -7.299  -2.799  0.00  0.00    +0.000 OA
ATOM     17  H2* UNL     1      -5.836  -7.018  -2.290  0.00  0.00    +0.000 HD
ENDBRANCH   2  16
BRANCH   3  18
ATOM     18  O3* UNL     1      -2.634  -8.525  -3.583  0.00  0.00    +0.000 OA
ATOM     19  H3* UNL     1      -3.538  -8.816  -3.804  0.00  0.00    +0.000 HD
ENDBRANCH   3  18
BRANCH   4  20
ATOM     20  C5* UNL     1      -0.245  -6.880  -2.643  0.00  0.00    +0.000 C 
BRANCH  20  21
ATOM     21  O5* UNL     1       1.013  -6.975  -3.063  0.00  0.00    +0.000 OA
ATOM     22  H5* UNL     1       1.390  -7.830  -2.793  0.00  0.00    +0.000 HD
ENDBRANCH  20  21
ENDBRANCH   4  20
TORSDOF 5
ENDMDL
MODEL 3
REMARK VINA RESULT:      -4.3     22.757     24.016
REMARK  Name = 5azacytidine.pdbqt.pdb
REMARK  5 active torsions:
REMARK  status: ('A' for Active; 'I' for Inactive)
REMARK    1  A    between atoms: C2*_2  and  O2*_16
REMARK    2  A    between atoms: C3*_3  and  O3*_21
REMARK    3  A    between atoms: C4*_4  and  C5*_18
REMARK    4  A    between atoms: C1*_5  and  N_6
REMARK    5  A    between atoms: C5*_18  and  O5*_19
REMARK                            x       y       z     vdW  Elec       q    Type
REMARK                         _______ _______ _______ _____ _____    ______ ____
ROOT
ATOM      1  O4* UNL     1     -13.339   4.434  19.062  0.00  0.00    +0.000 OA
ATOM      2  C2* UNL     1     -11.814   5.027  17.436  0.00  0.00    +0.000 A 
ATOM      3  C3* UNL     1     -12.978   4.497  16.793  0.00  0.00    +0.000 A 
ATOM      4  C4* UNL     1     -13.919   4.143  17.816  0.00  0.00    +0.000 A 
ATOM      5  C1* UNL     1     -12.045   4.961  18.859  0.00  0.00    +0.000 A 
ENDROOT
BRANCH   5   6
ATOM      6  N   UNL     1     -11.235   5.269  19.910  0.00  0.00    +0.000 N 
ATOM      7  C   UNL     1     -10.878   6.536  20.357  0.00  0.00    +0.000 A 
ATOM      8  O   UNL     1     -11.242   7.576  19.812  0.00  0.00    +0.000 OA
ATOM      9  N   UNL     1     -10.049   6.554  21.475  0.00  0.00    +0.000 NA
ATOM     10  C   UNL     1      -9.655   5.436  22.029  0.00  0.00    +0.000 A 
ATOM     11  N   UNL     1      -9.989   4.177  21.561  0.00  0.00    +0.000 NA
ATOM     12  C   UNL     1     -10.691   4.297  20.639  0.00  0.00    +0.000 A 
ATOM     13  N   UNL     1      -8.850   5.503  23.120  0.00  0.00    +0.000 N 
ATOM     14  H   UNL     1      -8.263   4.691  23.258  0.00  0.00    +0.000 HD
ATOM     15  H   UNL     1      -8.375   6.393  23.219  0.00  0.00    +0.000 HD
ENDBRANCH   5   6
BRANCH   2  16
ATOM     16  O2* UNL     1     -10.593   4.910  16.832  0.00  0.00    +0.000 OA
ATOM     17  H2* UNL     1     -10.589   5.306  15.933  0.00  0.00    +0.000 HD
ENDBRANCH   2  16
BRANCH   3  18
ATOM     18  O3* UNL     1     -12.881   3.804  15.618  0.00  0.00    +0.000 OA
ATOM     19  H3* UNL     1     -12.853   4.427  14.868  0.00  0.00    +0.000 HD
ENDBRANCH   3  18
BRANCH   4  20
ATOM     20  C5* UNL     1     -15.072   3.345  17.687  0.00  0.00    +0.000 C 
BRANCH  20  21
ATOM     21  O5* UNL     1     -16.161   2.591  17.576  0.00  0.00    +0.000 OA
ATOM     22  H5* UNL     1     -16.116   2.061  16.761  0.00  0.00    +0.000 HD
ENDBRANCH  20  21
ENDBRANCH   4  20
TORSDOF 5
ENDMDL
MODEL 4
REMARK VINA RESULT:      -4.2     22.081     23.189
REMARK  Name = 5azacytidine.pdbqt.pdb
REMARK  5 active torsions:
REMARK  status: ('A' for Active; 'I' for Inactive)
REMARK    1  A    between atoms: C2*_2  and  O2*_16
REMARK    2  A    between atoms: C3*_3  and  O3*_21
REMARK    3  A    between atoms: C4*_4  and  C5*_18
REMARK    4  A    between atoms: C1*_5  and  N_6
REMARK    5  A    between atoms: C5*_18  and  O5*_19
REMARK                            x       y       z     vdW  Elec       q    Type
REMARK                         _______ _______ _______ _____ _____    ______ ____
ROOT
ATOM      1  O4* UNL     1      -8.800  -7.060  29.009  0.00  0.00    +0.000 OA
ATOM      2  C2* UNL     1      -7.670  -7.587  27.068  0.00  0.00    +0.000 A 
ATOM      3  C3* UNL     1      -6.743  -6.993  27.983  0.00  0.00    +0.000 A 
ATOM      4  C4* UNL     1      -7.458  -6.681  29.187  0.00  0.00    +0.000 A 
ATOM      5  C1* UNL     1      -8.960  -7.601  27.716  0.00  0.00    +0.000 A 
ENDROOT
BRANCH   5   6
ATOM      6  N   UNL     1     -10.184  -7.991  27.260  0.00  0.00    +0.000 N 
ATOM      7  C   UNL     1     -10.557  -9.255  26.821  0.00  0.00    +0.000 A 
ATOM      8  O   UNL     1      -9.784 -10.209  26.760  0.00  0.00    +0.000 OA
ATOM      9  N   UNL     1     -11.888  -9.373  26.429  0.00  0.00    +0.000 NA
ATOM     10  C   UNL     1     -12.691  -8.341  26.483  0.00  0.00    +0.000 A 
ATOM     11  N   UNL     1     -12.305  -7.076  26.893  0.00  0.00    +0.000 NA
ATOM     12  C   UNL     1     -11.183  -7.113  27.204  0.00  0.00    +0.000 A 
ATOM     13  N   UNL     1     -13.981  -8.505  26.095  0.00  0.00    +0.000 N 
ATOM     14  H   UNL     1     -14.431  -7.660  25.769  0.00  0.00    +0.000 HD
ATOM     15  H   UNL     1     -14.128  -9.319  25.509  0.00  0.00    +0.000 HD
ENDBRANCH   5   6
BRANCH   2  16
ATOM     16  O2* UNL     1      -7.469  -7.460  25.722  0.00  0.00    +0.000 OA
ATOM     17  H2* UNL     1      -6.542  -7.664  25.468  0.00  0.00    +0.000 HD
ENDBRANCH   2  16
BRANCH   3  18
ATOM     18  O3* UNL     1      -5.699  -6.233  27.535  0.00  0.00    +0.000 OA
ATOM     19  H3* UNL     1      -5.914  -5.286  27.628  0.00  0.00    +0.000 HD
ENDBRANCH   3  18
BRANCH   4  20
ATOM     20  C5* UNL     1      -7.041  -5.852  30.246  0.00  0.00    +0.000 C 
BRANCH  20  21
ATOM     21  O5* UNL     1      -6.639  -5.066  31.240  0.00  0.00    +0.000 OA
ATOM     22  H5* UNL     1      -7.297  -4.368  31.399  0.00  0.00    +0.000 HD
ENDBRANCH  20  21
ENDBRANCH   4  20
TORSDOF 5
ENDMDL
MODEL 5
REMARK VINA RESULT:      -4.2     14.707     16.272
REMARK  Name = 5azacytidine.pdbqt.pdb
REMARK  5 active torsions:
REMARK  status: ('A' for Active; 'I' for Inactive)
REMARK    1  A    between atoms: C2*_2  and  O2*_16
REMARK    2  A    between atoms: C3*_3  and  O3*_21
REMARK    3  A    between atoms: C4*_4  and  C5*_18
REMARK    4  A    between atoms: C1*_5  and  N_6
REMARK    5  A    between atoms: C5*_18  and  O5*_19
REMARK                            x       y       z     vdW  Elec       q    Type
REMARK                         _______ _______ _______ _____ _____    ______ ____
ROOT
ATOM      1  O4* UNL     1      -4.200  -4.053  -1.375  0.00  0.00    +0.000 OA
ATOM      2  C2* UNL     1      -4.028  -4.069  -3.675  0.00  0.00    +0.000 A 
ATOM      3  C3* UNL     1      -5.154  -3.264  -3.312  0.00  0.00    +0.000 A 
ATOM      4  C4* UNL     1      -5.240  -3.255  -1.880  0.00  0.00    +0.000 A 
ATOM      5  C1* UNL     1      -3.454  -4.577  -2.453  0.00  0.00    +0.000 A 
ENDROOT
BRANCH   5   6
ATOM      6  N   UNL     1      -2.420  -5.440  -2.243  0.00  0.00    +0.000 N 
ATOM      7  C   UNL     1      -1.061  -5.152  -2.280  0.00  0.00    +0.000 A 
ATOM      8  O   UNL     1      -0.608  -4.042  -2.549  0.00  0.00    +0.000 OA
ATOM      9  N   UNL     1      -0.224  -6.230  -2.003  0.00  0.00    +0.000 NA
ATOM     10  C   UNL     1      -0.725  -7.411  -1.738  0.00  0.00    +0.000 A 
ATOM     11  N   UNL     1      -2.079  -7.697  -1.733  0.00  0.00    +0.000 NA
ATOM     12  C   UNL     1      -2.667  -6.717  -1.963  0.00  0.00    +0.000 A 
ATOM     13  N   UNL     1       0.130  -8.430  -1.471  0.00  0.00    +0.000 N 
ATOM     14  H   UNL     1      -0.239  -9.350  -1.674  0.00  0.00    +0.000 HD
ATOM     15  H   UNL     1       1.073  -8.266  -1.804  0.00  0.00    +0.000 HD
ENDBRANCH   5   6
BRANCH   2  16
ATOM     16  O2* UNL     1      -4.022  -4.723  -4.877  0.00  0.00    +0.000 OA
ATOM     17  H2* UNL     1      -3.662  -4.162  -5.598  0.00  0.00    +0.000 HD
ENDBRANCH   2  16
BRANCH   3  18
ATOM     18  O3* UNL     1      -6.262  -3.196  -4.111  0.00  0.00    +0.000 OA
ATOM     19  H3* UNL     1      -6.052  -3.546  -4.997  0.00  0.00    +0.000 HD
ENDBRANCH   3  18
BRANCH   4  20
ATOM     20  C5* UNL     1      -6.324  -2.834  -1.085  0.00  0.00    +0.000 C 
BRANCH  20  21
ATOM     21  O5* UNL     1      -7.342  -2.428  -0.333  0.00  0.00    +0.000 OA
ATOM     22  H5* UNL     1      -8.080  -2.143  -0.898  0.00  0.00    +0.000 HD
ENDBRANCH  20  21
ENDBRANCH   4  20
TORSDOF 5
ENDMDL
MODEL 6
REMARK VINA RESULT:      -4.1      4.062      6.349
REMARK  Name = 5azacytidine.pdbqt.pdb
REMARK  5 active torsions:
REMARK  status: ('A' for Active; 'I' for Inactive)
REMARK    1  A    between atoms: C2*_2  and  O2*_16
REMARK    2  A    between atoms: C3*_3  and  O3*_21
REMARK    3  A    between atoms: C4*_4  and  C5*_18
REMARK    4  A    between atoms: C1*_5  and  N_6
REMARK    5  A    between atoms: C5*_18  and  O5*_19
REMARK                            x       y       z     vdW  Elec       q    Type
REMARK                         _______ _______ _______ _____ _____    ______ ____
ROOT
ATOM      1  O4* UNL     1       3.729 -10.786  13.618  0.00  0.00    +0.000 OA
ATOM      2  C2* UNL     1       3.873 -12.543  12.130  0.00  0.00    +0.000 A 
ATOM      3  C3* UNL     1       2.895 -12.871  13.123  0.00  0.00    +0.000 A 
ATOM      4  C4* UNL     1       2.810 -11.765  14.033  0.00  0.00    +0.000 A 
ATOM      5  C1* UNL     1       4.404 -11.244  12.466  0.00  0.00    +0.000 A 
ENDROOT
BRANCH   5   6
ATOM      6  N   UNL     1       5.399 -10.511  11.893  0.00  0.00    +0.000 N 
ATOM      7  C   UNL     1       6.723 -10.889  11.704  0.00  0.00    +0.000 A 
ATOM      8  O   UNL     1       7.182 -11.966  12.077  0.00  0.00    +0.000 OA
ATOM      9  N   UNL     1       7.521  -9.942  11.066  0.00  0.00    +0.000 NA
ATOM     10  C   UNL     1       7.018  -8.791  10.694  0.00  0.00    +0.000 A 
ATOM     11  N   UNL     1       5.706  -8.409  10.912  0.00  0.00    +0.000 NA
ATOM     12  C   UNL     1       5.145  -9.287  11.436  0.00  0.00    +0.000 A 
ATOM     13  N   UNL     1       7.833  -7.901  10.072  0.00  0.00    +0.000 N 
ATOM     14  H   UNL     1       7.549  -6.935  10.171  0.00  0.00    +0.000 HD
ATOM     15  H   UNL     1       8.818  -8.075  10.230  0.00  0.00    +0.000 HD
ENDBRANCH   5   6
BRANCH   2  16
ATOM     16  O2* UNL     1       4.573 -13.542  11.513  0.00  0.00    +0.000 OA
ATOM     17  H2* UNL     1       3.981 -14.243  11.162  0.00  0.00    +0.000 HD
ENDBRANCH   2  16
BRANCH   3  18
ATOM     18  O3* UNL     1       2.701 -14.164  13.523  0.00  0.00    +0.000 OA
ATOM     19  H3* UNL     1       3.547 -14.548  13.821  0.00  0.00    +0.000 HD
ENDBRANCH   3  18
BRANCH   4  20
ATOM     20  C5* UNL     1       2.199 -11.739  15.302  0.00  0.00    +0.000 C 
BRANCH  20  21
ATOM     21  O5* UNL     1       1.615 -11.720  16.496  0.00  0.00    +0.000 OA
ATOM     22  H5* UNL     1       1.713 -10.841  16.900  0.00  0.00    +0.000 HD
ENDBRANCH  20  21
ENDBRANCH   4  20
TORSDOF 5
ENDMDL
MODEL 7
REMARK VINA RESULT:      -4.1     26.925     28.004
REMARK  Name = 5azacytidine.pdbqt.pdb
REMARK  5 active torsions:
REMARK  status: ('A' for Active; 'I' for Inactive)
REMARK    1  A    between atoms: C2*_2  and  O2*_16
REMARK    2  A    between atoms: C3*_3  and  O3*_21
REMARK    3  A    between atoms: C4*_4  and  C5*_18
REMARK    4  A    between atoms: C1*_5  and  N_6
REMARK    5  A    between atoms: C5*_18  and  O5*_19
REMARK                            x       y       z     vdW  Elec       q    Type
REMARK                         _______ _______ _______ _____ _____    ______ ____
ROOT
ATOM      1  O4* UNL     1     -18.859   5.155  14.128  0.00  0.00    +0.000 OA
ATOM      2  C2* UNL     1     -17.534   3.267  14.131  0.00  0.00    +0.000 A 
ATOM      3  C3* UNL     1     -16.717   4.392  14.471  0.00  0.00    +0.000 A 
ATOM      4  C4* UNL     1     -17.558   5.556  14.476  0.00  0.00    +0.000 A 
ATOM      5  C1* UNL     1     -18.868   3.763  13.896  0.00  0.00    +0.000 A 
ENDROOT
BRANCH   5   6
ATOM      6  N   UNL     1     -19.998   3.124  13.480  0.00  0.00    +0.000 N 
ATOM      7  C   UNL     1     -20.143   2.309  12.363  0.00  0.00    +0.000 A 
ATOM      8  O   UNL     1     -19.237   2.084  11.564  0.00  0.00    +0.000 OA
ATOM      9  N   UNL     1     -21.413   1.766  12.192  0.00  0.00    +0.000 NA
ATOM     10  C   UNL     1     -22.372   2.034  13.043  0.00  0.00    +0.000 A 
ATOM     11  N   UNL     1     -22.229   2.871  14.136  0.00  0.00    +0.000 NA
ATOM     12  C   UNL     1     -21.126   3.246  14.175  0.00  0.00    +0.000 A 
ATOM     13  N   UNL     1     -23.593   1.479  12.836  0.00  0.00    +0.000 N 
ATOM     14  H   UNL     1     -24.362   2.000  13.235  0.00  0.00    +0.000 HD
ATOM     15  H   UNL     1     -23.739   1.164  11.885  0.00  0.00    +0.000 HD
ENDBRANCH   5   6
BRANCH   2  16
ATOM     16  O2* UNL     1     -16.974   2.190  13.502  0.00  0.00    +0.000 OA
ATOM     17  H2* UNL     1     -17.623   1.716  12.937  0.00  0.00    +0.000 HD
ENDBRANCH   2  16
BRANCH   3  18
ATOM     18  O3* UNL     1     -15.400   4.444  14.109  0.00  0.00    +0.000 OA
ATOM     19  H3* UNL     1     -14.865   3.916  14.731  0.00  0.00    +0.000 HD
ENDBRANCH   3  18
BRANCH   4  20
ATOM     20  C5* UNL     1     -17.159   6.906  14.483  0.00  0.00    +0.000 C 
BRANCH  20  21
ATOM     21  O5* UNL     1     -16.783   8.181  14.480  0.00  0.00    +0.000 OA
ATOM     22  H5* UNL     1     -17.557   8.757  14.604  0.00  0.00    +0.000 HD
ENDBRANCH  20  21
ENDBRANCH   4  20
TORSDOF 5
ENDMDL
MODEL 8
REMARK VINA RESULT:      -4.1     14.886     15.908
REMARK  Name = 5azacytidine.pdbqt.pdb
REMARK  5 active torsions:
REMARK  status: ('A' for Active; 'I' for Inactive)
REMARK    1  A    between atoms: C2*_2  and  O2*_16
REMARK    2  A    between atoms: C3*_3  and  O3*_21
REMARK    3  A    between atoms: C4*_4  and  C5*_18
REMARK    4  A    between atoms: C1*_5  and  N_6
REMARK    5  A    between atoms: C5*_18  and  O5*_19
REMARK                            x       y       z     vdW  Elec       q    Type
REMARK                         _______ _______ _______ _____ _____    ______ ____
ROOT
ATOM      1  O4* UNL     1      -3.599  -3.457  -0.832  0.00  0.00    +0.000 OA
ATOM      2  C2* UNL     1      -2.841  -2.857  -2.926  0.00  0.00    +0.000 A 
ATOM      3  C3* UNL     1      -3.574  -1.756  -2.378  0.00  0.00    +0.000 A 
ATOM      4  C4* UNL     1      -4.029  -2.141  -1.073  0.00  0.00    +0.000 A 
ATOM      5  C1* UNL     1      -2.885  -3.924  -1.956  0.00  0.00    +0.000 A 
ENDROOT
BRANCH   5   6
ATOM      6  N   UNL     1      -2.409  -5.200  -2.011  0.00  0.00    +0.000 N 
ATOM      7  C   UNL     1      -3.138  -6.377  -1.891  0.00  0.00    +0.000 A 
ATOM      8  O   UNL     1      -4.348  -6.409  -1.680  0.00  0.00    +0.000 OA
ATOM      9  N   UNL     1      -2.391  -7.547  -2.010  0.00  0.00    +0.000 NA
ATOM     10  C   UNL     1      -1.099  -7.493  -2.215  0.00  0.00    +0.000 A 
ATOM     11  N   UNL     1      -0.375  -6.317  -2.303  0.00  0.00    +0.000 NA
ATOM     12  C   UNL     1      -1.110  -5.418  -2.202  0.00  0.00    +0.000 A 
ATOM     13  N   UNL     1      -0.414  -8.658  -2.328  0.00  0.00    +0.000 N 
ATOM     14  H   UNL     1       0.565  -8.595  -2.080  0.00  0.00    +0.000 HD
ATOM     15  H   UNL     1      -0.902  -9.455  -1.936  0.00  0.00    +0.000 HD
ENDBRANCH   5   6
BRANCH   2  16
ATOM     16  O2* UNL     1      -2.790  -3.029  -4.281  0.00  0.00    +0.000 OA
ATOM     17  H2* UNL     1      -3.493  -2.522  -4.743  0.00  0.00    +0.000 HD
ENDBRANCH   2  16
BRANCH   3  18
ATOM     18  O3* UNL     1      -4.291  -0.914  -3.183  0.00  0.00    +0.000 OA
ATOM     19  H3* UNL     1      -4.638  -0.170  -2.657  0.00  0.00    +0.000 HD
ENDBRANCH   3  18
BRANCH   4  20
ATOM     20  C5* UNL     1      -5.003  -1.507  -0.278  0.00  0.00    +0.000 C 
BRANCH  20  21
ATOM     21  O5* UNL     1      -5.916  -0.900   0.473  0.00  0.00    +0.000 OA
ATOM     22  H5* UNL     1      -5.540  -0.684   1.344  0.00  0.00    +0.000 HD
ENDBRANCH  20  21
ENDBRANCH   4  20
TORSDOF 5
ENDMDL
MODEL 9
REMARK VINA RESULT:      -4.0     15.725     17.325
REMARK  Name = 5azacytidine.pdbqt.pdb
REMARK  5 active torsions:
REMARK  status: ('A' for Active; 'I' for Inactive)
REMARK    1  A    between atoms: C2*_2  and  O2*_16
REMARK    2  A    between atoms: C3*_3  and  O3*_21
REMARK    3  A    between atoms: C4*_4  and  C5*_18
REMARK    4  A    between atoms: C1*_5  and  N_6
REMARK    5  A    between atoms: C5*_18  and  O5*_19
REMARK                            x       y       z     vdW  Elec       q    Type
REMARK                         _______ _______ _______ _____ _____    ______ ____
ROOT
ATOM      1  O4* UNL     1      -3.050  -3.192  -4.474  0.00  0.00    +0.000 OA
ATOM      2  C2* UNL     1      -4.229  -1.790  -3.071  0.00  0.00    +0.000 A 
ATOM      3  C3* UNL     1      -3.672  -1.005  -4.130  0.00  0.00    +0.000 A 
ATOM      4  C4* UNL     1      -2.952  -1.892  -4.999  0.00  0.00    +0.000 A 
ATOM      5  C1* UNL     1      -3.812  -3.155  -3.286  0.00  0.00    +0.000 A 
ENDROOT
BRANCH   5   6
ATOM      6  N   UNL     1      -4.008  -4.277  -2.538  0.00  0.00    +0.000 N 
ATOM      7  C   UNL     1      -3.047  -5.016  -1.859  0.00  0.00    +0.000 A 
ATOM      8  O   UNL     1      -1.847  -4.753  -1.881  0.00  0.00    +0.000 OA
ATOM      9  N   UNL     1      -3.538  -6.111  -1.152  0.00  0.00    +0.000 NA
ATOM     10  C   UNL     1      -4.817  -6.386  -1.157  0.00  0.00    +0.000 A 
ATOM     11  N   UNL     1      -5.766  -5.663  -1.859  0.00  0.00    +0.000 NA
ATOM     12  C   UNL     1      -5.234  -4.774  -2.393  0.00  0.00    +0.000 A 
ATOM     13  N   UNL     1      -5.249  -7.461  -0.449  0.00  0.00    +0.000 N 
ATOM     14  H   UNL     1      -6.111  -7.867  -0.789  0.00  0.00    +0.000 HD
ATOM     15  H   UNL     1      -4.517  -8.129  -0.239  0.00  0.00    +0.000 HD
ENDBRANCH   5   6
BRANCH   2  16
ATOM     16  O2* UNL     1      -4.448  -1.219  -1.848  0.00  0.00    +0.000 OA
ATOM     17  H2* UNL     1      -3.947  -0.382  -1.739  0.00  0.00    +0.000 HD
ENDBRANCH   2  16
BRANCH   3  18
ATOM     18  O3* UNL     1      -3.281   0.289  -3.920  0.00  0.00    +0.000 OA
ATOM     19  H3* UNL     1      -3.024   0.698  -4.767  0.00  0.00    +0.000 HD
ENDBRANCH   3  18
BRANCH   4  20
ATOM     20  C5* UNL     1      -2.026  -1.550  -6.003  0.00  0.00    +0.000 C 
BRANCH  20  21
ATOM     21  O5* UNL     1      -1.159  -1.224  -6.956  0.00  0.00    +0.000 OA
ATOM     22  H5* UNL     1      -1.430  -1.620  -7.803  0.00  0.00    +0.000 HD
ENDBRANCH  20  21
ENDBRANCH   4  20
TORSDOF 5
ENDMDL
