MODEL 1
REMARK VINA RESULT:      -5.8      0.000      0.000
REMARK  Name = 60953_Capecitabine.pdbqt.pdb
REMARK  6 active torsions:
REMARK  status: ('A' for Active; 'I' for Inactive)
REMARK    1  A    between atoms: N_4  and  C_16
REMARK    2  A    between atoms: C_11  and  O_23
REMARK    3  A    between atoms: C_14  and  O_19
REMARK    4  A    between atoms: C_15  and  O_21
REMARK    5  A    between atoms: O_23  and  C_24
REMARK    6  A    between atoms: C_25  and  C_26
REMARK                            x       y       z     vdW  Elec       q    Type
REMARK                         _______ _______ _______ _____ _____    ______ ____
ROOT
ATOM      1  F   UNL     1      -6.623  -2.593  -1.576  0.00  0.00    +0.000 F 
ATOM      2  O   UNL     1      -3.069  -6.590  -1.273  0.00  0.00    +0.000 OA
ATOM      3  O   UNL     1      -2.671  -3.274  -4.544  0.00  0.00    +0.000 OA
ATOM      4  N   UNL     1      -5.091  -5.688  -0.568  0.00  0.00    +0.000 N 
ATOM      5  N   UNL     1      -3.844  -4.748  -2.391  0.00  0.00    +0.000 NA
ATOM      6  N   UNL     1      -4.682  -2.825  -3.463  0.00  0.00    +0.000 N 
ATOM      7  C   UNL     1      -5.981  -4.707  -0.820  0.00  0.00    +0.000 C 
ATOM      8  C   UNL     1      -3.945  -5.738  -1.404  0.00  0.00    +0.000 C 
ATOM      9  C   UNL     1      -6.020  -3.785  -1.717  0.00  0.00    +0.000 C 
ATOM     10  C   UNL     1      -4.766  -3.842  -2.535  0.00  0.00    +0.000 C 
ATOM     11  C   UNL     1      -3.669  -2.591  -4.366  0.00  0.00    +0.000 C 
ATOM     12  H   UNL     1      -5.422  -2.138  -3.491  0.00  0.00    +0.000 HD
ENDROOT
BRANCH   4  16
ATOM     13  O   UNL     1      -4.591  -6.577   1.627  0.00  0.00    +0.000 OA
ATOM     14  C   UNL     1      -6.370  -7.598   0.572  0.00  0.00    +0.000 A 
ATOM     15  C   UNL     1      -6.148  -8.260   1.821  0.00  0.00    +0.000 A 
ATOM     16  C   UNL     1      -5.370  -6.562   0.449  0.00  0.00    +0.000 A 
ATOM     17  C   UNL     1      -5.046  -7.603   2.470  0.00  0.00    +0.000 A 
ATOM     18  C   UNL     1      -4.231  -8.002   3.652  0.00  0.00    +0.000 C 
BRANCH  14  19
ATOM     19  O   UNL     1      -6.915  -8.295  -0.469  0.00  0.00    +0.000 OA
ATOM     20  H   UNL     1      -6.356  -8.253  -1.277  0.00  0.00    +0.000 HD
ENDBRANCH  14  19
BRANCH  15  21
ATOM     21  O   UNL     1      -6.438  -9.589   1.979  0.00  0.00    +0.000 OA
ATOM     22  H   UNL     1      -6.147 -10.097   1.197  0.00  0.00    +0.000 HD
ENDBRANCH  15  21
ENDBRANCH   4  16
BRANCH  11  23
ATOM     23  O   UNL     1      -3.966  -1.454  -5.063  0.00  0.00    +0.000 OA
BRANCH  23  24
ATOM     24  C   UNL     1      -3.073  -0.471  -4.975  0.00  0.00    +0.000 C 
ATOM     25  C   UNL     1      -2.045   0.661  -4.875  0.00  0.00    +0.000 C 
BRANCH  25  26
ATOM     26  C   UNL     1      -1.017   1.792  -4.777  0.00  0.00    +0.000 C 
ATOM     27  C   UNL     1       0.013   2.922  -4.687  0.00  0.00    +0.000 C 
ATOM     28  C   UNL     1       1.042   4.055  -4.609  0.00  0.00    +0.000 C 
ENDBRANCH  25  26
ENDBRANCH  23  24
ENDBRANCH  11  23
TORSDOF 6
ENDMDL
MODEL 2
REMARK VINA RESULT:      -5.7     22.891     26.250
REMARK  Name = 60953_Capecitabine.pdbqt.pdb
REMARK  6 active torsions:
REMARK  status: ('A' for Active; 'I' for Inactive)
REMARK    1  A    between atoms: N_4  and  C_16
REMARK    2  A    between atoms: C_11  and  O_23
REMARK    3  A    between atoms: C_14  and  O_19
REMARK    4  A    between atoms: C_15  and  O_21
REMARK    5  A    between atoms: O_23  and  C_24
REMARK    6  A    between atoms: C_25  and  C_26
REMARK                            x       y       z     vdW  Elec       q    Type
REMARK                         _______ _______ _______ _____ _____    ______ ____
ROOT
ATOM      1  F   UNL     1     -18.795   4.447  18.374  0.00  0.00    +0.000 F 
ATOM      2  O   UNL     1     -13.561   3.483  17.756  0.00  0.00    +0.000 OA
ATOM      3  O   UNL     1     -15.945   1.578  21.297  0.00  0.00    +0.000 OA
ATOM      4  N   UNL     1     -15.433   4.703  17.118  0.00  0.00    +0.000 N 
ATOM      5  N   UNL     1     -15.454   3.240  19.021  0.00  0.00    +0.000 NA
ATOM      6  N   UNL     1     -17.453   3.005  20.246  0.00  0.00    +0.000 N 
ATOM      7  C   UNL     1     -16.715   4.963  17.447  0.00  0.00    +0.000 C 
ATOM      8  C   UNL     1     -14.734   3.794  17.954  0.00  0.00    +0.000 C 
ATOM      9  C   UNL     1     -17.456   4.560  18.418  0.00  0.00    +0.000 C 
ATOM     10  C   UNL     1     -16.696   3.561  19.235  0.00  0.00    +0.000 C 
ATOM     11  C   UNL     1     -17.059   2.064  21.171  0.00  0.00    +0.000 C 
ATOM     12  H   UNL     1     -18.422   3.280  20.328  0.00  0.00    +0.000 HD
ENDROOT
BRANCH   4  16
ATOM     13  O   UNL     1     -14.310   6.621  16.160  0.00  0.00    +0.000 OA
ATOM     14  C   UNL     1     -14.856   4.980  14.633  0.00  0.00    +0.000 A 
ATOM     15  C   UNL     1     -14.260   6.073  13.927  0.00  0.00    +0.000 A 
ATOM     16  C   UNL     1     -14.907   5.347  16.030  0.00  0.00    +0.000 A 
ATOM     17  C   UNL     1     -13.915   7.079  14.893  0.00  0.00    +0.000 A 
ATOM     18  C   UNL     1     -13.505   8.500  14.718  0.00  0.00    +0.000 C 
BRANCH  14  19
ATOM     19  O   UNL     1     -15.761   4.181  13.995  0.00  0.00    +0.000 OA
ATOM     20  H   UNL     1     -16.359   3.721  14.625  0.00  0.00    +0.000 HD
ENDBRANCH  14  19
BRANCH  15  21
ATOM     21  O   UNL     1     -14.612   6.353  12.632  0.00  0.00    +0.000 OA
ATOM     22  H   UNL     1     -14.198   5.714  12.021  0.00  0.00    +0.000 HD
ENDBRANCH  15  21
ENDBRANCH   4  16
BRANCH  11  23
ATOM     23  O   UNL     1     -18.133   1.759  21.960  0.00  0.00    +0.000 OA
BRANCH  23  24
ATOM     24  C   UNL     1     -18.503   0.481  21.965  0.00  0.00    +0.000 C 
ATOM     25  C   UNL     1     -18.927  -0.992  21.971  0.00  0.00    +0.000 C 
BRANCH  25  26
ATOM     26  C   UNL     1     -19.349  -2.464  21.977  0.00  0.00    +0.000 C 
ATOM     27  C   UNL     1     -19.768  -3.937  21.989  0.00  0.00    +0.000 C 
ATOM     28  C   UNL     1     -20.189  -5.410  22.015  0.00  0.00    +0.000 C 
ENDBRANCH  25  26
ENDBRANCH  23  24
ENDBRANCH  11  23
TORSDOF 6
ENDMDL
MODEL 3
REMARK VINA RESULT:      -5.7     16.283     17.306
REMARK  Name = 60953_Capecitabine.pdbqt.pdb
REMARK  6 active torsions:
REMARK  status: ('A' for Active; 'I' for Inactive)
REMARK    1  A    between atoms: N_4  and  C_16
REMARK    2  A    between atoms: C_11  and  O_23
REMARK    3  A    between atoms: C_14  and  O_19
REMARK    4  A    between atoms: C_15  and  O_21
REMARK    5  A    between atoms: O_23  and  C_24
REMARK    6  A    between atoms: C_25  and  C_26
REMARK                            x       y       z     vdW  Elec       q    Type
REMARK                         _______ _______ _______ _____ _____    ______ ____
ROOT
ATOM      1  F   UNL     1       8.111 -11.033  10.158  0.00  0.00    +0.000 F 
ATOM      2  O   UNL     1       3.177 -10.249  12.094  0.00  0.00    +0.000 OA
ATOM      3  O   UNL     1       5.556  -6.747  10.110  0.00  0.00    +0.000 OA
ATOM      4  N   UNL     1       5.023 -11.647  11.899  0.00  0.00    +0.000 N 
ATOM      5  N   UNL     1       5.074  -9.362  11.168  0.00  0.00    +0.000 NA
ATOM      6  N   UNL     1       7.046  -8.533  10.181  0.00  0.00    +0.000 N 
ATOM      7  C   UNL     1       6.306 -11.688  11.487  0.00  0.00    +0.000 C 
ATOM      8  C   UNL     1       4.347 -10.408  11.751  0.00  0.00    +0.000 C 
ATOM      9  C   UNL     1       7.083 -10.791  10.991  0.00  0.00    +0.000 C 
ATOM     10  C   UNL     1       6.311  -9.523  10.799  0.00  0.00    +0.000 C 
ATOM     11  C   UNL     1       6.638  -7.257   9.862  0.00  0.00    +0.000 C 
ATOM     12  H   UNL     1       7.991  -8.745   9.893  0.00  0.00    +0.000 HD
ENDROOT
BRANCH   4  16
ATOM     13  O   UNL     1       4.291 -13.941  11.657  0.00  0.00    +0.000 OA
ATOM     14  C   UNL     1       3.998 -13.070  13.773  0.00  0.00    +0.000 A 
ATOM     15  C   UNL     1       3.469 -14.400  13.756  0.00  0.00    +0.000 A 
ATOM     16  C   UNL     1       4.486 -12.784  12.443  0.00  0.00    +0.000 A 
ATOM     17  C   UNL     1       3.671 -14.931  12.436  0.00  0.00    +0.000 A 
ATOM     18  C   UNL     1       3.116 -16.147  11.778  0.00  0.00    +0.000 C 
BRANCH  14  19
ATOM     19  O   UNL     1       3.475 -12.149  14.635  0.00  0.00    +0.000 OA
ATOM     20  H   UNL     1       2.869 -11.520  14.183  0.00  0.00    +0.000 HD
ENDBRANCH  14  19
BRANCH  15  21
ATOM     21  O   UNL     1       2.420 -14.753  14.564  0.00  0.00    +0.000 OA
ATOM     22  H   UNL     1       1.684 -14.120  14.463  0.00  0.00    +0.000 HD
ENDBRANCH  15  21
ENDBRANCH   4  16
BRANCH  11  23
ATOM     23  O   UNL     1       7.665  -6.623   9.220  0.00  0.00    +0.000 OA
BRANCH  23  24
ATOM     24  C   UNL     1       7.625  -5.293   9.235  0.00  0.00    +0.000 C 
ATOM     25  C   UNL     1       7.577  -3.761   9.255  0.00  0.00    +0.000 C 
BRANCH  25  26
ATOM     26  C   UNL     1       7.528  -2.231   9.276  0.00  0.00    +0.000 C 
ATOM     27  C   UNL     1       7.473  -0.701   9.301  0.00  0.00    +0.000 C 
ATOM     28  C   UNL     1       7.411   0.830   9.338  0.00  0.00    +0.000 C 
ENDBRANCH  25  26
ENDBRANCH  23  24
ENDBRANCH  11  23
TORSDOF 6
ENDMDL
MODEL 4
REMARK VINA RESULT:      -5.6     19.768     22.635
REMARK  Name = 60953_Capecitabine.pdbqt.pdb
REMARK  6 active torsions:
REMARK  status: ('A' for Active; 'I' for Inactive)
REMARK    1  A    between atoms: N_4  and  C_16
REMARK    2  A    between atoms: C_11  and  O_23
REMARK    3  A    between atoms: C_14  and  O_19
REMARK    4  A    between atoms: C_15  and  O_21
REMARK    5  A    between atoms: O_23  and  C_24
REMARK    6  A    between atoms: C_25  and  C_26
REMARK                            x       y       z     vdW  Elec       q    Type
REMARK                         _______ _______ _______ _____ _____    ______ ____
ROOT
ATOM      1  F   UNL     1     -22.861  -7.583  12.143  0.00  0.00    +0.000 F 
ATOM      2  O   UNL     1     -18.722  -5.857   9.213  0.00  0.00    +0.000 OA
ATOM      3  O   UNL     1     -18.117  -7.217  13.645  0.00  0.00    +0.000 OA
ATOM      4  N   UNL     1     -21.021  -6.125   9.418  0.00  0.00    +0.000 N 
ATOM      5  N   UNL     1     -19.523  -6.544  11.245  0.00  0.00    +0.000 NA
ATOM      6  N   UNL     1     -20.416  -7.294  13.292  0.00  0.00    +0.000 N 
ATOM      7  C   UNL     1     -21.994  -6.462  10.287  0.00  0.00    +0.000 C 
ATOM      8  C   UNL     1     -19.691  -6.148   9.911  0.00  0.00    +0.000 C 
ATOM      9  C   UNL     1     -21.966  -6.789  11.532  0.00  0.00    +0.000 C 
ATOM     10  C   UNL     1     -20.542  -6.857  11.990  0.00  0.00    +0.000 C 
ATOM     11  C   UNL     1     -19.255  -7.465  14.013  0.00  0.00    +0.000 C 
ATOM     12  H   UNL     1     -21.253  -7.552  13.796  0.00  0.00    +0.000 HD
ENDROOT
BRANCH   4  16
ATOM     13  O   UNL     1     -21.880  -6.731   7.238  0.00  0.00    +0.000 OA
ATOM     14  C   UNL     1     -21.350  -4.498   7.461  0.00  0.00    +0.000 A 
ATOM     15  C   UNL     1     -21.781  -4.726   6.115  0.00  0.00    +0.000 A 
ATOM     16  C   UNL     1     -21.390  -5.768   8.148  0.00  0.00    +0.000 A 
ATOM     17  C   UNL     1     -22.120  -6.118   5.998  0.00  0.00    +0.000 A 
ATOM     18  C   UNL     1     -22.386  -6.960   4.798  0.00  0.00    +0.000 C 
BRANCH  14  19
ATOM     19  O   UNL     1     -20.466  -3.489   7.721  0.00  0.00    +0.000 OA
ATOM     20  H   UNL     1     -19.987  -3.198   6.913  0.00  0.00    +0.000 HD
ENDBRANCH  14  19
BRANCH  15  21
ATOM     21  O   UNL     1     -21.294  -3.973   5.080  0.00  0.00    +0.000 OA
ATOM     22  H   UNL     1     -21.924  -3.266   4.846  0.00  0.00    +0.000 HD
ENDBRANCH  15  21
ENDBRANCH   4  16
BRANCH  11  23
ATOM     23  O   UNL     1     -19.582  -7.957  15.246  0.00  0.00    +0.000 OA
BRANCH  23  24
ATOM     24  C   UNL     1     -19.605  -7.067  16.237  0.00  0.00    +0.000 C 
ATOM     25  C   UNL     1     -19.628  -6.043  17.376  0.00  0.00    +0.000 C 
BRANCH  25  26
ATOM     26  C   UNL     1     -19.649  -5.021  18.516  0.00  0.00    +0.000 C 
ATOM     27  C   UNL     1     -19.678  -4.000  19.657  0.00  0.00    +0.000 C 
ATOM     28  C   UNL     1     -19.717  -2.985  20.805  0.00  0.00    +0.000 C 
ENDBRANCH  25  26
ENDBRANCH  23  24
ENDBRANCH  11  23
TORSDOF 6
ENDMDL
MODEL 5
REMARK VINA RESULT:      -5.5     18.368     19.496
REMARK  Name = 60953_Capecitabine.pdbqt.pdb
REMARK  6 active torsions:
REMARK  status: ('A' for Active; 'I' for Inactive)
REMARK    1  A    between atoms: N_4  and  C_16
REMARK    2  A    between atoms: C_11  and  O_23
REMARK    3  A    between atoms: C_14  and  O_19
REMARK    4  A    between atoms: C_15  and  O_21
REMARK    5  A    between atoms: O_23  and  C_24
REMARK    6  A    between atoms: C_25  and  C_26
REMARK                            x       y       z     vdW  Elec       q    Type
REMARK                         _______ _______ _______ _____ _____    ______ ____
ROOT
ATOM      1  F   UNL     1     -10.366 -20.970   9.035  0.00  0.00    +0.000 F 
ATOM      2  O   UNL     1      -9.311 -15.768   9.765  0.00  0.00    +0.000 OA
ATOM      3  O   UNL     1      -5.999 -18.692   8.236  0.00  0.00    +0.000 OA
ATOM      4  N   UNL     1     -10.782 -17.544  10.051  0.00  0.00    +0.000 N 
ATOM      5  N   UNL     1      -8.539 -17.864   9.260  0.00  0.00    +0.000 NA
ATOM      6  N   UNL     1      -7.831 -20.044   8.716  0.00  0.00    +0.000 N 
ATOM      7  C   UNL     1     -10.890 -18.883   9.943  0.00  0.00    +0.000 C 
ATOM      8  C   UNL     1      -9.529 -16.976   9.703  0.00  0.00    +0.000 C 
ATOM      9  C   UNL     1     -10.047 -19.793   9.602  0.00  0.00    +0.000 C 
ATOM     10  C   UNL     1      -8.763 -19.143   9.189  0.00  0.00    +0.000 C 
ATOM     11  C   UNL     1      -6.559 -19.778   8.262  0.00  0.00    +0.000 C 
ATOM     12  H   UNL     1      -8.091 -21.018   8.658  0.00  0.00    +0.000 HD
ENDROOT
BRANCH   4  16
ATOM     13  O   UNL     1     -12.796 -16.279   9.599  0.00  0.00    +0.000 OA
ATOM     14  C   UNL     1     -12.301 -16.505  11.840  0.00  0.00    +0.000 A 
ATOM     15  C   UNL     1     -13.470 -15.689  11.718  0.00  0.00    +0.000 A 
ATOM     16  C   UNL     1     -11.872 -16.846  10.504  0.00  0.00    +0.000 A 
ATOM     17  C   UNL     1     -13.771 -15.569  10.317  0.00  0.00    +0.000 A 
ATOM     18  C   UNL     1     -14.705 -14.661   9.594  0.00  0.00    +0.000 C 
BRANCH  14  19
ATOM     19  O   UNL     1     -11.474 -16.337  12.915  0.00  0.00    +0.000 OA
ATOM     20  H   UNL     1     -11.808 -16.801  13.715  0.00  0.00    +0.000 HD
ENDBRANCH  14  19
BRANCH  15  21
ATOM     21  O   UNL     1     -13.753 -14.717  12.641  0.00  0.00    +0.000 OA
ATOM     22  H   UNL     1     -14.239 -13.980  12.222  0.00  0.00    +0.000 HD
ENDBRANCH  15  21
ENDBRANCH   4  16
BRANCH  11  23
ATOM     23  O   UNL     1      -5.995 -20.951   7.845  0.00  0.00    +0.000 OA
BRANCH  23  24
ATOM     24  C   UNL     1      -4.788 -20.850   7.293  0.00  0.00    +0.000 C 
ATOM     25  C   UNL     1      -3.399 -20.730   6.656  0.00  0.00    +0.000 C 
BRANCH  25  26
ATOM     26  C   UNL     1      -2.012 -20.609   6.019  0.00  0.00    +0.000 C 
ATOM     27  C   UNL     1      -0.625 -20.496   5.381  0.00  0.00    +0.000 C 
ATOM     28  C   UNL     1       0.762 -20.393   4.736  0.00  0.00    +0.000 C 
ENDBRANCH  25  26
ENDBRANCH  23  24
ENDBRANCH  11  23
TORSDOF 6
ENDMDL
MODEL 6
REMARK VINA RESULT:      -5.3     17.286     18.818
REMARK  Name = 60953_Capecitabine.pdbqt.pdb
REMARK  6 active torsions:
REMARK  status: ('A' for Active; 'I' for Inactive)
REMARK    1  A    between atoms: N_4  and  C_16
REMARK    2  A    between atoms: C_11  and  O_23
REMARK    3  A    between atoms: C_14  and  O_19
REMARK    4  A    between atoms: C_15  and  O_21
REMARK    5  A    between atoms: O_23  and  C_24
REMARK    6  A    between atoms: C_25  and  C_26
REMARK                            x       y       z     vdW  Elec       q    Type
REMARK                         _______ _______ _______ _____ _____    ______ ____
ROOT
ATOM      1  F   UNL     1       7.897 -11.853  10.521  0.00  0.00    +0.000 F 
ATOM      2  O   UNL     1       2.902 -11.001  12.260  0.00  0.00    +0.000 OA
ATOM      3  O   UNL     1       5.520  -7.469  10.672  0.00  0.00    +0.000 OA
ATOM      4  N   UNL     1       4.698 -12.460  12.052  0.00  0.00    +0.000 N 
ATOM      5  N   UNL     1       4.879 -10.131  11.501  0.00  0.00    +0.000 NA
ATOM      6  N   UNL     1       6.933  -9.318  10.681  0.00  0.00    +0.000 N 
ATOM      7  C   UNL     1       5.999 -12.527  11.703  0.00  0.00    +0.000 C 
ATOM      8  C   UNL     1       4.081 -11.185  11.965  0.00  0.00    +0.000 C 
ATOM      9  C   UNL     1       6.837 -11.630  11.317  0.00  0.00    +0.000 C 
ATOM     10  C   UNL     1       6.126 -10.318  11.184  0.00  0.00    +0.000 C 
ATOM     11  C   UNL     1       6.593  -8.005  10.440  0.00  0.00    +0.000 C 
ATOM     12  H   UNL     1       7.882  -9.549  10.425  0.00  0.00    +0.000 HD
ENDROOT
BRANCH   4  16
ATOM     13  O   UNL     1       3.970 -14.728  11.625  0.00  0.00    +0.000 OA
ATOM     14  C   UNL     1       3.449 -13.945  13.731  0.00  0.00    +0.000 A 
ATOM     15  C   UNL     1       2.908 -15.263  13.595  0.00  0.00    +0.000 A 
ATOM     16  C   UNL     1       4.089 -13.610  12.480  0.00  0.00    +0.000 A 
ATOM     17  C   UNL     1       3.253 -15.740  12.284  0.00  0.00    +0.000 A 
ATOM     18  C   UNL     1       2.761 -16.916  11.513  0.00  0.00    +0.000 C 
BRANCH  14  19
ATOM     19  O   UNL     1       2.842 -13.053  14.570  0.00  0.00    +0.000 OA
ATOM     20  H   UNL     1       1.948 -12.796  14.253  0.00  0.00    +0.000 HD
ENDBRANCH  14  19
BRANCH  15  21
ATOM     21  O   UNL     1       1.770 -15.632  14.262  0.00  0.00    +0.000 OA
ATOM     22  H   UNL     1       1.060 -15.853  13.630  0.00  0.00    +0.000 HD
ENDBRANCH  15  21
ENDBRANCH   4  16
BRANCH  11  23
ATOM     23  O   UNL     1       7.677  -7.371   9.901  0.00  0.00    +0.000 OA
BRANCH  23  24
ATOM     24  C   UNL     1       8.856  -7.948  10.125  0.00  0.00    +0.000 C 
ATOM     25  C   UNL     1      10.212  -8.613  10.384  0.00  0.00    +0.000 C 
BRANCH  25  26
ATOM     26  C   UNL     1      11.566  -9.280  10.644  0.00  0.00    +0.000 C 
ATOM     27  C   UNL     1      12.921  -9.947  10.896  0.00  0.00    +0.000 C 
ATOM     28  C   UNL     1      14.282 -10.608  11.138  0.00  0.00    +0.000 C 
ENDBRANCH  25  26
ENDBRANCH  23  24
ENDBRANCH  11  23
TORSDOF 6
ENDMDL
MODEL 7
REMARK VINA RESULT:      -5.2     18.754     20.564
REMARK  Name = 60953_Capecitabine.pdbqt.pdb
REMARK  6 active torsions:
REMARK  status: ('A' for Active; 'I' for Inactive)
REMARK    1  A    between atoms: N_4  and  C_16
REMARK    2  A    between atoms: C_11  and  O_23
REMARK    3  A    between atoms: C_14  and  O_19
REMARK    4  A    between atoms: C_15  and  O_21
REMARK    5  A    between atoms: O_23  and  C_24
REMARK    6  A    between atoms: C_25  and  C_26
REMARK                            x       y       z     vdW  Elec       q    Type
REMARK                         _______ _______ _______ _____ _____    ______ ____
ROOT
ATOM      1  F   UNL     1     -10.976 -20.682   8.642  0.00  0.00    +0.000 F 
ATOM      2  O   UNL     1      -9.551 -15.709  10.035  0.00  0.00    +0.000 OA
ATOM      3  O   UNL     1      -6.422 -18.684   8.243  0.00  0.00    +0.000 OA
ATOM      4  N   UNL     1     -11.164 -17.382  10.062  0.00  0.00    +0.000 N 
ATOM      5  N   UNL     1      -8.925 -17.784   9.296  0.00  0.00    +0.000 NA
ATOM      6  N   UNL     1      -8.368 -19.932   8.505  0.00  0.00    +0.000 N 
ATOM      7  C   UNL     1     -11.370 -18.685   9.787  0.00  0.00    +0.000 C 
ATOM      8  C   UNL     1      -9.859 -16.879   9.819  0.00  0.00    +0.000 C 
ATOM      9  C   UNL     1     -10.588 -19.612   9.358  0.00  0.00    +0.000 C 
ATOM     10  C   UNL     1      -9.244 -19.023   9.062  0.00  0.00    +0.000 C 
ATOM     11  C   UNL     1      -7.064 -19.716   8.120  0.00  0.00    +0.000 C 
ATOM     12  H   UNL     1      -8.700 -20.868   8.321  0.00  0.00    +0.000 HD
ENDROOT
BRANCH   4  16
ATOM     13  O   UNL     1     -13.133 -16.018   9.711  0.00  0.00    +0.000 OA
ATOM     14  C   UNL     1     -12.593 -16.353  11.928  0.00  0.00    +0.000 A 
ATOM     15  C   UNL     1     -13.730 -15.485  11.868  0.00  0.00    +0.000 A 
ATOM     16  C   UNL     1     -12.211 -16.659  10.569  0.00  0.00    +0.000 A 
ATOM     17  C   UNL     1     -14.059 -15.298  10.481  0.00  0.00    +0.000 A 
ATOM     18  C   UNL     1     -14.971 -14.324   9.818  0.00  0.00    +0.000 C 
BRANCH  14  19
ATOM     19  O   UNL     1     -11.735 -16.263  12.987  0.00  0.00    +0.000 OA
ATOM     20  H   UNL     1     -11.117 -17.026  13.030  0.00  0.00    +0.000 HD
ENDBRANCH  14  19
BRANCH  15  21
ATOM     21  O   UNL     1     -13.949 -14.540  12.834  0.00  0.00    +0.000 OA
ATOM     22  H   UNL     1     -13.872 -13.642  12.458  0.00  0.00    +0.000 HD
ENDBRANCH  15  21
ENDBRANCH   4  16
BRANCH  11  23
ATOM     23  O   UNL     1      -6.577 -20.872   7.577  0.00  0.00    +0.000 OA
BRANCH  23  24
ATOM     24  C   UNL     1      -5.616 -21.478   8.270  0.00  0.00    +0.000 C 
ATOM     25  C   UNL     1      -4.511 -22.176   9.070  0.00  0.00    +0.000 C 
BRANCH  25  26
ATOM     26  C   UNL     1      -3.407 -22.873   9.871  0.00  0.00    +0.000 C 
ATOM     27  C   UNL     1      -2.298 -23.565  10.668  0.00  0.00    +0.000 C 
ATOM     28  C   UNL     1      -1.181 -24.248  11.463  0.00  0.00    +0.000 C 
ENDBRANCH  25  26
ENDBRANCH  23  24
ENDBRANCH  11  23
TORSDOF 6
ENDMDL
MODEL 8
REMARK VINA RESULT:      -4.9     23.990     27.537
REMARK  Name = 60953_Capecitabine.pdbqt.pdb
REMARK  6 active torsions:
REMARK  status: ('A' for Active; 'I' for Inactive)
REMARK    1  A    between atoms: N_4  and  C_16
REMARK    2  A    between atoms: C_11  and  O_23
REMARK    3  A    between atoms: C_14  and  O_19
REMARK    4  A    between atoms: C_15  and  O_21
REMARK    5  A    between atoms: O_23  and  C_24
REMARK    6  A    between atoms: C_25  and  C_26
REMARK                            x       y       z     vdW  Elec       q    Type
REMARK                         _______ _______ _______ _____ _____    ______ ____
ROOT
ATOM      1  F   UNL     1     -19.262   2.015  19.534  0.00  0.00    +0.000 F 
ATOM      2  O   UNL     1     -14.334   3.848  20.561  0.00  0.00    +0.000 OA
ATOM      3  O   UNL     1     -17.050   2.223  24.001  0.00  0.00    +0.000 OA
ATOM      4  N   UNL     1     -16.072   3.602  19.039  0.00  0.00    +0.000 N 
ATOM      5  N   UNL     1     -16.327   3.056  21.361  0.00  0.00    +0.000 NA
ATOM      6  N   UNL     1     -18.394   2.201  22.102  0.00  0.00    +0.000 N 
ATOM      7  C   UNL     1     -17.362   3.229  18.926  0.00  0.00    +0.000 C 
ATOM      8  C   UNL     1     -15.499   3.531  20.335  0.00  0.00    +0.000 C 
ATOM      9  C   UNL     1     -18.225   2.831  19.793  0.00  0.00    +0.000 C 
ATOM     10  C   UNL     1     -17.561   2.715  21.130  0.00  0.00    +0.000 C 
ATOM     11  C   UNL     1     -18.098   1.971  23.427  0.00  0.00    +0.000 C 
ATOM     12  H   UNL     1     -19.330   1.927  21.837  0.00  0.00    +0.000 HD
ENDROOT
BRANCH   4  16
ATOM     13  O   UNL     1     -16.118   4.775  16.921  0.00  0.00    +0.000 OA
ATOM     14  C   UNL     1     -14.069   3.858  17.453  0.00  0.00    +0.000 A 
ATOM     15  C   UNL     1     -13.971   4.461  16.159  0.00  0.00    +0.000 A 
ATOM     16  C   UNL     1     -15.428   4.038  17.910  0.00  0.00    +0.000 A 
ATOM     17  C   UNL     1     -15.251   5.037  15.849  0.00  0.00    +0.000 A 
ATOM     18  C   UNL     1     -15.799   5.564  14.568  0.00  0.00    +0.000 C 
BRANCH  14  19
ATOM     19  O   UNL     1     -13.268   2.797  17.763  0.00  0.00    +0.000 OA
ATOM     20  H   UNL     1     -12.471   3.069  18.272  0.00  0.00    +0.000 HD
ENDBRANCH  14  19
BRANCH  15  21
ATOM     21  O   UNL     1     -13.113   3.965  15.213  0.00  0.00    +0.000 OA
ATOM     22  H   UNL     1     -13.052   2.993  15.283  0.00  0.00    +0.000 HD
ENDBRANCH  15  21
ENDBRANCH   4  16
BRANCH  11  23
ATOM     23  O   UNL     1     -19.195   1.413  24.023  0.00  0.00    +0.000 OA
BRANCH  23  24
ATOM     24  C   UNL     1     -19.450   0.148  23.698  0.00  0.00    +0.000 C 
ATOM     25  C   UNL     1     -19.741  -1.309  23.324  0.00  0.00    +0.000 C 
BRANCH  25  26
ATOM     26  C   UNL     1     -20.031  -2.765  22.948  0.00  0.00    +0.000 C 
ATOM     27  C   UNL     1     -20.327  -4.221  22.576  0.00  0.00    +0.000 C 
ATOM     28  C   UNL     1     -20.636  -5.675  22.203  0.00  0.00    +0.000 C 
ENDBRANCH  25  26
ENDBRANCH  23  24
ENDBRANCH  11  23
TORSDOF 6
ENDMDL
MODEL 9
REMARK VINA RESULT:      -4.9     28.287     29.896
REMARK  Name = 60953_Capecitabine.pdbqt.pdb
REMARK  6 active torsions:
REMARK  status: ('A' for Active; 'I' for Inactive)
REMARK    1  A    between atoms: N_4  and  C_16
REMARK    2  A    between atoms: C_11  and  O_23
REMARK    3  A    between atoms: C_14  and  O_19
REMARK    4  A    between atoms: C_15  and  O_21
REMARK    5  A    between atoms: O_23  and  C_24
REMARK    6  A    between atoms: C_25  and  C_26
REMARK                            x       y       z     vdW  Elec       q    Type
REMARK                         _______ _______ _______ _____ _____    ______ ____
ROOT
ATOM      1  F   UNL     1     -10.744  -5.122  28.514  0.00  0.00    +0.000 F 
ATOM      2  O   UNL     1     -10.298  -9.850  26.034  0.00  0.00    +0.000 OA
ATOM      3  O   UNL     1      -7.177  -6.450  25.288  0.00  0.00    +0.000 OA
ATOM      4  N   UNL     1     -11.574  -8.424  27.351  0.00  0.00    +0.000 N 
ATOM      5  N   UNL     1      -9.545  -7.703  26.293  0.00  0.00    +0.000 NA
ATOM      6  N   UNL     1      -8.808  -5.493  26.645  0.00  0.00    +0.000 N 
ATOM      7  C   UNL     1     -11.645  -7.161  27.819  0.00  0.00    +0.000 C 
ATOM      8  C   UNL     1     -10.466  -8.734  26.522  0.00  0.00    +0.000 C 
ATOM      9  C   UNL     1     -10.897  -6.130  27.638  0.00  0.00    +0.000 C 
ATOM     10  C   UNL     1      -9.714  -6.521  26.808  0.00  0.00    +0.000 C 
ATOM     11  C   UNL     1      -7.625  -5.519  25.941  0.00  0.00    +0.000 C 
ATOM     12  H   UNL     1      -8.992  -4.612  27.104  0.00  0.00    +0.000 HD
ENDROOT
BRANCH   4  16
ATOM     13  O   UNL     1     -13.845  -9.215  27.068  0.00  0.00    +0.000 OA
ATOM     14  C   UNL     1     -12.638 -10.350  28.673  0.00  0.00    +0.000 A 
ATOM     15  C   UNL     1     -13.969 -10.875  28.656  0.00  0.00    +0.000 A 
ATOM     16  C   UNL     1     -12.579  -9.291  27.692  0.00  0.00    +0.000 A 
ATOM     17  C   UNL     1     -14.702 -10.166  27.643  0.00  0.00    +0.000 A 
ATOM     18  C   UNL     1     -16.162 -10.113  27.352  0.00  0.00    +0.000 C 
BRANCH  14  19
ATOM     19  O   UNL     1     -11.913 -10.393  29.830  0.00  0.00    +0.000 OA
ATOM     20  H   UNL     1     -11.017 -10.003  29.721  0.00  0.00    +0.000 HD
ENDBRANCH  14  19
BRANCH  15  21
ATOM     21  O   UNL     1     -14.542 -11.384  29.791  0.00  0.00    +0.000 OA
ATOM     22  H   UNL     1     -14.491 -10.736  30.519  0.00  0.00    +0.000 HD
ENDBRANCH  15  21
ENDBRANCH   4  16
BRANCH  11  23
ATOM     23  O   UNL     1      -7.016  -4.302  26.075  0.00  0.00    +0.000 OA
BRANCH  23  24
ATOM     24  C   UNL     1      -7.830  -3.250  26.122  0.00  0.00    +0.000 C 
ATOM     25  C   UNL     1      -8.769  -2.040  26.177  0.00  0.00    +0.000 C 
BRANCH  25  26
ATOM     26  C   UNL     1      -9.709  -0.832  26.232  0.00  0.00    +0.000 C 
ATOM     27  C   UNL     1     -10.643   0.379  26.290  0.00  0.00    +0.000 C 
ATOM     28  C   UNL     1     -11.568   1.600  26.349  0.00  0.00    +0.000 C 
ENDBRANCH  25  26
ENDBRANCH  23  24
ENDBRANCH  11  23
TORSDOF 6
ENDMDL
