MODEL 1
REMARK VINA RESULT:      -5.5      0.000      0.000
REMARK  Name = 6223_Gliotoxin.pdbqt.pdb
REMARK  3 active torsions:
REMARK  status: ('A' for Active; 'I' for Inactive)
REMARK    1  A    between atoms: C_10  and  C_21
REMARK    2  A    between atoms: C_14  and  O_19
REMARK    3  A    between atoms: C_21  and  O_22
REMARK                            x       y       z     vdW  Elec       q    Type
REMARK                         _______ _______ _______ _____ _____    ______ ____
ROOT
ATOM      1  S   UNL     1     -10.903  -7.478  29.835  0.00  0.00    +0.000 S 
ATOM      2  S   UNL     1     -11.459  -9.389  29.289  0.00  0.00    +0.000 S 
ATOM      3  O   UNL     1      -9.955  -9.134  26.001  0.00  0.00    +0.000 OA
ATOM      4  O   UNL     1     -13.530  -5.875  28.059  0.00  0.00    +0.000 OA
ATOM      5  N   UNL     1     -10.428  -7.202  27.154  0.00  0.00    +0.000 N 
ATOM      6  N   UNL     1     -12.991  -8.069  27.405  0.00  0.00    +0.000 N 
ATOM      7  C   UNL     1     -11.219  -6.596  28.269  0.00  0.00    +0.000 C 
ATOM      8  C   UNL     1      -9.476  -6.309  26.660  0.00  0.00    +0.000 A 
ATOM      9  C   UNL     1     -10.700  -5.231  28.279  0.00  0.00    +0.000 C 
ATOM     10  C   UNL     1     -11.926  -9.121  27.501  0.00  0.00    +0.000 C 
ATOM     11  C   UNL     1      -9.708  -4.977  27.322  0.00  0.00    +0.000 A 
ATOM     12  C   UNL     1     -10.676  -8.518  26.784  0.00  0.00    +0.000 C 
ATOM     13  C   UNL     1     -12.692  -6.763  27.890  0.00  0.00    +0.000 C 
ATOM     14  C   UNL     1      -8.189  -6.587  25.982  0.00  0.00    +0.000 A 
ATOM     15  C   UNL     1      -8.626  -4.263  27.443  0.00  0.00    +0.000 A 
ATOM     16  C   UNL     1      -7.227  -5.547  26.229  0.00  0.00    +0.000 A 
ATOM     17  C   UNL     1     -14.324  -8.496  26.981  0.00  0.00    +0.000 C 
ATOM     18  C   UNL     1      -7.235  -4.510  26.838  0.00  0.00    +0.000 A 
ENDROOT
BRANCH  14  19
ATOM     19  O   UNL     1      -7.782  -7.847  25.648  0.00  0.00    +0.000 OA
ATOM     20  H   UNL     1      -8.520  -8.489  25.601  0.00  0.00    +0.000 HD
ENDBRANCH  14  19
BRANCH  10  21
ATOM     21  C   UNL     1     -12.290 -10.435  26.905  0.00  0.00    +0.000 C 
BRANCH  21  22
ATOM     22  O   UNL     1     -12.627 -11.618  26.386  0.00  0.00    +0.000 OA
ATOM     23  H   UNL     1     -13.596 -11.714  26.324  0.00  0.00    +0.000 HD
ENDBRANCH  21  22
ENDBRANCH  10  21
TORSDOF 3
ENDMDL
MODEL 2
REMARK VINA RESULT:      -4.8      1.602      1.945
REMARK  Name = 6223_Gliotoxin.pdbqt.pdb
REMARK  3 active torsions:
REMARK  status: ('A' for Active; 'I' for Inactive)
REMARK    1  A    between atoms: C_10  and  C_21
REMARK    2  A    between atoms: C_14  and  O_19
REMARK    3  A    between atoms: C_21  and  O_22
REMARK                            x       y       z     vdW  Elec       q    Type
REMARK                         _______ _______ _______ _____ _____    ______ ____
ROOT
ATOM      1  S   UNL     1     -11.160  -7.234  30.234  0.00  0.00    +0.000 S 
ATOM      2  S   UNL     1     -12.803  -8.386  29.750  0.00  0.00    +0.000 S 
ATOM      3  O   UNL     1     -12.004  -8.447  26.214  0.00  0.00    +0.000 OA
ATOM      4  O   UNL     1     -12.623  -4.165  29.200  0.00  0.00    +0.000 OA
ATOM      5  N   UNL     1     -11.069  -6.811  27.531  0.00  0.00    +0.000 N 
ATOM      6  N   UNL     1     -13.573  -6.137  28.341  0.00  0.00    +0.000 N 
ATOM      7  C   UNL     1     -11.163  -6.071  28.828  0.00  0.00    +0.000 C 
ATOM      8  C   UNL     1      -9.874  -6.528  26.868  0.00  0.00    +0.000 A 
ATOM      9  C   UNL     1      -9.955  -5.250  28.776  0.00  0.00    +0.000 C 
ATOM     10  C   UNL     1     -13.318  -7.601  28.136  0.00  0.00    +0.000 C 
ATOM     11  C   UNL     1      -9.177  -5.430  27.625  0.00  0.00    +0.000 A 
ATOM     12  C   UNL     1     -12.091  -7.681  27.172  0.00  0.00    +0.000 C 
ATOM     13  C   UNL     1     -12.497  -5.323  28.799  0.00  0.00    +0.000 C 
ATOM     14  C   UNL     1      -9.122  -7.353  25.893  0.00  0.00    +0.000 A 
ATOM     15  C   UNL     1      -7.880  -5.471  27.518  0.00  0.00    +0.000 A 
ATOM     16  C   UNL     1      -7.711  -7.083  25.954  0.00  0.00    +0.000 A 
ATOM     17  C   UNL     1     -14.955  -5.670  28.225  0.00  0.00    +0.000 C 
ATOM     18  C   UNL     1      -7.014  -6.340  26.592  0.00  0.00    +0.000 A 
ENDROOT
BRANCH  14  19
ATOM     19  O   UNL     1      -9.584  -8.545  25.417  0.00  0.00    +0.000 OA
ATOM     20  H   UNL     1      -9.563  -8.604  24.440  0.00  0.00    +0.000 HD
ENDBRANCH  14  19
BRANCH  10  21
ATOM     21  C   UNL     1     -14.469  -8.364  27.585  0.00  0.00    +0.000 C 
BRANCH  21  22
ATOM     22  O   UNL     1     -15.491  -9.058  27.077  0.00  0.00    +0.000 OA
ATOM     23  H   UNL     1     -15.392 -10.013  27.251  0.00  0.00    +0.000 HD
ENDBRANCH  21  22
ENDBRANCH  10  21
TORSDOF 3
ENDMDL
MODEL 3
REMARK VINA RESULT:      -4.6      1.815      2.787
REMARK  Name = 6223_Gliotoxin.pdbqt.pdb
REMARK  3 active torsions:
REMARK  status: ('A' for Active; 'I' for Inactive)
REMARK    1  A    between atoms: C_10  and  C_21
REMARK    2  A    between atoms: C_14  and  O_19
REMARK    3  A    between atoms: C_21  and  O_22
REMARK                            x       y       z     vdW  Elec       q    Type
REMARK                         _______ _______ _______ _____ _____    ______ ____
ROOT
ATOM      1  S   UNL     1     -13.084  -8.458  30.126  0.00  0.00    +0.000 S 
ATOM      2  S   UNL     1     -13.968 -10.315  29.951  0.00  0.00    +0.000 S 
ATOM      3  O   UNL     1     -12.513 -10.955  26.693  0.00  0.00    +0.000 OA
ATOM      4  O   UNL     1     -15.439  -6.801  28.044  0.00  0.00    +0.000 OA
ATOM      5  N   UNL     1     -12.627  -8.786  27.447  0.00  0.00    +0.000 N 
ATOM      6  N   UNL     1     -15.294  -9.139  27.831  0.00  0.00    +0.000 N 
ATOM      7  C   UNL     1     -13.280  -7.852  28.416  0.00  0.00    +0.000 C 
ATOM      8  C   UNL     1     -11.549  -8.179  26.802  0.00  0.00    +0.000 A 
ATOM      9  C   UNL     1     -12.537  -6.619  28.169  0.00  0.00    +0.000 C 
ATOM     10  C   UNL     1     -14.421 -10.319  28.140  0.00  0.00    +0.000 C 
ATOM     11  C   UNL     1     -11.537  -6.726  27.193  0.00  0.00    +0.000 A 
ATOM     12  C   UNL     1     -13.103 -10.087  27.334  0.00  0.00    +0.000 C 
ATOM     13  C   UNL     1     -14.768  -7.834  28.059  0.00  0.00    +0.000 C 
ATOM     14  C   UNL     1     -10.342  -8.797  26.204  0.00  0.00    +0.000 A 
ATOM     15  C   UNL     1     -10.347  -6.197  27.186  0.00  0.00    +0.000 A 
ATOM     16  C   UNL     1      -9.213  -7.909  26.258  0.00  0.00    +0.000 A 
ATOM     17  C   UNL     1     -16.689  -9.405  27.482  0.00  0.00    +0.000 C 
ATOM     18  C   UNL     1      -9.032  -6.788  26.656  0.00  0.00    +0.000 A 
ENDROOT
BRANCH  14  19
ATOM     19  O   UNL     1     -10.163 -10.148  26.123  0.00  0.00    +0.000 OA
ATOM     20  H   UNL     1      -9.697 -10.426  25.309  0.00  0.00    +0.000 HD
ENDBRANCH  14  19
BRANCH  10  21
ATOM     21  C   UNL     1     -15.015 -11.640  27.803  0.00  0.00    +0.000 C 
BRANCH  21  22
ATOM     22  O   UNL     1     -15.566 -12.819  27.501  0.00  0.00    +0.000 OA
ATOM     23  H   UNL     1     -15.118 -13.234  26.741  0.00  0.00    +0.000 HD
ENDBRANCH  21  22
ENDBRANCH  10  21
TORSDOF 3
ENDMDL
MODEL 4
REMARK VINA RESULT:      -4.6     21.912     24.185
REMARK  Name = 6223_Gliotoxin.pdbqt.pdb
REMARK  3 active torsions:
REMARK  status: ('A' for Active; 'I' for Inactive)
REMARK    1  A    between atoms: C_10  and  C_21
REMARK    2  A    between atoms: C_14  and  O_19
REMARK    3  A    between atoms: C_21  and  O_22
REMARK                            x       y       z     vdW  Elec       q    Type
REMARK                         _______ _______ _______ _____ _____    ______ ____
ROOT
ATOM      1  S   UNL     1       8.596 -10.493  11.275  0.00  0.00    +0.000 S 
ATOM      2  S   UNL     1       6.716 -11.338  11.159  0.00  0.00    +0.000 S 
ATOM      3  O   UNL     1       5.180  -8.305   9.900  0.00  0.00    +0.000 OA
ATOM      4  O   UNL     1       7.974  -8.783  14.328  0.00  0.00    +0.000 OA
ATOM      5  N   UNL     1       7.205  -8.154  10.979  0.00  0.00    +0.000 N 
ATOM      6  N   UNL     1       6.094  -9.459  13.087  0.00  0.00    +0.000 N 
ATOM      7  C   UNL     1       8.160  -8.836  11.906  0.00  0.00    +0.000 C 
ATOM      8  C   UNL     1       7.779  -7.022  10.399  0.00  0.00    +0.000 A 
ATOM      9  C   UNL     1       9.290  -7.912  11.883  0.00  0.00    +0.000 C 
ATOM     10  C   UNL     1       5.654  -9.910  11.726  0.00  0.00    +0.000 C 
ATOM     11  C   UNL     1       9.113  -6.793  11.056  0.00  0.00    +0.000 A 
ATOM     12  C   UNL     1       5.948  -8.709  10.771  0.00  0.00    +0.000 C 
ATOM     13  C   UNL     1       7.429  -8.985  13.242  0.00  0.00    +0.000 C 
ATOM     14  C   UNL     1       7.465  -6.365   9.108  0.00  0.00    +0.000 A 
ATOM     15  C   UNL     1       9.980  -6.210  10.280  0.00  0.00    +0.000 A 
ATOM     16  C   UNL     1       8.620  -5.714   8.554  0.00  0.00    +0.000 A 
ATOM     17  C   UNL     1       5.179  -9.696  14.204  0.00  0.00    +0.000 C 
ATOM     18  C   UNL     1       9.762  -5.568   8.901  0.00  0.00    +0.000 A 
ENDROOT
BRANCH  14  19
ATOM     19  O   UNL     1       6.436  -6.763   8.304  0.00  0.00    +0.000 OA
ATOM     20  H   UNL     1       5.619  -6.240   8.438  0.00  0.00    +0.000 HD
ENDBRANCH  14  19
BRANCH  10  21
ATOM     21  C   UNL     1       4.226 -10.317  11.633  0.00  0.00    +0.000 C 
BRANCH  21  22
ATOM     22  O   UNL     1       2.949 -10.692  11.535  0.00  0.00    +0.000 OA
ATOM     23  H   UNL     1       2.745 -11.420  12.153  0.00  0.00    +0.000 HD
ENDBRANCH  21  22
ENDBRANCH  10  21
TORSDOF 3
ENDMDL
MODEL 5
REMARK VINA RESULT:      -4.2      2.487      3.967
REMARK  Name = 6223_Gliotoxin.pdbqt.pdb
REMARK  3 active torsions:
REMARK  status: ('A' for Active; 'I' for Inactive)
REMARK    1  A    between atoms: C_10  and  C_21
REMARK    2  A    between atoms: C_14  and  O_19
REMARK    3  A    between atoms: C_21  and  O_22
REMARK                            x       y       z     vdW  Elec       q    Type
REMARK                         _______ _______ _______ _____ _____    ______ ____
ROOT
ATOM      1  S   UNL     1     -12.912  -6.791  30.454  0.00  0.00    +0.000 S 
ATOM      2  S   UNL     1     -14.867  -7.445  30.551  0.00  0.00    +0.000 S 
ATOM      3  O   UNL     1     -14.822  -8.796  27.187  0.00  0.00    +0.000 OA
ATOM      4  O   UNL     1     -13.660  -3.863  28.584  0.00  0.00    +0.000 OA
ATOM      5  N   UNL     1     -13.240  -7.235  27.773  0.00  0.00    +0.000 N 
ATOM      6  N   UNL     1     -15.259  -5.587  28.542  0.00  0.00    +0.000 N 
ATOM      7  C   UNL     1     -12.874  -6.157  28.743  0.00  0.00    +0.000 C 
ATOM      8  C   UNL     1     -12.167  -7.557  26.941  0.00  0.00    +0.000 A 
ATOM      9  C   UNL     1     -11.524  -5.819  28.299  0.00  0.00    +0.000 C 
ATOM     10  C   UNL     1     -15.455  -7.048  28.823  0.00  0.00    +0.000 C 
ATOM     11  C   UNL     1     -11.064  -6.569  27.208  0.00  0.00    +0.000 A 
ATOM     12  C   UNL     1     -14.510  -7.796  27.831  0.00  0.00    +0.000 C 
ATOM     13  C   UNL     1     -13.935  -5.064  28.591  0.00  0.00    +0.000 C 
ATOM     14  C   UNL     1     -11.872  -8.827  26.237  0.00  0.00    +0.000 A 
ATOM     15  C   UNL     1      -9.873  -7.052  26.998  0.00  0.00    +0.000 A 
ATOM     16  C   UNL     1     -10.458  -9.018  26.065  0.00  0.00    +0.000 A 
ATOM     17  C   UNL     1     -16.457  -4.759  28.408  0.00  0.00    +0.000 C 
ATOM     18  C   UNL     1      -9.474  -8.384  26.343  0.00  0.00    +0.000 A 
ENDROOT
BRANCH  14  19
ATOM     19  O   UNL     1     -12.724  -9.894  26.241  0.00  0.00    +0.000 OA
ATOM     20  H   UNL     1     -13.414  -9.838  25.549  0.00  0.00    +0.000 HD
ENDBRANCH  14  19
BRANCH  10  21
ATOM     21  C   UNL     1     -16.855  -7.529  28.678  0.00  0.00    +0.000 C 
BRANCH  21  22
ATOM     22  O   UNL     1     -18.108  -7.975  28.559  0.00  0.00    +0.000 OA
ATOM     23  H   UNL     1     -18.290  -8.693  29.195  0.00  0.00    +0.000 HD
ENDBRANCH  21  22
ENDBRANCH  10  21
TORSDOF 3
ENDMDL
MODEL 6
REMARK VINA RESULT:      -3.9     29.002     31.000
REMARK  Name = 6223_Gliotoxin.pdbqt.pdb
REMARK  3 active torsions:
REMARK  status: ('A' for Active; 'I' for Inactive)
REMARK    1  A    between atoms: C_10  and  C_21
REMARK    2  A    between atoms: C_14  and  O_19
REMARK    3  A    between atoms: C_21  and  O_22
REMARK                            x       y       z     vdW  Elec       q    Type
REMARK                         _______ _______ _______ _____ _____    ______ ____
ROOT
ATOM      1  S   UNL     1       8.381 -18.968   7.906  0.00  0.00    +0.000 S 
ATOM      2  S   UNL     1       9.685 -17.785   6.828  0.00  0.00    +0.000 S 
ATOM      3  O   UNL     1       7.341 -17.283   4.108  0.00  0.00    +0.000 OA
ATOM      4  O   UNL     1       8.985 -21.905   5.998  0.00  0.00    +0.000 OA
ATOM      5  N   UNL     1       7.017 -19.056   5.534  0.00  0.00    +0.000 N 
ATOM      6  N   UNL     1       9.559 -19.855   5.001  0.00  0.00    +0.000 N 
ATOM      7  C   UNL     1       7.652 -19.951   6.552  0.00  0.00    +0.000 C 
ATOM      8  C   UNL     1       5.635 -19.243   5.484  0.00  0.00    +0.000 A 
ATOM      9  C   UNL     1       6.506 -20.745   6.989  0.00  0.00    +0.000 C 
ATOM     10  C   UNL     1       9.337 -18.374   5.091  0.00  0.00    +0.000 C 
ATOM     11  C   UNL     1       5.296 -20.417   6.363  0.00  0.00    +0.000 A 
ATOM     12  C   UNL     1       7.812 -18.162   4.829  0.00  0.00    +0.000 C 
ATOM     13  C   UNL     1       8.766 -20.705   5.824  0.00  0.00    +0.000 C 
ATOM     14  C   UNL     1       4.574 -18.296   5.067  0.00  0.00    +0.000 A 
ATOM     15  C   UNL     1       4.104 -20.348   6.882  0.00  0.00    +0.000 A 
ATOM     16  C   UNL     1       3.338 -18.554   5.754  0.00  0.00    +0.000 A 
ATOM     17  C   UNL     1      10.693 -20.320   4.203  0.00  0.00    +0.000 C 
ATOM     18  C   UNL     1       2.968 -19.362   6.565  0.00  0.00    +0.000 A 
ENDROOT
BRANCH  14  19
ATOM     19  O   UNL     1       4.841 -17.060   4.554  0.00  0.00    +0.000 OA
ATOM     20  H   UNL     1       5.146 -16.421   5.230  0.00  0.00    +0.000 HD
ENDBRANCH  14  19
BRANCH  10  21
ATOM     21  C   UNL     1      10.149 -17.562   4.145  0.00  0.00    +0.000 C 
BRANCH  21  22
ATOM     22  O   UNL     1      10.892 -16.831   3.309  0.00  0.00    +0.000 OA
ATOM     23  H   UNL     1      11.152 -17.347   2.523  0.00  0.00    +0.000 HD
ENDBRANCH  21  22
ENDBRANCH  10  21
TORSDOF 3
ENDMDL
MODEL 7
REMARK VINA RESULT:      -3.6     24.862     26.498
REMARK  Name = 6223_Gliotoxin.pdbqt.pdb
REMARK  3 active torsions:
REMARK  status: ('A' for Active; 'I' for Inactive)
REMARK    1  A    between atoms: C_10  and  C_21
REMARK    2  A    between atoms: C_14  and  O_19
REMARK    3  A    between atoms: C_21  and  O_22
REMARK                            x       y       z     vdW  Elec       q    Type
REMARK                         _______ _______ _______ _____ _____    ______ ____
ROOT
ATOM      1  S   UNL     1       7.629   4.454  11.751  0.00  0.00    +0.000 S 
ATOM      2  S   UNL     1       7.667   3.764   9.806  0.00  0.00    +0.000 S 
ATOM      3  O   UNL     1       5.176   6.141   8.673  0.00  0.00    +0.000 OA
ATOM      4  O   UNL     1       4.653   2.722  12.633  0.00  0.00    +0.000 OA
ATOM      5  N   UNL     1       5.333   5.692  10.922  0.00  0.00    +0.000 N 
ATOM      6  N   UNL     1       5.049   3.053  10.338  0.00  0.00    +0.000 N 
ATOM      7  C   UNL     1       5.837   4.733  11.954  0.00  0.00    +0.000 C 
ATOM      8  C   UNL     1       4.881   6.876  11.505  0.00  0.00    +0.000 A 
ATOM      9  C   UNL     1       5.516   5.446  13.188  0.00  0.00    +0.000 C 
ATOM     10  C   UNL     1       5.855   3.862   9.365  0.00  0.00    +0.000 C 
ATOM     11  C   UNL     1       4.903   6.693  12.999  0.00  0.00    +0.000 A 
ATOM     12  C   UNL     1       5.407   5.343   9.579  0.00  0.00    +0.000 C 
ATOM     13  C   UNL     1       5.095   3.417  11.715  0.00  0.00    +0.000 C 
ATOM     14  C   UNL     1       4.799   8.237  10.925  0.00  0.00    +0.000 A 
ATOM     15  C   UNL     1       5.095   7.801  13.654  0.00  0.00    +0.000 A 
ATOM     16  C   UNL     1       4.945   9.250  11.935  0.00  0.00    +0.000 A 
ATOM     17  C   UNL     1       4.407   1.838   9.837  0.00  0.00    +0.000 C 
ATOM     18  C   UNL     1       5.099   9.245  13.128  0.00  0.00    +0.000 A 
ENDROOT
BRANCH  14  19
ATOM     19  O   UNL     1       5.093   8.507   9.620  0.00  0.00    +0.000 OA
ATOM     20  H   UNL     1       5.252   9.458   9.450  0.00  0.00    +0.000 HD
ENDBRANCH  14  19
BRANCH  10  21
ATOM     21  C   UNL     1       5.693   3.466   7.940  0.00  0.00    +0.000 C 
BRANCH  21  22
ATOM     22  O   UNL     1       5.530   3.106   6.664  0.00  0.00    +0.000 OA
ATOM     23  H   UNL     1       5.815   3.815   6.058  0.00  0.00    +0.000 HD
ENDBRANCH  21  22
ENDBRANCH  10  21
TORSDOF 3
ENDMDL
MODEL 8
REMARK VINA RESULT:      -3.3     35.085     36.628
REMARK  Name = 6223_Gliotoxin.pdbqt.pdb
REMARK  3 active torsions:
REMARK  status: ('A' for Active; 'I' for Inactive)
REMARK    1  A    between atoms: C_10  and  C_21
REMARK    2  A    between atoms: C_14  and  O_19
REMARK    3  A    between atoms: C_21  and  O_22
REMARK                            x       y       z     vdW  Elec       q    Type
REMARK                         _______ _______ _______ _____ _____    ______ ____
ROOT
ATOM      1  S   UNL     1      -0.826   6.868  -5.338  0.00  0.00    +0.000 S 
ATOM      2  S   UNL     1      -0.870   6.458  -7.361  0.00  0.00    +0.000 S 
ATOM      3  O   UNL     1      -4.476   6.764  -7.577  0.00  0.00    +0.000 OA
ATOM      4  O   UNL     1      -1.802   3.599  -4.341  0.00  0.00    +0.000 OA
ATOM      5  N   UNL     1      -3.518   6.405  -5.518  0.00  0.00    +0.000 N 
ATOM      6  N   UNL     1      -2.281   4.220  -6.558  0.00  0.00    +0.000 N 
ATOM      7  C   UNL     1      -2.297   5.935  -4.793  0.00  0.00    +0.000 C 
ATOM      8  C   UNL     1      -4.430   7.001  -4.646  0.00  0.00    +0.000 A 
ATOM      9  C   UNL     1      -2.660   6.219  -3.407  0.00  0.00    +0.000 C 
ATOM     10  C   UNL     1      -2.408   5.404  -7.471  0.00  0.00    +0.000 C 
ATOM     11  C   UNL     1      -3.926   6.799  -3.243  0.00  0.00    +0.000 A 
ATOM     12  C   UNL     1      -3.589   6.251  -6.897  0.00  0.00    +0.000 C 
ATOM     13  C   UNL     1      -2.120   4.460  -5.163  0.00  0.00    +0.000 C 
ATOM     14  C   UNL     1      -5.463   8.027  -4.924  0.00  0.00    +0.000 A 
ATOM     15  C   UNL     1      -4.287   7.743  -2.422  0.00  0.00    +0.000 A 
ATOM     16  C   UNL     1      -5.711   8.850  -3.772  0.00  0.00    +0.000 A 
ATOM     17  C   UNL     1      -2.156   2.901  -7.178  0.00  0.00    +0.000 C 
ATOM     18  C   UNL     1      -5.291   8.884  -2.645  0.00  0.00    +0.000 A 
ENDROOT
BRANCH  14  19
ATOM     19  O   UNL     1      -5.733   8.488  -6.181  0.00  0.00    +0.000 OA
ATOM     20  H   UNL     1      -6.575   8.144  -6.543  0.00  0.00    +0.000 HD
ENDBRANCH  14  19
BRANCH  10  21
ATOM     21  C   UNL     1      -2.650   5.068  -8.900  0.00  0.00    +0.000 C 
BRANCH  21  22
ATOM     22  O   UNL     1      -2.856   4.781 -10.188  0.00  0.00    +0.000 OA
ATOM     23  H   UNL     1      -3.554   4.107 -10.292  0.00  0.00    +0.000 HD
ENDBRANCH  21  22
ENDBRANCH  10  21
TORSDOF 3
ENDMDL
MODEL 9
REMARK VINA RESULT:      -3.2      3.714      6.402
REMARK  Name = 6223_Gliotoxin.pdbqt.pdb
REMARK  3 active torsions:
REMARK  status: ('A' for Active; 'I' for Inactive)
REMARK    1  A    between atoms: C_10  and  C_21
REMARK    2  A    between atoms: C_14  and  O_19
REMARK    3  A    between atoms: C_21  and  O_22
REMARK                            x       y       z     vdW  Elec       q    Type
REMARK                         _______ _______ _______ _____ _____    ______ ____
ROOT
ATOM      1  S   UNL     1     -14.010 -11.495  27.779  0.00  0.00    +0.000 S 
ATOM      2  S   UNL     1     -12.960 -10.617  26.233  0.00  0.00    +0.000 S 
ATOM      3  O   UNL     1      -9.738 -11.665  27.522  0.00  0.00    +0.000 OA
ATOM      4  O   UNL     1     -13.375  -8.881  30.102  0.00  0.00    +0.000 OA
ATOM      5  N   UNL     1     -11.539 -11.620  28.950  0.00  0.00    +0.000 N 
ATOM      6  N   UNL     1     -11.936  -9.026  28.247  0.00  0.00    +0.000 N 
ATOM      7  C   UNL     1     -12.915 -11.081  29.179  0.00  0.00    +0.000 C 
ATOM      8  C   UNL     1     -11.214 -12.604  29.885  0.00  0.00    +0.000 A 
ATOM      9  C   UNL     1     -13.292 -11.774  30.409  0.00  0.00    +0.000 C 
ATOM     10  C   UNL     1     -11.481  -9.944  27.152  0.00  0.00    +0.000 C 
ATOM     11  C   UNL     1     -12.316 -12.647  30.909  0.00  0.00    +0.000 A 
ATOM     12  C   UNL     1     -10.798 -11.150  27.873  0.00  0.00    +0.000 C 
ATOM     13  C   UNL     1     -12.771  -9.561  29.270  0.00  0.00    +0.000 C 
ATOM     14  C   UNL     1     -10.263 -13.734  29.768  0.00  0.00    +0.000 A 
ATOM     15  C   UNL     1     -12.475 -13.820  31.450  0.00  0.00    +0.000 A 
ATOM     16  C   UNL     1     -10.671 -14.851  30.577  0.00  0.00    +0.000 A 
ATOM     17  C   UNL     1     -11.638  -7.601  28.101  0.00  0.00    +0.000 C 
ATOM     18  C   UNL     1     -11.584 -15.067  31.329  0.00  0.00    +0.000 A 
ENDROOT
BRANCH  14  19
ATOM     19  O   UNL     1      -9.458 -13.918  28.682  0.00  0.00    +0.000 OA
ATOM     20  H   UNL     1      -9.560 -13.219  28.004  0.00  0.00    +0.000 HD
ENDBRANCH  14  19
BRANCH  10  21
ATOM     21  C   UNL     1     -10.552  -9.327  26.166  0.00  0.00    +0.000 C 
BRANCH  21  22
ATOM     22  O   UNL     1      -9.716  -8.759  25.293  0.00  0.00    +0.000 OA
ATOM     23  H   UNL     1      -9.591  -7.811  25.489  0.00  0.00    +0.000 HD
ENDBRANCH  21  22
ENDBRANCH  10  21
TORSDOF 3
ENDMDL
