MODEL 1
REMARK VINA RESULT:      -5.7      0.000      0.000
REMARK  Name = 6256_Trifluridine.pdbqt.pdb
REMARK  5 active torsions:
REMARK  status: ('A' for Active; 'I' for Inactive)
REMARK    1  A    between atoms: N_3  and  C1*_11
REMARK    2  A    between atoms: C_7  and  C_23
REMARK    3  A    between atoms: C3*_12  and  O3*_15
REMARK    4  A    between atoms: C4*_14  and  C5*_17
REMARK    5  A    between atoms: C5*_17  and  O5*_18
REMARK                            x       y       z     vdW  Elec       q    Type
REMARK                         _______ _______ _______ _____ _____    ______ ____
ROOT
ATOM      1  O   UNL     1       5.712  -8.359  14.089  0.00  0.00    +0.000 OA
ATOM      2  O   UNL     1       6.109  -4.905  11.093  0.00  0.00    +0.000 OA
ATOM      3  N   UNL     1       5.489  -8.853  11.783  0.00  0.00    +0.000 N 
ATOM      4  N   UNL     1       5.908  -6.674  12.541  0.00  0.00    +0.000 N 
ATOM      5  C   UNL     1       5.515  -8.256  10.575  0.00  0.00    +0.000 A 
ATOM      6  C   UNL     1       5.699  -8.025  12.909  0.00  0.00    +0.000 A 
ATOM      7  C   UNL     1       5.692  -7.050  10.145  0.00  0.00    +0.000 A 
ATOM      8  C   UNL     1       5.923  -6.101  11.264  0.00  0.00    +0.000 A 
ATOM      9  H   UNL     1       6.061  -6.040  13.312  0.00  0.00    +0.000 HD
ENDROOT
BRANCH   3  11
ATOM     10  O4* UNL     1       6.203 -11.136  11.429  0.00  0.00    +0.000 OA
ATOM     11  C1* UNL     1       5.258 -10.197  11.855  0.00  0.00    +0.000 A 
ATOM     12  C3* UNL     1       4.315 -12.246  12.181  0.00  0.00    +0.000 A 
ATOM     13  C2* UNL     1       4.101 -10.862  12.306  0.00  0.00    +0.000 A 
ATOM     14  C4* UNL     1       5.635 -12.402  11.623  0.00  0.00    +0.000 A 
BRANCH  12  15
ATOM     15  O3* UNL     1       3.329 -13.154  11.920  0.00  0.00    +0.000 OA
ATOM     16  H3* UNL     1       2.454 -12.795  12.148  0.00  0.00    +0.000 HD
ENDBRANCH  12  15
BRANCH  14  17
ATOM     17  C5* UNL     1       6.220 -13.579  11.118  0.00  0.00    +0.000 C 
BRANCH  17  18
ATOM     18  O5* UNL     1       6.772 -14.690  10.637  0.00  0.00    +0.000 OA
ATOM     19  H5* UNL     1       6.145 -15.431  10.699  0.00  0.00    +0.000 HD
ENDBRANCH  17  18
ENDBRANCH  14  17
ENDBRANCH   3  11
BRANCH   7  23
ATOM     20  F   UNL     1       4.795  -5.499   8.623  0.00  0.00    +0.000 F 
ATOM     21  F   UNL     1       6.888  -6.033   8.406  0.00  0.00    +0.000 F 
ATOM     22  F   UNL     1       5.356  -7.470   7.857  0.00  0.00    +0.000 F 
ATOM     23  C   UNL     1       5.672  -6.523   8.774  0.00  0.00    +0.000 C 
ENDBRANCH   7  23
TORSDOF 5
ENDMDL
MODEL 2
REMARK VINA RESULT:      -5.3     21.369     22.615
REMARK  Name = 6256_Trifluridine.pdbqt.pdb
REMARK  5 active torsions:
REMARK  status: ('A' for Active; 'I' for Inactive)
REMARK    1  A    between atoms: N_3  and  C1*_11
REMARK    2  A    between atoms: C_7  and  C_23
REMARK    3  A    between atoms: C3*_12  and  O3*_15
REMARK    4  A    between atoms: C4*_14  and  C5*_17
REMARK    5  A    between atoms: C5*_17  and  O5*_18
REMARK                            x       y       z     vdW  Elec       q    Type
REMARK                         _______ _______ _______ _____ _____    ______ ____
ROOT
ATOM      1  O   UNL     1     -12.540  -6.215  28.148  0.00  0.00    +0.000 OA
ATOM      2  O   UNL     1      -8.727  -3.871  27.130  0.00  0.00    +0.000 OA
ATOM      3  N   UNL     1     -10.804  -7.353  27.006  0.00  0.00    +0.000 N 
ATOM      4  N   UNL     1     -10.604  -5.098  27.617  0.00  0.00    +0.000 N 
ATOM      5  C   UNL     1      -9.570  -7.150  26.505  0.00  0.00    +0.000 A 
ATOM      6  C   UNL     1     -11.428  -6.250  27.633  0.00  0.00    +0.000 A 
ATOM      7  C   UNL     1      -8.752  -6.151  26.440  0.00  0.00    +0.000 A 
ATOM      8  C   UNL     1      -9.323  -4.938  27.078  0.00  0.00    +0.000 A 
ATOM      9  H   UNL     1     -11.006  -4.280  28.053  0.00  0.00    +0.000 HD
ENDROOT
BRANCH   3  11
ATOM     10  O4* UNL     1     -12.457  -8.816  26.017  0.00  0.00    +0.000 OA
ATOM     11  C1* UNL     1     -11.379  -8.584  26.879  0.00  0.00    +0.000 A 
ATOM     12  C3* UNL     1     -11.925 -10.784  27.115  0.00  0.00    +0.000 A 
ATOM     13  C2* UNL     1     -11.054  -9.775  27.559  0.00  0.00    +0.000 A 
ATOM     14  C4* UNL     1     -12.804 -10.166  26.154  0.00  0.00    +0.000 A 
BRANCH  12  15
ATOM     15  O3* UNL     1     -12.352 -11.826  27.890  0.00  0.00    +0.000 OA
ATOM     16  H3* UNL     1     -12.311 -12.665  27.400  0.00  0.00    +0.000 HD
ENDBRANCH  12  15
BRANCH  14  17
ATOM     17  C5* UNL     1     -13.976 -10.707  25.589  0.00  0.00    +0.000 C 
BRANCH  17  18
ATOM     18  O5* UNL     1     -15.080 -11.221  25.056  0.00  0.00    +0.000 OA
ATOM     19  H5* UNL     1     -15.750 -10.526  24.936  0.00  0.00    +0.000 HD
ENDBRANCH  17  18
ENDBRANCH  14  17
ENDBRANCH   3  11
BRANCH   7  23
ATOM     20  F   UNL     1      -6.448  -5.791  26.742  0.00  0.00    +0.000 F 
ATOM     21  F   UNL     1      -7.057  -7.227  25.231  0.00  0.00    +0.000 F 
ATOM     22  F   UNL     1      -7.349  -5.107  24.869  0.00  0.00    +0.000 F 
ATOM     23  C   UNL     1      -7.418  -6.059  25.832  0.00  0.00    +0.000 C 
ENDBRANCH   7  23
TORSDOF 5
ENDMDL
MODEL 3
REMARK VINA RESULT:      -5.2     21.088     22.374
REMARK  Name = 6256_Trifluridine.pdbqt.pdb
REMARK  5 active torsions:
REMARK  status: ('A' for Active; 'I' for Inactive)
REMARK    1  A    between atoms: N_3  and  C1*_11
REMARK    2  A    between atoms: C_7  and  C_23
REMARK    3  A    between atoms: C3*_12  and  O3*_15
REMARK    4  A    between atoms: C4*_14  and  C5*_17
REMARK    5  A    between atoms: C5*_17  and  O5*_18
REMARK                            x       y       z     vdW  Elec       q    Type
REMARK                         _______ _______ _______ _____ _____    ______ ____
ROOT
ATOM      1  O   UNL     1      -8.786  -9.494  28.165  0.00  0.00    +0.000 OA
ATOM      2  O   UNL     1      -5.915  -6.043  27.211  0.00  0.00    +0.000 OA
ATOM      3  N   UNL     1      -9.679  -7.551  27.147  0.00  0.00    +0.000 N 
ATOM      4  N   UNL     1      -7.398  -7.736  27.657  0.00  0.00    +0.000 N 
ATOM      5  C   UNL     1      -9.305  -6.340  26.690  0.00  0.00    +0.000 A 
ATOM      6  C   UNL     1      -8.665  -8.369  27.695  0.00  0.00    +0.000 A 
ATOM      7  C   UNL     1      -8.193  -5.683  26.617  0.00  0.00    +0.000 A 
ATOM      8  C   UNL     1      -7.061  -6.467  27.172  0.00  0.00    +0.000 A 
ATOM      9  H   UNL     1      -6.638  -8.280  28.039  0.00  0.00    +0.000 HD
ENDROOT
BRANCH   3  11
ATOM     10  O4* UNL     1     -11.420  -8.973  26.253  0.00  0.00    +0.000 OA
ATOM     11  C1* UNL     1     -10.993  -7.916  27.064  0.00  0.00    +0.000 A 
ATOM     12  C3* UNL     1     -13.256  -8.029  27.303  0.00  0.00    +0.000 A 
ATOM     13  C2* UNL     1     -12.104  -7.328  27.700  0.00  0.00    +0.000 A 
ATOM     14  C4* UNL     1     -12.812  -9.053  26.390  0.00  0.00    +0.000 A 
BRANCH  12  15
ATOM     15  O3* UNL     1     -14.493  -7.464  27.178  0.00  0.00    +0.000 OA
ATOM     16  H3* UNL     1     -14.845  -7.197  28.046  0.00  0.00    +0.000 HD
ENDBRANCH  12  15
BRANCH  14  17
ATOM     17  C5* UNL     1     -13.608  -9.871  25.565  0.00  0.00    +0.000 C 
BRANCH  17  18
ATOM     18  O5* UNL     1     -14.359 -10.647  24.789  0.00  0.00    +0.000 OA
ATOM     19  H5* UNL     1     -15.288 -10.610  25.076  0.00  0.00    +0.000 HD
ENDBRANCH  17  18
ENDBRANCH  14  17
ENDBRANCH   3  11
BRANCH   7  23
ATOM     20  F   UNL     1      -9.056  -3.598  25.956  0.00  0.00    +0.000 F 
ATOM     21  F   UNL     1      -7.127  -3.625  26.953  0.00  0.00    +0.000 F 
ATOM     22  F   UNL     1      -7.285  -4.346  24.911  0.00  0.00    +0.000 F 
ATOM     23  C   UNL     1      -7.925  -4.333  26.106  0.00  0.00    +0.000 C 
ENDBRANCH   7  23
TORSDOF 5
ENDMDL
MODEL 4
REMARK VINA RESULT:      -4.9      1.719      2.610
REMARK  Name = 6256_Trifluridine.pdbqt.pdb
REMARK  5 active torsions:
REMARK  status: ('A' for Active; 'I' for Inactive)
REMARK    1  A    between atoms: N_3  and  C1*_11
REMARK    2  A    between atoms: C_7  and  C_23
REMARK    3  A    between atoms: C3*_12  and  O3*_15
REMARK    4  A    between atoms: C4*_14  and  C5*_17
REMARK    5  A    between atoms: C5*_17  and  O5*_18
REMARK                            x       y       z     vdW  Elec       q    Type
REMARK                         _______ _______ _______ _____ _____    ______ ____
ROOT
ATOM      1  O   UNL     1       7.834  -7.352  13.433  0.00  0.00    +0.000 OA
ATOM      2  O   UNL     1       7.287  -3.430  11.112  0.00  0.00    +0.000 OA
ATOM      3  N   UNL     1       6.369  -7.354  11.572  0.00  0.00    +0.000 N 
ATOM      4  N   UNL     1       7.524  -5.422  12.227  0.00  0.00    +0.000 N 
ATOM      5  C   UNL     1       5.885  -6.535  10.617  0.00  0.00    +0.000 A 
ATOM      6  C   UNL     1       7.281  -6.791  12.493  0.00  0.00    +0.000 A 
ATOM      7  C   UNL     1       6.041  -5.291  10.300  0.00  0.00    +0.000 A 
ATOM      8  C   UNL     1       6.990  -4.611  11.218  0.00  0.00    +0.000 A 
ATOM      9  H   UNL     1       8.170  -4.972  12.860  0.00  0.00    +0.000 HD
ENDROOT
BRANCH   3  11
ATOM     10  O4* UNL     1       4.628  -9.007  11.862  0.00  0.00    +0.000 OA
ATOM     11  C1* UNL     1       5.956  -8.655  11.603  0.00  0.00    +0.000 A 
ATOM     12  C3* UNL     1       5.879 -10.932  11.560  0.00  0.00    +0.000 A 
ATOM     13  C2* UNL     1       6.729  -9.820  11.427  0.00  0.00    +0.000 A 
ATOM     14  C4* UNL     1       4.566 -10.407  11.840  0.00  0.00    +0.000 A 
BRANCH  12  15
ATOM     15  O3* UNL     1       6.272 -12.143  12.056  0.00  0.00    +0.000 OA
ATOM     16  H3* UNL     1       5.808 -12.347  12.887  0.00  0.00    +0.000 HD
ENDBRANCH  12  15
BRANCH  14  17
ATOM     17  C5* UNL     1       3.427 -11.121  12.260  0.00  0.00    +0.000 C 
BRANCH  17  18
ATOM     18  O5* UNL     1       2.351 -11.796  12.652  0.00  0.00    +0.000 OA
ATOM     19  H5* UNL     1       1.574 -11.521  12.134  0.00  0.00    +0.000 HD
ENDBRANCH  17  18
ENDBRANCH  14  17
ENDBRANCH   3  11
BRANCH   7  23
ATOM     20  F   UNL     1       4.649  -3.494   9.701  0.00  0.00    +0.000 F 
ATOM     21  F   UNL     1       6.357  -3.918   8.428  0.00  0.00    +0.000 F 
ATOM     22  F   UNL     1       4.649  -5.259   8.407  0.00  0.00    +0.000 F 
ATOM     23  C   UNL     1       5.422  -4.504   9.227  0.00  0.00    +0.000 C 
ENDBRANCH   7  23
TORSDOF 5
ENDMDL
MODEL 5
REMARK VINA RESULT:      -4.8     15.183     17.237
REMARK  Name = 6256_Trifluridine.pdbqt.pdb
REMARK  5 active torsions:
REMARK  status: ('A' for Active; 'I' for Inactive)
REMARK    1  A    between atoms: N_3  and  C1*_11
REMARK    2  A    between atoms: C_7  and  C_23
REMARK    3  A    between atoms: C3*_12  and  O3*_15
REMARK    4  A    between atoms: C4*_14  and  C5*_17
REMARK    5  A    between atoms: C5*_17  and  O5*_18
REMARK                            x       y       z     vdW  Elec       q    Type
REMARK                         _______ _______ _______ _____ _____    ______ ____
ROOT
ATOM      1  O   UNL     1      -5.137 -17.081  22.429  0.00  0.00    +0.000 OA
ATOM      2  O   UNL     1      -2.524 -16.422  18.713  0.00  0.00    +0.000 OA
ATOM      3  N   UNL     1      -6.221 -16.658  20.366  0.00  0.00    +0.000 N 
ATOM      4  N   UNL     1      -3.884 -16.751  20.533  0.00  0.00    +0.000 N 
ATOM      5  C   UNL     1      -5.948 -16.413  19.069  0.00  0.00    +0.000 A 
ATOM      6  C   UNL     1      -5.116 -16.851  21.225  0.00  0.00    +0.000 A 
ATOM      7  C   UNL     1      -4.876 -16.300  18.355  0.00  0.00    +0.000 A 
ATOM      8  C   UNL     1      -3.654 -16.490  19.176  0.00  0.00    +0.000 A 
ATOM      9  H   UNL     1      -3.061 -16.880  21.104  0.00  0.00    +0.000 HD
ENDROOT
BRANCH   3  11
ATOM     10  O4* UNL     1      -7.957 -16.050  21.937  0.00  0.00    +0.000 OA
ATOM     11  C1* UNL     1      -7.523 -16.698  20.775  0.00  0.00    +0.000 A 
ATOM     12  C3* UNL     1      -9.750 -17.142  20.961  0.00  0.00    +0.000 A 
ATOM     13  C2* UNL     1      -8.606 -17.374  20.179  0.00  0.00    +0.000 A 
ATOM     14  C4* UNL     1      -9.326 -16.317  22.064  0.00  0.00    +0.000 A 
BRANCH  12  15
ATOM     15  O3* UNL     1     -10.776 -18.034  21.104  0.00  0.00    +0.000 OA
ATOM     16  H3* UNL     1     -11.557 -17.608  21.497  0.00  0.00    +0.000 HD
ENDBRANCH  12  15
BRANCH  14  17
ATOM     17  C5* UNL     1     -10.055 -15.994  23.225  0.00  0.00    +0.000 C 
BRANCH  17  18
ATOM     18  O5* UNL     1     -10.745 -15.692  24.321  0.00  0.00    +0.000 OA
ATOM     19  H5* UNL     1     -10.764 -16.453  24.926  0.00  0.00    +0.000 HD
ENDBRANCH  17  18
ENDBRANCH  14  17
ENDBRANCH   3  11
BRANCH   7  23
ATOM     20  F   UNL     1      -3.821 -15.012  16.696  0.00  0.00    +0.000 F 
ATOM     21  F   UNL     1      -4.270 -17.085  16.233  0.00  0.00    +0.000 F 
ATOM     22  F   UNL     1      -5.886 -15.639  16.338  0.00  0.00    +0.000 F 
ATOM     23  C   UNL     1      -4.719 -16.002  16.926  0.00  0.00    +0.000 C 
ENDBRANCH   7  23
TORSDOF 5
ENDMDL
MODEL 6
REMARK VINA RESULT:      -4.8     22.092     23.642
REMARK  Name = 6256_Trifluridine.pdbqt.pdb
REMARK  5 active torsions:
REMARK  status: ('A' for Active; 'I' for Inactive)
REMARK    1  A    between atoms: N_3  and  C1*_11
REMARK    2  A    between atoms: C_7  and  C_23
REMARK    3  A    between atoms: C3*_12  and  O3*_15
REMARK    4  A    between atoms: C4*_14  and  C5*_17
REMARK    5  A    between atoms: C5*_17  and  O5*_18
REMARK                            x       y       z     vdW  Elec       q    Type
REMARK                         _______ _______ _______ _____ _____    ______ ____
ROOT
ATOM      1  O   UNL     1      -9.888  -6.807  30.091  0.00  0.00    +0.000 OA
ATOM      2  O   UNL     1     -14.025  -8.693  29.465  0.00  0.00    +0.000 OA
ATOM      3  N   UNL     1     -10.557  -7.314  27.877  0.00  0.00    +0.000 N 
ATOM      4  N   UNL     1     -11.950  -7.745  29.713  0.00  0.00    +0.000 N 
ATOM      5  C   UNL     1     -11.590  -7.837  27.187  0.00  0.00    +0.000 A 
ATOM      6  C   UNL     1     -10.699  -7.240  29.281  0.00  0.00    +0.000 A 
ATOM      7  C   UNL     1     -12.751  -8.320  27.487  0.00  0.00    +0.000 A 
ATOM      8  C   UNL     1     -12.994  -8.283  28.952  0.00  0.00    +0.000 A 
ATOM      9  H   UNL     1     -12.100  -7.716  30.712  0.00  0.00    +0.000 HD
ENDROOT
BRANCH   3  11
ATOM     10  O4* UNL     1      -9.259  -5.563  26.829  0.00  0.00    +0.000 OA
ATOM     11  C1* UNL     1      -9.447  -6.899  27.198  0.00  0.00    +0.000 A 
ATOM     12  C3* UNL     1      -7.465  -6.819  26.077  0.00  0.00    +0.000 A 
ATOM     13  C2* UNL     1      -8.365  -7.674  26.736  0.00  0.00    +0.000 A 
ATOM     14  C4* UNL     1      -8.042  -5.500  26.137  0.00  0.00    +0.000 A 
BRANCH  12  15
ATOM     15  O3* UNL     1      -6.680  -7.196  25.024  0.00  0.00    +0.000 OA
ATOM     16  H3* UNL     1      -5.768  -6.875  25.136  0.00  0.00    +0.000 HD
ENDBRANCH  12  15
BRANCH  14  17
ATOM     17  C5* UNL     1      -7.627  -4.348  25.442  0.00  0.00    +0.000 C 
BRANCH  17  18
ATOM     18  O5* UNL     1      -7.238  -3.259  24.784  0.00  0.00    +0.000 OA
ATOM     19  H5* UNL     1      -7.076  -2.530  25.407  0.00  0.00    +0.000 HD
ENDBRANCH  17  18
ENDBRANCH  14  17
ENDBRANCH   3  11
BRANCH   7  23
ATOM     20  F   UNL     1     -14.020 -10.202  26.875  0.00  0.00    +0.000 F 
ATOM     21  F   UNL     1     -14.987  -8.259  26.789  0.00  0.00    +0.000 F 
ATOM     22  F   UNL     1     -13.491  -8.776  25.303  0.00  0.00    +0.000 F 
ATOM     23  C   UNL     1     -13.791  -8.889  26.620  0.00  0.00    +0.000 C 
ENDBRANCH   7  23
TORSDOF 5
ENDMDL
MODEL 7
REMARK VINA RESULT:      -4.7     15.878     17.830
REMARK  Name = 6256_Trifluridine.pdbqt.pdb
REMARK  5 active torsions:
REMARK  status: ('A' for Active; 'I' for Inactive)
REMARK    1  A    between atoms: N_3  and  C1*_11
REMARK    2  A    between atoms: C_7  and  C_23
REMARK    3  A    between atoms: C3*_12  and  O3*_15
REMARK    4  A    between atoms: C4*_14  and  C5*_17
REMARK    5  A    between atoms: C5*_17  and  O5*_18
REMARK                            x       y       z     vdW  Elec       q    Type
REMARK                         _______ _______ _______ _____ _____    ______ ____
ROOT
ATOM      1  O   UNL     1      -4.167 -17.142  22.139  0.00  0.00    +0.000 OA
ATOM      2  O   UNL     1      -8.128 -16.477  24.360  0.00  0.00    +0.000 OA
ATOM      3  N   UNL     1      -6.143 -16.929  20.852  0.00  0.00    +0.000 N 
ATOM      4  N   UNL     1      -6.178 -16.801  23.193  0.00  0.00    +0.000 N 
ATOM      5  C   UNL     1      -7.470 -16.736  20.991  0.00  0.00    +0.000 A 
ATOM      6  C   UNL     1      -5.377 -16.975  22.038  0.00  0.00    +0.000 A 
ATOM      7  C   UNL     1      -8.280 -16.573  21.985  0.00  0.00    +0.000 A 
ATOM      8  C   UNL     1      -7.562 -16.606  23.284  0.00  0.00    +0.000 A 
ATOM      9  H   UNL     1      -5.677 -16.828  24.069  0.00  0.00    +0.000 HD
ENDROOT
BRANCH   3  11
ATOM     10  O4* UNL     1      -4.839 -18.177  19.242  0.00  0.00    +0.000 OA
ATOM     11  C1* UNL     1      -5.620 -17.073  19.599  0.00  0.00    +0.000 A 
ATOM     12  C3* UNL     1      -5.012 -16.751  17.426  0.00  0.00    +0.000 A 
ATOM     13  C2* UNL     1      -5.724 -16.194  18.503  0.00  0.00    +0.000 A 
ATOM     14  C4* UNL     1      -4.456 -17.991  17.907  0.00  0.00    +0.000 A 
BRANCH  12  15
ATOM     15  O3* UNL     1      -4.369 -16.017  16.469  0.00  0.00    +0.000 OA
ATOM     16  H3* UNL     1      -4.331 -15.077  16.718  0.00  0.00    +0.000 HD
ENDBRANCH  12  15
BRANCH  14  17
ATOM     17  C5* UNL     1      -3.496 -18.804  17.275  0.00  0.00    +0.000 C 
BRANCH  17  18
ATOM     18  O5* UNL     1      -2.592 -19.575  16.677  0.00  0.00    +0.000 OA
ATOM     19  H5* UNL     1      -1.698 -19.343  16.981  0.00  0.00    +0.000 HD
ENDBRANCH  17  18
ENDBRANCH  14  17
ENDBRANCH   3  11
BRANCH   7  23
ATOM     20  F   UNL     1     -10.114 -15.232  22.590  0.00  0.00    +0.000 F 
ATOM     21  F   UNL     1     -10.250 -16.353  20.735  0.00  0.00    +0.000 F 
ATOM     22  F   UNL     1     -10.382 -17.404  22.630  0.00  0.00    +0.000 F 
ATOM     23  C   UNL     1      -9.738 -16.393  21.996  0.00  0.00    +0.000 C 
ENDBRANCH   7  23
TORSDOF 5
ENDMDL
MODEL 8
REMARK VINA RESULT:      -4.5     26.049     27.452
REMARK  Name = 6256_Trifluridine.pdbqt.pdb
REMARK  5 active torsions:
REMARK  status: ('A' for Active; 'I' for Inactive)
REMARK    1  A    between atoms: N_3  and  C1*_11
REMARK    2  A    between atoms: C_7  and  C_23
REMARK    3  A    between atoms: C3*_12  and  O3*_15
REMARK    4  A    between atoms: C4*_14  and  C5*_17
REMARK    5  A    between atoms: C5*_17  and  O5*_18
REMARK                            x       y       z     vdW  Elec       q    Type
REMARK                         _______ _______ _______ _____ _____    ______ ____
ROOT
ATOM      1  O   UNL     1     -22.538  -4.487  19.394  0.00  0.00    +0.000 OA
ATOM      2  O   UNL     1     -20.873  -7.776  16.660  0.00  0.00    +0.000 OA
ATOM      3  N   UNL     1     -20.261  -4.358  18.756  0.00  0.00    +0.000 N 
ATOM      4  N   UNL     1     -21.649  -6.099  18.021  0.00  0.00    +0.000 N 
ATOM      5  C   UNL     1     -19.338  -5.013  18.024  0.00  0.00    +0.000 A 
ATOM      6  C   UNL     1     -21.559  -4.915  18.793  0.00  0.00    +0.000 A 
ATOM      7  C   UNL     1     -19.323  -6.084  17.301  0.00  0.00    +0.000 A 
ATOM      8  C   UNL     1     -20.653  -6.743  17.277  0.00  0.00    +0.000 A 
ATOM      9  H   UNL     1     -22.559  -6.538  18.016  0.00  0.00    +0.000 HD
ENDROOT
BRANCH   3  11
ATOM     10  O4* UNL     1     -19.730  -3.186  20.804  0.00  0.00    +0.000 OA
ATOM     11  C1* UNL     1     -19.899  -3.218  19.416  0.00  0.00    +0.000 A 
ATOM     12  C3* UNL     1     -19.339  -1.073  19.941  0.00  0.00    +0.000 A 
ATOM     13  C2* UNL     1     -19.673  -1.934  18.882  0.00  0.00    +0.000 A 
ATOM     14  C4* UNL     1     -19.386  -1.870  21.141  0.00  0.00    +0.000 A 
BRANCH  12  15
ATOM     15  O3* UNL     1     -19.639   0.260  19.971  0.00  0.00    +0.000 OA
ATOM     16  H3* UNL     1     -20.208   0.473  20.731  0.00  0.00    +0.000 HD
ENDBRANCH  12  15
BRANCH  14  17
ATOM     17  C5* UNL     1     -19.336  -1.419  22.475  0.00  0.00    +0.000 C 
BRANCH  17  18
ATOM     18  O5* UNL     1     -19.290  -0.990  23.732  0.00  0.00    +0.000 OA
ATOM     19  H5* UNL     1     -19.176  -1.741  24.340  0.00  0.00    +0.000 HD
ENDBRANCH  17  18
ENDBRANCH  14  17
ENDBRANCH   3  11
BRANCH   7  23
ATOM     20  F   UNL     1     -18.535  -6.956  15.264  0.00  0.00    +0.000 F 
ATOM     21  F   UNL     1     -17.116  -5.913  16.534  0.00  0.00    +0.000 F 
ATOM     22  F   UNL     1     -17.822  -7.882  17.113  0.00  0.00    +0.000 F 
ATOM     23  C   UNL     1     -18.220  -6.710  16.561  0.00  0.00    +0.000 C 
ENDBRANCH   7  23
TORSDOF 5
ENDMDL
MODEL 9
REMARK VINA RESULT:      -4.4     11.380     13.518
REMARK  Name = 6256_Trifluridine.pdbqt.pdb
REMARK  5 active torsions:
REMARK  status: ('A' for Active; 'I' for Inactive)
REMARK    1  A    between atoms: N_3  and  C1*_11
REMARK    2  A    between atoms: C_7  and  C_23
REMARK    3  A    between atoms: C3*_12  and  O3*_15
REMARK    4  A    between atoms: C4*_14  and  C5*_17
REMARK    5  A    between atoms: C5*_17  and  O5*_18
REMARK                            x       y       z     vdW  Elec       q    Type
REMARK                         _______ _______ _______ _____ _____    ______ ____
ROOT
ATOM      1  O   UNL     1      -1.640 -15.846  21.905  0.00  0.00    +0.000 OA
ATOM      2  O   UNL     1      -5.056 -17.467  19.304  0.00  0.00    +0.000 OA
ATOM      3  N   UNL     1      -1.846 -15.019  19.696  0.00  0.00    +0.000 N 
ATOM      4  N   UNL     1      -3.333 -16.614  20.558  0.00  0.00    +0.000 N 
ATOM      5  C   UNL     1      -2.612 -15.149  18.594  0.00  0.00    +0.000 A 
ATOM      6  C   UNL     1      -2.198 -15.807  20.815  0.00  0.00    +0.000 A 
ATOM      7  C   UNL     1      -3.649 -15.849  18.267  0.00  0.00    +0.000 A 
ATOM      8  C   UNL     1      -4.096 -16.715  19.388  0.00  0.00    +0.000 A 
ATOM      9  H   UNL     1      -3.625 -17.199  21.328  0.00  0.00    +0.000 HD
ENDROOT
BRANCH   3  11
ATOM     10  O4* UNL     1       0.278 -14.262  20.571  0.00  0.00    +0.000 OA
ATOM     11  C1* UNL     1      -0.788 -14.156  19.672  0.00  0.00    +0.000 A 
ATOM     12  C3* UNL     1       0.636 -12.447  19.179  0.00  0.00    +0.000 A 
ATOM     13  C2* UNL     1      -0.585 -13.047  18.826  0.00  0.00    +0.000 A 
ATOM     14  C4* UNL     1       1.162 -13.215  20.279  0.00  0.00    +0.000 A 
BRANCH  12  15
ATOM     15  O3* UNL     1       0.893 -11.109  19.069  0.00  0.00    +0.000 OA
ATOM     16  H3* UNL     1       1.848 -10.944  18.981  0.00  0.00    +0.000 HD
ENDBRANCH  12  15
BRANCH  14  17
ATOM     17  C5* UNL     1       2.249 -12.888  21.113  0.00  0.00    +0.000 C 
BRANCH  17  18
ATOM     18  O5* UNL     1       3.273 -12.581  21.904  0.00  0.00    +0.000 OA
ATOM     19  H5* UNL     1       4.092 -12.978  21.562  0.00  0.00    +0.000 HD
ENDBRANCH  17  18
ENDBRANCH  14  17
ENDBRANCH   3  11
BRANCH   7  23
ATOM     20  F   UNL     1      -3.932 -15.013  16.088  0.00  0.00    +0.000 F 
ATOM     21  F   UNL     1      -4.268 -17.134  16.409  0.00  0.00    +0.000 F 
ATOM     22  F   UNL     1      -5.714 -15.698  17.157  0.00  0.00    +0.000 F 
ATOM     23  C   UNL     1      -4.385 -15.912  16.998  0.00  0.00    +0.000 C 
ENDBRANCH   7  23
TORSDOF 5
ENDMDL
