MODEL 1
REMARK VINA RESULT:      -5.1      0.000      0.000
REMARK  Name = 6323266_Tipiracil.pdbqt.pdb
REMARK  2 active torsions:
REMARK  status: ('A' for Active; 'I' for Inactive)
REMARK    1  A    between atoms: C_6  and  C_12
REMARK    2  A    between atoms: C_12  and  N_13
REMARK                            x       y       z     vdW  Elec       q    Type
REMARK                         _______ _______ _______ _____ _____    ______ ____
ROOT
ATOM      1 CL   UNL     1      -2.821  -5.209  -1.819  0.00  0.00    +0.000 Cl
ATOM      2  O   UNL     1      -4.620  -5.408   0.578  0.00  0.00    +0.000 OA
ATOM      3  O   UNL     1      -7.176  -1.761  -0.249  0.00  0.00    +0.000 OA
ATOM      4  N   UNL     1      -5.515  -2.278  -1.707  0.00  0.00    +0.000 N 
ATOM      5  N   UNL     1      -5.898  -3.591   0.151  0.00  0.00    +0.000 N 
ATOM      6  C   UNL     1      -4.478  -3.080  -2.107  0.00  0.00    +0.000 A 
ATOM      7  C   UNL     1      -4.114  -4.154  -1.394  0.00  0.00    +0.000 A 
ATOM      8  C   UNL     1      -4.876  -4.453  -0.150  0.00  0.00    +0.000 A 
ATOM      9  C   UNL     1      -6.255  -2.498  -0.581  0.00  0.00    +0.000 A 
ATOM     10  H   UNL     1      -5.770  -1.465  -2.264  0.00  0.00    +0.000 HD
ATOM     11  H   UNL     1      -6.428  -3.775   0.991  0.00  0.00    +0.000 HD
ENDROOT
BRANCH   6  12
ATOM     12  C   UNL     1      -3.830  -2.688  -3.310  0.00  0.00    +0.000 C 
BRANCH  12  13
ATOM     13  N   UNL     1      -3.265  -2.202  -4.554  0.00  0.00    +0.000 N 
ATOM     14  N   UNL     1      -3.301   0.208  -4.017  0.00  0.00    +0.000 NA
ATOM     15  C   UNL     1      -2.062  -2.864  -5.059  0.00  0.00    +0.000 C 
ATOM     16  C   UNL     1      -0.826  -2.113  -5.544  0.00  0.00    +0.000 C 
ATOM     17  C   UNL     1      -1.545  -0.822  -5.150  0.00  0.00    +0.000 C 
ATOM     18  C   UNL     1      -2.849  -0.877  -4.525  0.00  0.00    +0.000 C 
ATOM     19  H   UNL     1      -2.658   0.988  -4.195  0.00  0.00    +0.000 HD
ENDBRANCH  12  13
ENDBRANCH   6  12
TORSDOF 2
ENDMDL
MODEL 2
REMARK VINA RESULT:      -4.8     16.037     17.449
REMARK  Name = 6323266_Tipiracil.pdbqt.pdb
REMARK  2 active torsions:
REMARK  status: ('A' for Active; 'I' for Inactive)
REMARK    1  A    between atoms: C_6  and  C_12
REMARK    2  A    between atoms: C_12  and  N_13
REMARK                            x       y       z     vdW  Elec       q    Type
REMARK                         _______ _______ _______ _____ _____    ______ ____
ROOT
ATOM      1 CL   UNL     1       5.180  -5.970  12.906  0.00  0.00    +0.000 Cl
ATOM      2  O   UNL     1       5.052  -8.844  13.771  0.00  0.00    +0.000 OA
ATOM      3  O   UNL     1       7.244 -10.660  10.248  0.00  0.00    +0.000 OA
ATOM      4  N   UNL     1       6.939  -8.411  10.297  0.00  0.00    +0.000 N 
ATOM      5  N   UNL     1       6.157  -9.740  12.013  0.00  0.00    +0.000 N 
ATOM      6  C   UNL     1       6.462  -7.279  10.906  0.00  0.00    +0.000 A 
ATOM      7  C   UNL     1       5.816  -7.338  12.078  0.00  0.00    +0.000 A 
ATOM      8  C   UNL     1       5.634  -8.678  12.704  0.00  0.00    +0.000 A 
ATOM      9  C   UNL     1       6.808  -9.666  10.817  0.00  0.00    +0.000 A 
ATOM     10  H   UNL     1       7.423  -8.339   9.405  0.00  0.00    +0.000 HD
ATOM     11  H   UNL     1       6.044 -10.658  12.419  0.00  0.00    +0.000 HD
ENDROOT
BRANCH   6  12
ATOM     12  C   UNL     1       6.699  -6.063  10.208  0.00  0.00    +0.000 C 
BRANCH  12  13
ATOM     13  N   UNL     1       6.827  -4.782   9.541  0.00  0.00    +0.000 N 
ATOM     14  N   UNL     1       4.702  -4.848   8.285  0.00  0.00    +0.000 NA
ATOM     15  C   UNL     1       7.209  -3.627  10.353  0.00  0.00    +0.000 C 
ATOM     16  C   UNL     1       6.493  -2.282  10.298  0.00  0.00    +0.000 C 
ATOM     17  C   UNL     1       5.529  -2.919   9.296  0.00  0.00    +0.000 C 
ATOM     18  C   UNL     1       5.661  -4.317   8.947  0.00  0.00    +0.000 C 
ATOM     19  H   UNL     1       3.991  -4.146   8.049  0.00  0.00    +0.000 HD
ENDBRANCH  12  13
ENDBRANCH   6  12
TORSDOF 2
ENDMDL
MODEL 3
REMARK VINA RESULT:      -4.4     18.744     20.580
REMARK  Name = 6323266_Tipiracil.pdbqt.pdb
REMARK  2 active torsions:
REMARK  status: ('A' for Active; 'I' for Inactive)
REMARK    1  A    between atoms: C_6  and  C_12
REMARK    2  A    between atoms: C_12  and  N_13
REMARK                            x       y       z     vdW  Elec       q    Type
REMARK                         _______ _______ _______ _____ _____    ______ ____
ROOT
ATOM      1 CL   UNL     1       6.782 -14.944  12.008  0.00  0.00    +0.000 Cl
ATOM      2  O   UNL     1       5.786 -17.724  12.559  0.00  0.00    +0.000 OA
ATOM      3  O   UNL     1       1.389 -16.739  13.018  0.00  0.00    +0.000 OA
ATOM      4  N   UNL     1       2.840 -15.053  12.567  0.00  0.00    +0.000 N 
ATOM      5  N   UNL     1       3.591 -17.224  12.777  0.00  0.00    +0.000 N 
ATOM      6  C   UNL     1       4.110 -14.597  12.322  0.00  0.00    +0.000 A 
ATOM      7  C   UNL     1       5.157 -15.432  12.300  0.00  0.00    +0.000 A 
ATOM      8  C   UNL     1       4.898 -16.878  12.550  0.00  0.00    +0.000 A 
ATOM      9  C   UNL     1       2.535 -16.362  12.800  0.00  0.00    +0.000 A 
ATOM     10  H   UNL     1       2.062 -14.397  12.582  0.00  0.00    +0.000 HD
ATOM     11  H   UNL     1       3.393 -18.199  12.948  0.00  0.00    +0.000 HD
ENDROOT
BRANCH   6  12
ATOM     12  C   UNL     1       4.225 -13.198  12.099  0.00  0.00    +0.000 C 
BRANCH  12  13
ATOM     13  N   UNL     1       4.450 -11.774  11.944  0.00  0.00    +0.000 N 
ATOM     14  N   UNL     1       2.132 -11.129  11.389  0.00  0.00    +0.000 NA
ATOM     15  C   UNL     1       5.215 -11.087  12.984  0.00  0.00    +0.000 C 
ATOM     16  C   UNL     1       4.777  -9.777  13.629  0.00  0.00    +0.000 C 
ATOM     17  C   UNL     1       3.515  -9.861  12.769  0.00  0.00    +0.000 C 
ATOM     18  C   UNL     1       3.295 -11.003  11.908  0.00  0.00    +0.000 C 
ATOM     19  H   UNL     1       1.535 -10.330  11.634  0.00  0.00    +0.000 HD
ENDBRANCH  12  13
ENDBRANCH   6  12
TORSDOF 2
ENDMDL
MODEL 4
REMARK VINA RESULT:      -4.3     27.964     29.102
REMARK  Name = 6323266_Tipiracil.pdbqt.pdb
REMARK  2 active torsions:
REMARK  status: ('A' for Active; 'I' for Inactive)
REMARK    1  A    between atoms: C_6  and  C_12
REMARK    2  A    between atoms: C_12  and  N_13
REMARK                            x       y       z     vdW  Elec       q    Type
REMARK                         _______ _______ _______ _____ _____    ______ ____
ROOT
ATOM      1 CL   UNL     1     -19.934  -1.145  24.168  0.00  0.00    +0.000 Cl
ATOM      2  O   UNL     1     -18.346   1.286  24.935  0.00  0.00    +0.000 OA
ATOM      3  O   UNL     1     -16.245   1.940  20.976  0.00  0.00    +0.000 OA
ATOM      4  N   UNL     1     -17.683   0.195  21.168  0.00  0.00    +0.000 N 
ATOM      5  N   UNL     1     -17.309   1.611  22.951  0.00  0.00    +0.000 N 
ATOM      6  C   UNL     1     -18.567  -0.556  21.900  0.00  0.00    +0.000 A 
ATOM      7  C   UNL     1     -18.846  -0.254  23.175  0.00  0.00    +0.000 A 
ATOM      8  C   UNL     1     -18.166   0.929  23.775  0.00  0.00    +0.000 A 
ATOM      9  C   UNL     1     -17.030   1.290  21.655  0.00  0.00    +0.000 A 
ATOM     10  H   UNL     1     -17.485  -0.057  20.202  0.00  0.00    +0.000 HD
ATOM     11  H   UNL     1     -16.837   2.416  23.337  0.00  0.00    +0.000 HD
ENDROOT
BRANCH   6  12
ATOM     12  C   UNL     1     -19.148  -1.657  21.216  0.00  0.00    +0.000 C 
BRANCH  12  13
ATOM     13  N   UNL     1     -19.678  -2.857  20.599  0.00  0.00    +0.000 N 
ATOM     14  N   UNL     1     -18.073  -4.465  21.566  0.00  0.00    +0.000 NA
ATOM     15  C   UNL     1     -21.124  -3.074  20.664  0.00  0.00    +0.000 C 
ATOM     16  C   UNL     1     -21.761  -4.395  21.081  0.00  0.00    +0.000 C 
ATOM     17  C   UNL     1     -20.345  -4.919  21.321  0.00  0.00    +0.000 C 
ATOM     18  C   UNL     1     -19.205  -4.046  21.140  0.00  0.00    +0.000 C 
ATOM     19  H   UNL     1     -18.153  -5.421  21.932  0.00  0.00    +0.000 HD
ENDBRANCH  12  13
ENDBRANCH   6  12
TORSDOF 2
ENDMDL
MODEL 5
REMARK VINA RESULT:      -4.3     19.900     21.862
REMARK  Name = 6323266_Tipiracil.pdbqt.pdb
REMARK  2 active torsions:
REMARK  status: ('A' for Active; 'I' for Inactive)
REMARK    1  A    between atoms: C_6  and  C_12
REMARK    2  A    between atoms: C_12  and  N_13
REMARK                            x       y       z     vdW  Elec       q    Type
REMARK                         _______ _______ _______ _____ _____    ______ ____
ROOT
ATOM      1 CL   UNL     1       3.209 -12.327  13.169  0.00  0.00    +0.000 Cl
ATOM      2  O   UNL     1       5.502 -11.245  11.557  0.00  0.00    +0.000 OA
ATOM      3  O   UNL     1       7.534 -15.184  10.628  0.00  0.00    +0.000 OA
ATOM      4  N   UNL     1       5.636 -15.207  11.873  0.00  0.00    +0.000 N 
ATOM      5  N   UNL     1       6.504 -13.218  11.090  0.00  0.00    +0.000 N 
ATOM      6  C   UNL     1       4.596 -14.556  12.485  0.00  0.00    +0.000 A 
ATOM      7  C   UNL     1       4.477 -13.223  12.425  0.00  0.00    +0.000 A 
ATOM      8  C   UNL     1       5.514 -12.467  11.667  0.00  0.00    +0.000 A 
ATOM      9  C   UNL     1       6.615 -14.575  11.163  0.00  0.00    +0.000 A 
ATOM     10  H   UNL     1       5.706 -16.220  11.936  0.00  0.00    +0.000 HD
ATOM     11  H   UNL     1       7.217 -12.725  10.572  0.00  0.00    +0.000 HD
ENDROOT
BRANCH   6  12
ATOM     12  C   UNL     1       3.674 -15.390  13.175  0.00  0.00    +0.000 C 
BRANCH  12  13
ATOM     13  N   UNL     1       2.803 -16.341  13.837  0.00  0.00    +0.000 N 
ATOM     14  N   UNL     1       1.124 -16.560  12.040  0.00  0.00    +0.000 NA
ATOM     15  C   UNL     1       3.421 -17.509  14.464  0.00  0.00    +0.000 C 
ATOM     16  C   UNL     1       2.919 -18.935  14.272  0.00  0.00    +0.000 C 
ATOM     17  C   UNL     1       1.874 -18.360  13.314  0.00  0.00    +0.000 C 
ATOM     18  C   UNL     1       1.867 -16.946  13.008  0.00  0.00    +0.000 C 
ATOM     19  H   UNL     1       0.586 -17.347  11.658  0.00  0.00    +0.000 HD
ENDBRANCH  12  13
ENDBRANCH   6  12
TORSDOF 2
ENDMDL
MODEL 6
REMARK VINA RESULT:      -4.2     16.180     18.290
REMARK  Name = 6323266_Tipiracil.pdbqt.pdb
REMARK  2 active torsions:
REMARK  status: ('A' for Active; 'I' for Inactive)
REMARK    1  A    between atoms: C_6  and  C_12
REMARK    2  A    between atoms: C_12  and  N_13
REMARK                            x       y       z     vdW  Elec       q    Type
REMARK                         _______ _______ _______ _____ _____    ______ ____
ROOT
ATOM      1 CL   UNL     1       4.785  -7.771   8.639  0.00  0.00    +0.000 Cl
ATOM      2  O   UNL     1       5.582  -4.908   8.200  0.00  0.00    +0.000 OA
ATOM      3  O   UNL     1       7.434  -4.140  12.262  0.00  0.00    +0.000 OA
ATOM      4  N   UNL     1       6.570  -6.194  11.831  0.00  0.00    +0.000 N 
ATOM      5  N   UNL     1       6.514  -4.537  10.227  0.00  0.00    +0.000 N 
ATOM      6  C   UNL     1       5.944  -7.080  10.993  0.00  0.00    +0.000 A 
ATOM      7  C   UNL     1       5.580  -6.726   9.753  0.00  0.00    +0.000 A 
ATOM      8  C   UNL     1       5.879  -5.335   9.311  0.00  0.00    +0.000 A 
ATOM      9  C   UNL     1       6.875  -4.910  11.488  0.00  0.00    +0.000 A 
ATOM     10  H   UNL     1       6.833  -6.487  12.770  0.00  0.00    +0.000 HD
ATOM     11  H   UNL     1       6.726  -3.590   9.949  0.00  0.00    +0.000 HD
ENDROOT
BRANCH   6  12
ATOM     12  C   UNL     1       5.715  -8.375  11.531  0.00  0.00    +0.000 C 
BRANCH  12  13
ATOM     13  N   UNL     1       5.355  -9.674  12.065  0.00  0.00    +0.000 N 
ATOM     14  N   UNL     1       5.692  -9.158  14.456  0.00  0.00    +0.000 NA
ATOM     15  C   UNL     1       4.124 -10.295  11.575  0.00  0.00    +0.000 C 
ATOM     16  C   UNL     1       3.068 -10.911  12.485  0.00  0.00    +0.000 C 
ATOM     17  C   UNL     1       3.926 -10.456  13.666  0.00  0.00    +0.000 C 
ATOM     18  C   UNL     1       5.139  -9.700  13.437  0.00  0.00    +0.000 C 
ATOM     19  H   UNL     1       5.193  -9.408  15.317  0.00  0.00    +0.000 HD
ENDBRANCH  12  13
ENDBRANCH   6  12
TORSDOF 2
ENDMDL
MODEL 7
REMARK VINA RESULT:      -4.1     21.458     23.551
REMARK  Name = 6323266_Tipiracil.pdbqt.pdb
REMARK  2 active torsions:
REMARK  status: ('A' for Active; 'I' for Inactive)
REMARK    1  A    between atoms: C_6  and  C_12
REMARK    2  A    between atoms: C_12  and  N_13
REMARK                            x       y       z     vdW  Elec       q    Type
REMARK                         _______ _______ _______ _____ _____    ______ ____
ROOT
ATOM      1 CL   UNL     1     -13.000   8.755  16.809  0.00  0.00    +0.000 Cl
ATOM      2  O   UNL     1     -13.839   8.739  13.924  0.00  0.00    +0.000 OA
ATOM      3  O   UNL     1     -14.450   4.274  13.471  0.00  0.00    +0.000 OA
ATOM      4  N   UNL     1     -13.779   5.081  15.483  0.00  0.00    +0.000 N 
ATOM      5  N   UNL     1     -14.151   6.509  13.710  0.00  0.00    +0.000 N 
ATOM      6  C   UNL     1     -13.432   6.125  16.302  0.00  0.00    +0.000 A 
ATOM      7  C   UNL     1     -13.428   7.388  15.854  0.00  0.00    +0.000 A 
ATOM      8  C   UNL     1     -13.816   7.623  14.434  0.00  0.00    +0.000 A 
ATOM      9  C   UNL     1     -14.147   5.228  14.178  0.00  0.00    +0.000 A 
ATOM     10  H   UNL     1     -13.771   4.130  15.847  0.00  0.00    +0.000 HD
ATOM     11  H   UNL     1     -14.417   6.646  12.746  0.00  0.00    +0.000 HD
ENDROOT
BRANCH   6  12
ATOM     12  C   UNL     1     -13.082   5.770  17.632  0.00  0.00    +0.000 C 
BRANCH  12  13
ATOM     13  N   UNL     1     -12.756   5.286  18.960  0.00  0.00    +0.000 N 
ATOM     14  N   UNL     1     -12.188   2.965  18.338  0.00  0.00    +0.000 NA
ATOM     15  C   UNL     1     -11.867   6.105  19.784  0.00  0.00    +0.000 C 
ATOM     16  C   UNL     1     -10.667   5.548  20.542  0.00  0.00    +0.000 C 
ATOM     17  C   UNL     1     -11.001   4.189  19.925  0.00  0.00    +0.000 C 
ATOM     18  C   UNL     1     -12.096   4.064  18.987  0.00  0.00    +0.000 C 
ATOM     19  H   UNL     1     -11.469   2.299  18.645  0.00  0.00    +0.000 HD
ENDBRANCH  12  13
ENDBRANCH   6  12
TORSDOF 2
ENDMDL
MODEL 8
REMARK VINA RESULT:      -4.0     16.702     18.370
REMARK  Name = 6323266_Tipiracil.pdbqt.pdb
REMARK  2 active torsions:
REMARK  status: ('A' for Active; 'I' for Inactive)
REMARK    1  A    between atoms: C_6  and  C_12
REMARK    2  A    between atoms: C_12  and  N_13
REMARK                            x       y       z     vdW  Elec       q    Type
REMARK                         _______ _______ _______ _____ _____    ______ ____
ROOT
ATOM      1 CL   UNL     1       9.027  -6.375  12.130  0.00  0.00    +0.000 Cl
ATOM      2  O   UNL     1       8.784  -3.381  12.184  0.00  0.00    +0.000 OA
ATOM      3  O   UNL     1       4.819  -3.032  10.024  0.00  0.00    +0.000 OA
ATOM      4  N   UNL     1       5.688  -5.099  10.373  0.00  0.00    +0.000 N 
ATOM      5  N   UNL     1       6.798  -3.217  11.114  0.00  0.00    +0.000 N 
ATOM      6  C   UNL     1       6.671  -5.919  10.865  0.00  0.00    +0.000 A 
ATOM      7  C   UNL     1       7.746  -5.420  11.490  0.00  0.00    +0.000 A 
ATOM      8  C   UNL     1       7.839  -3.940  11.635  0.00  0.00    +0.000 A 
ATOM      9  C   UNL     1       5.712  -3.739  10.476  0.00  0.00    +0.000 A 
ATOM     10  H   UNL     1       4.884  -5.503   9.899  0.00  0.00    +0.000 HD
ATOM     11  H   UNL     1       6.842  -2.212  11.201  0.00  0.00    +0.000 HD
ENDROOT
BRANCH   6  12
ATOM     12  C   UNL     1       6.465  -7.310  10.662  0.00  0.00    +0.000 C 
BRANCH  12  13
ATOM     13  N   UNL     1       6.132  -8.711  10.488  0.00  0.00    +0.000 N 
ATOM     14  N   UNL     1       8.435  -9.598  10.437  0.00  0.00    +0.000 NA
ATOM     15  C   UNL     1       5.103  -9.280  11.359  0.00  0.00    +0.000 C 
ATOM     16  C   UNL     1       5.264 -10.601  12.103  0.00  0.00    +0.000 C 
ATOM     17  C   UNL     1       6.677 -10.672  11.522  0.00  0.00    +0.000 C 
ATOM     18  C   UNL     1       7.184  -9.591  10.706  0.00  0.00    +0.000 C 
ATOM     19  H   UNL     1       8.884 -10.440  10.814  0.00  0.00    +0.000 HD
ENDBRANCH  12  13
ENDBRANCH   6  12
TORSDOF 2
ENDMDL
MODEL 9
REMARK VINA RESULT:      -4.0     22.030     23.671
REMARK  Name = 6323266_Tipiracil.pdbqt.pdb
REMARK  2 active torsions:
REMARK  status: ('A' for Active; 'I' for Inactive)
REMARK    1  A    between atoms: C_6  and  C_12
REMARK    2  A    between atoms: C_12  and  N_13
REMARK                            x       y       z     vdW  Elec       q    Type
REMARK                         _______ _______ _______ _____ _____    ______ ____
ROOT
ATOM      1 CL   UNL     1     -15.876   6.736  18.370  0.00  0.00    +0.000 Cl
ATOM      2  O   UNL     1     -16.860   8.413  16.079  0.00  0.00    +0.000 OA
ATOM      3  O   UNL     1     -14.469   6.436  12.779  0.00  0.00    +0.000 OA
ATOM      4  N   UNL     1     -14.237   5.666  14.901  0.00  0.00    +0.000 N 
ATOM      5  N   UNL     1     -15.670   7.413  14.436  0.00  0.00    +0.000 N 
ATOM      6  C   UNL     1     -14.553   5.711  16.235  0.00  0.00    +0.000 A 
ATOM      7  C   UNL     1     -15.428   6.605  16.712  0.00  0.00    +0.000 A 
ATOM      8  C   UNL     1     -16.052   7.552  15.745  0.00  0.00    +0.000 A 
ATOM      9  C   UNL     1     -14.774   6.500  13.965  0.00  0.00    +0.000 A 
ATOM     10  H   UNL     1     -13.566   4.979  14.564  0.00  0.00    +0.000 HD
ATOM     11  H   UNL     1     -16.080   8.045  13.764  0.00  0.00    +0.000 HD
ENDROOT
BRANCH   6  12
ATOM     12  C   UNL     1     -13.891   4.756  17.053  0.00  0.00    +0.000 C 
BRANCH  12  13
ATOM     13  N   UNL     1     -13.230   3.864  17.986  0.00  0.00    +0.000 N 
ATOM     14  N   UNL     1     -11.397   3.130  16.502  0.00  0.00    +0.000 NA
ATOM     15  C   UNL     1     -12.977   4.359  19.339  0.00  0.00    +0.000 C 
ATOM     16  C   UNL     1     -11.635   4.229  20.049  0.00  0.00    +0.000 C 
ATOM     17  C   UNL     1     -11.102   3.587  18.768  0.00  0.00    +0.000 C 
ATOM     18  C   UNL     1     -11.955   3.466  17.605  0.00  0.00    +0.000 C 
ATOM     19  H   UNL     1     -10.399   2.937  16.643  0.00  0.00    +0.000 HD
ENDBRANCH  12  13
ENDBRANCH   6  12
TORSDOF 2
ENDMDL
