MODEL 1
REMARK VINA RESULT:      -5.8      0.000      0.000
REMARK  Name = 6325056_Deoxyelephantopin.pdbqt.pdb
REMARK  3 active torsions:
REMARK  status: ('A' for Active; 'I' for Inactive)
REMARK    1  A    between atoms: C_6  and  O_20
REMARK    2  A    between atoms: O_20  and  C_22
REMARK    3  A    between atoms: C_22  and  C_23
REMARK                            x       y       z     vdW  Elec       q    Type
REMARK                         _______ _______ _______ _____ _____    ______ ____
ROOT
ATOM      1  O   UNL     1     -12.007  -6.463  29.189  0.00  0.00    +0.000 OA
ATOM      2  O   UNL     1      -7.279  -5.696  24.764  0.00  0.00    +0.000 OA
ATOM      3  O   UNL     1     -13.207  -5.656  30.974  0.00  0.00    +0.000 OA
ATOM      4  O   UNL     1      -7.544  -3.391  24.688  0.00  0.00    +0.000 OA
ATOM      5  C   UNL     1     -10.667  -4.576  28.728  0.00  0.00    +0.000 C 
ATOM      6  C   UNL     1      -9.731  -3.658  28.078  0.00  0.00    +0.000 C 
ATOM      7  C   UNL     1     -11.006  -5.940  28.362  0.00  0.00    +0.000 C 
ATOM      8  C   UNL     1      -8.497  -4.072  27.511  0.00  0.00    +0.000 C 
ATOM      9  C   UNL     1     -11.529  -4.292  29.856  0.00  0.00    +0.000 C 
ATOM     10  C   UNL     1      -7.349  -4.555  26.806  0.00  0.00    +0.000 C 
ATOM     11  C   UNL     1     -10.423  -6.781  27.386  0.00  0.00    +0.000 C 
ATOM     12  C   UNL     1      -7.282  -6.577  25.867  0.00  0.00    +0.000 C 
ATOM     13  C   UNL     1      -8.476  -7.345  26.004  0.00  0.00    +0.000 C 
ATOM     14  C   UNL     1      -9.779  -7.651  26.458  0.00  0.00    +0.000 C 
ATOM     15  C   UNL     1      -6.898  -5.866  27.021  0.00  0.00    +0.000 C 
ATOM     16  C   UNL     1     -12.361  -5.498  30.110  0.00  0.00    +0.000 C 
ATOM     17  C   UNL     1      -7.372  -4.424  25.310  0.00  0.00    +0.000 C 
ATOM     18  C   UNL     1     -11.535  -3.180  30.601  0.00  0.00    +0.000 C 
ATOM     19  C   UNL     1     -10.365  -8.998  26.181  0.00  0.00    +0.000 C 
ENDROOT
BRANCH   6  20
ATOM     20  O   UNL     1      -9.901  -2.270  28.218  0.00  0.00    +0.000 OA
BRANCH  20  22
ATOM     21  O   UNL     1      -9.910  -1.568  26.026  0.00  0.00    +0.000 OA
ATOM     22  C   UNL     1      -9.445  -1.512  27.161  0.00  0.00    +0.000 C 
BRANCH  22  23
ATOM     23  C   UNL     1      -8.317  -0.621  27.616  0.00  0.00    +0.000 C 
ATOM     24  C   UNL     1      -6.864  -0.867  27.247  0.00  0.00    +0.000 C 
ATOM     25  C   UNL     1      -8.538   0.491  28.329  0.00  0.00    +0.000 C 
ENDBRANCH  22  23
ENDBRANCH  20  22
ENDBRANCH   6  20
TORSDOF 3
ENDMDL
MODEL 2
REMARK VINA RESULT:      -5.4     18.928     21.277
REMARK  Name = 6325056_Deoxyelephantopin.pdbqt.pdb
REMARK  3 active torsions:
REMARK  status: ('A' for Active; 'I' for Inactive)
REMARK    1  A    between atoms: C_6  and  O_20
REMARK    2  A    between atoms: O_20  and  C_22
REMARK    3  A    between atoms: C_22  and  C_23
REMARK                            x       y       z     vdW  Elec       q    Type
REMARK                         _______ _______ _______ _____ _____    ______ ____
ROOT
ATOM      1  O   UNL     1     -12.757 -19.459  13.337  0.00  0.00    +0.000 OA
ATOM      2  O   UNL     1     -10.357 -16.916   7.832  0.00  0.00    +0.000 OA
ATOM      3  O   UNL     1     -13.891 -19.196  15.317  0.00  0.00    +0.000 OA
ATOM      4  O   UNL     1     -12.023 -15.304   7.696  0.00  0.00    +0.000 OA
ATOM      5  C   UNL     1     -13.001 -17.286  12.450  0.00  0.00    +0.000 C 
ATOM      6  C   UNL     1     -12.971 -16.143  11.536  0.00  0.00    +0.000 C 
ATOM      7  C   UNL     1     -12.458 -18.618  12.257  0.00  0.00    +0.000 C 
ATOM      8  C   UNL     1     -11.864 -15.837  10.702  0.00  0.00    +0.000 C 
ATOM      9  C   UNL     1     -13.653 -17.356  13.740  0.00  0.00    +0.000 C 
ATOM     10  C   UNL     1     -10.801 -15.665   9.760  0.00  0.00    +0.000 C 
ATOM     11  C   UNL     1     -11.643 -19.117  11.215  0.00  0.00    +0.000 C 
ATOM     12  C   UNL     1      -9.628 -17.379   8.948  0.00  0.00    +0.000 C 
ATOM     13  C   UNL     1     -10.029 -18.663   9.422  0.00  0.00    +0.000 C 
ATOM     14  C   UNL     1     -10.754 -19.591  10.205  0.00  0.00    +0.000 C 
ATOM     15  C   UNL     1      -9.598 -16.367   9.928  0.00  0.00    +0.000 C 
ATOM     16  C   UNL     1     -13.485 -18.739  14.262  0.00  0.00    +0.000 C 
ATOM     17  C   UNL     1     -11.141 -15.876   8.312  0.00  0.00    +0.000 C 
ATOM     18  C   UNL     1     -14.238 -16.349  14.399  0.00  0.00    +0.000 C 
ATOM     19  C   UNL     1     -10.396 -21.041  10.160  0.00  0.00    +0.000 C 
ENDROOT
BRANCH   6  20
ATOM     20  O   UNL     1     -13.952 -15.142  11.635  0.00  0.00    +0.000 OA
BRANCH  20  22
ATOM     21  O   UNL     1     -14.765 -14.304   9.652  0.00  0.00    +0.000 OA
ATOM     22  C   UNL     1     -14.850 -15.091  10.591  0.00  0.00    +0.000 C 
BRANCH  22  23
ATOM     23  C   UNL     1     -15.919 -16.137  10.780  0.00  0.00    +0.000 C 
ATOM     24  C   UNL     1     -15.985 -17.414   9.959  0.00  0.00    +0.000 C 
ATOM     25  C   UNL     1     -16.850 -16.032  11.736  0.00  0.00    +0.000 C 
ENDBRANCH  22  23
ENDBRANCH  20  22
ENDBRANCH   6  20
TORSDOF 3
ENDMDL
MODEL 3
REMARK VINA RESULT:      -5.4     18.601     20.934
REMARK  Name = 6325056_Deoxyelephantopin.pdbqt.pdb
REMARK  3 active torsions:
REMARK  status: ('A' for Active; 'I' for Inactive)
REMARK    1  A    between atoms: C_6  and  O_20
REMARK    2  A    between atoms: O_20  and  C_22
REMARK    3  A    between atoms: C_22  and  C_23
REMARK                            x       y       z     vdW  Elec       q    Type
REMARK                         _______ _______ _______ _____ _____    ______ ____
ROOT
ATOM      1  O   UNL     1     -17.381 -13.349  10.617  0.00  0.00    +0.000 OA
ATOM      2  O   UNL     1     -11.913 -15.523   7.806  0.00  0.00    +0.000 OA
ATOM      3  O   UNL     1     -18.743 -13.201  12.461  0.00  0.00    +0.000 OA
ATOM      4  O   UNL     1     -10.716 -15.476   9.794  0.00  0.00    +0.000 OA
ATOM      5  C   UNL     1     -15.550 -14.494  11.569  0.00  0.00    +0.000 C 
ATOM      6  C   UNL     1     -14.233 -15.104  11.754  0.00  0.00    +0.000 C 
ATOM      7  C   UNL     1     -16.115 -13.895  10.373  0.00  0.00    +0.000 C 
ATOM      8  C   UNL     1     -13.586 -15.886  10.761  0.00  0.00    +0.000 C 
ATOM      9  C   UNL     1     -16.568 -14.289  12.578  0.00  0.00    +0.000 C 
ATOM     10  C   UNL     1     -12.901 -16.521   9.678  0.00  0.00    +0.000 C 
ATOM     11  C   UNL     1     -15.609 -13.872   9.052  0.00  0.00    +0.000 C 
ATOM     12  C   UNL     1     -13.234 -15.949   7.548  0.00  0.00    +0.000 C 
ATOM     13  C   UNL     1     -14.166 -14.888   7.347  0.00  0.00    +0.000 C 
ATOM     14  C   UNL     1     -15.134 -13.923   7.709  0.00  0.00    +0.000 C 
ATOM     15  C   UNL     1     -13.609 -16.893   8.525  0.00  0.00    +0.000 C 
ATOM     16  C   UNL     1     -17.698 -13.559  11.944  0.00  0.00    +0.000 C 
ATOM     17  C   UNL     1     -11.687 -15.818   9.143  0.00  0.00    +0.000 C 
ATOM     18  C   UNL     1     -16.549 -14.737  13.838  0.00  0.00    +0.000 C 
ATOM     19  C   UNL     1     -15.845 -13.150   6.646  0.00  0.00    +0.000 C 
ENDROOT
BRANCH   6  20
ATOM     20  O   UNL     1     -13.658 -15.153  13.036  0.00  0.00    +0.000 OA
BRANCH  20  22
ATOM     21  O   UNL     1     -11.852 -16.579  13.091  0.00  0.00    +0.000 OA
ATOM     22  C   UNL     1     -13.027 -16.336  13.353  0.00  0.00    +0.000 C 
BRANCH  22  23
ATOM     23  C   UNL     1     -13.986 -17.256  14.065  0.00  0.00    +0.000 C 
ATOM     24  C   UNL     1     -14.756 -18.360  13.359  0.00  0.00    +0.000 C 
ATOM     25  C   UNL     1     -14.173 -17.196  15.390  0.00  0.00    +0.000 C 
ENDBRANCH  22  23
ENDBRANCH  20  22
ENDBRANCH   6  20
TORSDOF 3
ENDMDL
MODEL 4
REMARK VINA RESULT:      -5.2     19.837     21.779
REMARK  Name = 6325056_Deoxyelephantopin.pdbqt.pdb
REMARK  3 active torsions:
REMARK  status: ('A' for Active; 'I' for Inactive)
REMARK    1  A    between atoms: C_6  and  O_20
REMARK    2  A    between atoms: O_20  and  C_22
REMARK    3  A    between atoms: C_22  and  C_23
REMARK                            x       y       z     vdW  Elec       q    Type
REMARK                         _______ _______ _______ _____ _____    ______ ____
ROOT
ATOM      1  O   UNL     1     -11.587 -20.839  11.926  0.00  0.00    +0.000 OA
ATOM      2  O   UNL     1      -9.986 -16.169   7.665  0.00  0.00    +0.000 OA
ATOM      3  O   UNL     1     -12.856 -21.559  13.700  0.00  0.00    +0.000 OA
ATOM      4  O   UNL     1     -12.124 -15.264   7.654  0.00  0.00    +0.000 OA
ATOM      5  C   UNL     1     -12.576 -18.727  11.563  0.00  0.00    +0.000 C 
ATOM      6  C   UNL     1     -12.922 -17.435  10.970  0.00  0.00    +0.000 C 
ATOM      7  C   UNL     1     -11.561 -19.677  11.145  0.00  0.00    +0.000 C 
ATOM      8  C   UNL     1     -11.963 -16.542  10.426  0.00  0.00    +0.000 C 
ATOM      9  C   UNL     1     -13.232 -19.383  12.675  0.00  0.00    +0.000 C 
ATOM     10  C   UNL     1     -10.987 -15.752   9.739  0.00  0.00    +0.000 C 
ATOM     11  C   UNL     1     -10.554 -19.544  10.160  0.00  0.00    +0.000 C 
ATOM     12  C   UNL     1      -9.206 -16.649   8.739  0.00  0.00    +0.000 C 
ATOM     13  C   UNL     1      -9.123 -18.071   8.817  0.00  0.00    +0.000 C 
ATOM     14  C   UNL     1      -9.492 -19.374   9.224  0.00  0.00    +0.000 C 
ATOM     15  C   UNL     1      -9.620 -16.012   9.926  0.00  0.00    +0.000 C 
ATOM     16  C   UNL     1     -12.589 -20.710  12.866  0.00  0.00    +0.000 C 
ATOM     17  C   UNL     1     -11.132 -15.647   8.248  0.00  0.00    +0.000 C 
ATOM     18  C   UNL     1     -14.193 -18.872  13.453  0.00  0.00    +0.000 C 
ATOM     19  C   UNL     1      -8.612 -20.534   8.888  0.00  0.00    +0.000 C 
ENDROOT
BRANCH   6  20
ATOM     20  O   UNL     1     -14.212 -16.907  11.148  0.00  0.00    +0.000 OA
BRANCH  20  22
ATOM     21  O   UNL     1     -13.700 -15.447  12.852  0.00  0.00    +0.000 OA
ATOM     22  C   UNL     1     -14.266 -15.688  11.789  0.00  0.00    +0.000 C 
BRANCH  22  23
ATOM     23  C   UNL     1     -15.103 -14.722  10.990  0.00  0.00    +0.000 C 
ATOM     24  C   UNL     1     -16.249 -13.923  11.590  0.00  0.00    +0.000 C 
ATOM     25  C   UNL     1     -14.844 -14.459   9.703  0.00  0.00    +0.000 C 
ENDBRANCH  22  23
ENDBRANCH  20  22
ENDBRANCH   6  20
TORSDOF 3
ENDMDL
MODEL 5
REMARK VINA RESULT:      -5.1     19.632     22.299
REMARK  Name = 6325056_Deoxyelephantopin.pdbqt.pdb
REMARK  3 active torsions:
REMARK  status: ('A' for Active; 'I' for Inactive)
REMARK    1  A    between atoms: C_6  and  O_20
REMARK    2  A    between atoms: O_20  and  C_22
REMARK    3  A    between atoms: C_22  and  C_23
REMARK                            x       y       z     vdW  Elec       q    Type
REMARK                         _______ _______ _______ _____ _____    ______ ____
ROOT
ATOM      1  O   UNL     1      -9.714 -21.461  10.689  0.00  0.00    +0.000 OA
ATOM      2  O   UNL     1     -10.986 -15.392   8.672  0.00  0.00    +0.000 OA
ATOM      3  O   UNL     1     -10.207 -23.247  12.047  0.00  0.00    +0.000 OA
ATOM      4  O   UNL     1     -13.261 -15.588   9.093  0.00  0.00    +0.000 OA
ATOM      5  C   UNL     1     -11.506 -20.031  11.251  0.00  0.00    +0.000 C 
ATOM      6  C   UNL     1     -12.445 -18.909  11.249  0.00  0.00    +0.000 C 
ATOM      7  C   UNL     1     -10.307 -20.215  10.453  0.00  0.00    +0.000 C 
ATOM      8  C   UNL     1     -12.047 -17.556  11.093  0.00  0.00    +0.000 C 
ATOM      9  C   UNL     1     -11.609 -21.257  12.015  0.00  0.00    +0.000 C 
ATOM     10  C   UNL     1     -11.623 -16.230  10.762  0.00  0.00    +0.000 C 
ATOM     11  C   UNL     1      -9.659 -19.310   9.580  0.00  0.00    +0.000 C 
ATOM     12  C   UNL     1      -9.879 -15.825   9.433  0.00  0.00    +0.000 C 
ATOM     13  C   UNL     1      -9.229 -16.986   8.919  0.00  0.00    +0.000 C 
ATOM     14  C   UNL     1      -8.965 -18.367   8.767  0.00  0.00    +0.000 C 
ATOM     15  C   UNL     1     -10.258 -15.906  10.788  0.00  0.00    +0.000 C 
ATOM     16  C   UNL     1     -10.471 -22.133  11.628  0.00  0.00    +0.000 C 
ATOM     17  C   UNL     1     -12.099 -15.676   9.450  0.00  0.00    +0.000 C 
ATOM     18  C   UNL     1     -12.512 -21.538  12.961  0.00  0.00    +0.000 C 
ATOM     19  C   UNL     1      -7.788 -18.813   7.960  0.00  0.00    +0.000 C 
ENDROOT
BRANCH   6  20
ATOM     20  O   UNL     1     -13.773 -19.108  11.665  0.00  0.00    +0.000 OA
BRANCH  20  22
ATOM     21  O   UNL     1     -14.906 -17.142  12.049  0.00  0.00    +0.000 OA
ATOM     22  C   UNL     1     -14.292 -18.119  12.471  0.00  0.00    +0.000 C 
BRANCH  22  23
ATOM     23  C   UNL     1     -13.999 -18.426  13.917  0.00  0.00    +0.000 C 
ATOM     24  C   UNL     1     -12.811 -17.844  14.666  0.00  0.00    +0.000 C 
ATOM     25  C   UNL     1     -14.813 -19.190  14.657  0.00  0.00    +0.000 C 
ENDBRANCH  22  23
ENDBRANCH  20  22
ENDBRANCH   6  20
TORSDOF 3
ENDMDL
MODEL 6
REMARK VINA RESULT:      -5.0     29.315     32.463
REMARK  Name = 6325056_Deoxyelephantopin.pdbqt.pdb
REMARK  3 active torsions:
REMARK  status: ('A' for Active; 'I' for Inactive)
REMARK    1  A    between atoms: C_6  and  O_20
REMARK    2  A    between atoms: O_20  and  C_22
REMARK    3  A    between atoms: C_22  and  C_23
REMARK                            x       y       z     vdW  Elec       q    Type
REMARK                         _______ _______ _______ _____ _____    ______ ____
ROOT
ATOM      1  O   UNL     1      -1.662  -4.709  -6.622  0.00  0.00    +0.000 OA
ATOM      2  O   UNL     1      -5.431  -3.969  -1.352  0.00  0.00    +0.000 OA
ATOM      3  O   UNL     1       0.403  -5.101  -7.547  0.00  0.00    +0.000 OA
ATOM      4  O   UNL     1      -4.137  -5.403  -0.063  0.00  0.00    +0.000 OA
ATOM      5  C   UNL     1      -1.132  -4.991  -4.339  0.00  0.00    +0.000 C 
ATOM      6  C   UNL     1      -1.257  -5.136  -2.889  0.00  0.00    +0.000 C 
ATOM      7  C   UNL     1      -2.164  -4.688  -5.315  0.00  0.00    +0.000 C 
ATOM      8  C   UNL     1      -2.117  -4.334  -2.093  0.00  0.00    +0.000 C 
ATOM      9  C   UNL     1       0.058  -5.191  -5.139  0.00  0.00    +0.000 C 
ATOM     10  C   UNL     1      -3.117  -3.623  -1.357  0.00  0.00    +0.000 C 
ATOM     11  C   UNL     1      -3.514  -4.316  -5.113  0.00  0.00    +0.000 C 
ATOM     12  C   UNL     1      -5.044  -2.971  -2.272  0.00  0.00    +0.000 C 
ATOM     13  C   UNL     1      -5.214  -3.334  -3.641  0.00  0.00    +0.000 C 
ATOM     14  C   UNL     1      -4.848  -3.861  -4.901  0.00  0.00    +0.000 C 
ATOM     15  C   UNL     1      -3.754  -2.514  -1.935  0.00  0.00    +0.000 C 
ATOM     16  C   UNL     1      -0.317  -5.014  -6.568  0.00  0.00    +0.000 C 
ATOM     17  C   UNL     1      -4.248  -4.437  -0.797  0.00  0.00    +0.000 C 
ATOM     18  C   UNL     1       1.297  -5.417  -4.689  0.00  0.00    +0.000 C 
ATOM     19  C   UNL     1      -5.766  -3.697  -6.069  0.00  0.00    +0.000 C 
ENDROOT
BRANCH   6  20
ATOM     20  O   UNL     1      -0.327  -5.916  -2.181  0.00  0.00    +0.000 OA
BRANCH  20  22
ATOM     21  O   UNL     1      -1.558  -7.400  -0.924  0.00  0.00    +0.000 OA
ATOM     22  C   UNL     1      -0.760  -7.176  -1.831  0.00  0.00    +0.000 C 
BRANCH  22  23
ATOM     23  C   UNL     1      -0.120  -8.208  -2.725  0.00  0.00    +0.000 C 
ATOM     24  C   UNL     1      -0.750  -8.687  -4.023  0.00  0.00    +0.000 C 
ATOM     25  C   UNL     1       1.086  -8.724  -2.458  0.00  0.00    +0.000 C 
ENDBRANCH  22  23
ENDBRANCH  20  22
ENDBRANCH   6  20
TORSDOF 3
ENDMDL
MODEL 7
REMARK VINA RESULT:      -5.0      2.081      5.116
REMARK  Name = 6325056_Deoxyelephantopin.pdbqt.pdb
REMARK  3 active torsions:
REMARK  status: ('A' for Active; 'I' for Inactive)
REMARK    1  A    between atoms: C_6  and  O_20
REMARK    2  A    between atoms: O_20  and  C_22
REMARK    3  A    between atoms: C_22  and  C_23
REMARK                            x       y       z     vdW  Elec       q    Type
REMARK                         _______ _______ _______ _____ _____    ______ ____
ROOT
ATOM      1  O   UNL     1      -9.280  -5.372  31.298  0.00  0.00    +0.000 OA
ATOM      2  O   UNL     1      -6.740  -2.178  26.211  0.00  0.00    +0.000 OA
ATOM      3  O   UNL     1     -10.823  -6.846  32.148  0.00  0.00    +0.000 OA
ATOM      4  O   UNL     1      -7.270  -3.872  24.715  0.00  0.00    +0.000 OA
ATOM      5  C   UNL     1      -9.774  -5.566  28.998  0.00  0.00    +0.000 C 
ATOM      6  C   UNL     1      -9.702  -5.434  27.542  0.00  0.00    +0.000 C 
ATOM      7  C   UNL     1      -8.949  -4.932  30.010  0.00  0.00    +0.000 C 
ATOM      8  C   UNL     1      -9.399  -4.215  26.881  0.00  0.00    +0.000 C 
ATOM      9  C   UNL     1     -10.655  -6.429  29.755  0.00  0.00    +0.000 C 
ATOM     10  C   UNL     1      -8.925  -3.013  26.265  0.00  0.00    +0.000 C 
ATOM     11  C   UNL     1      -7.967  -3.923  29.870  0.00  0.00    +0.000 C 
ATOM     12  C   UNL     1      -7.493  -1.632  27.273  0.00  0.00    +0.000 C 
ATOM     13  C   UNL     1      -7.068  -2.046  28.571  0.00  0.00    +0.000 C 
ATOM     14  C   UNL     1      -7.039  -2.849  29.733  0.00  0.00    +0.000 C 
ATOM     15  C   UNL     1      -8.863  -1.824  27.008  0.00  0.00    +0.000 C 
ATOM     16  C   UNL     1     -10.309  -6.286  31.195  0.00  0.00    +0.000 C 
ATOM     17  C   UNL     1      -7.586  -3.085  25.589  0.00  0.00    +0.000 C 
ATOM     18  C   UNL     1     -11.660  -7.169  29.274  0.00  0.00    +0.000 C 
ATOM     19  C   UNL     1      -6.232  -2.416  30.915  0.00  0.00    +0.000 C 
ENDROOT
BRANCH   6  20
ATOM     20  O   UNL     1     -10.188  -6.466  26.721  0.00  0.00    +0.000 OA
BRANCH  20  22
ATOM     21  O   UNL     1      -8.310  -7.030  25.516  0.00  0.00    +0.000 OA
ATOM     22  C   UNL     1      -9.236  -7.347  26.259  0.00  0.00    +0.000 C 
BRANCH  22  23
ATOM     23  C   UNL     1      -9.503  -8.727  26.804  0.00  0.00    +0.000 C 
ATOM     24  C   UNL     1      -8.895  -9.239  28.100  0.00  0.00    +0.000 C 
ATOM     25  C   UNL     1     -10.351  -9.573  26.206  0.00  0.00    +0.000 C 
ENDBRANCH  22  23
ENDBRANCH  20  22
ENDBRANCH   6  20
TORSDOF 3
ENDMDL
MODEL 8
REMARK VINA RESULT:      -4.9      2.971      6.396
REMARK  Name = 6325056_Deoxyelephantopin.pdbqt.pdb
REMARK  3 active torsions:
REMARK  status: ('A' for Active; 'I' for Inactive)
REMARK    1  A    between atoms: C_6  and  O_20
REMARK    2  A    between atoms: O_20  and  C_22
REMARK    3  A    between atoms: C_22  and  C_23
REMARK                            x       y       z     vdW  Elec       q    Type
REMARK                         _______ _______ _______ _____ _____    ______ ____
ROOT
ATOM      1  O   UNL     1      -8.232  -8.472  27.624  0.00  0.00    +0.000 OA
ATOM      2  O   UNL     1     -14.262 -10.957  27.596  0.00  0.00    +0.000 OA
ATOM      3  O   UNL     1      -6.821  -6.681  27.348  0.00  0.00    +0.000 OA
ATOM      4  O   UNL     1     -15.233  -8.951  28.248  0.00  0.00    +0.000 OA
ATOM      5  C   UNL     1     -10.310  -7.383  27.361  0.00  0.00    +0.000 C 
ATOM      6  C   UNL     1     -11.748  -7.115  27.335  0.00  0.00    +0.000 C 
ATOM      7  C   UNL     1      -9.623  -8.638  27.605  0.00  0.00    +0.000 C 
ATOM      8  C   UNL     1     -12.703  -8.022  26.805  0.00  0.00    +0.000 C 
ATOM      9  C   UNL     1      -9.238  -6.420  27.217  0.00  0.00    +0.000 C 
ATOM     10  C   UNL     1     -13.641  -9.031  26.420  0.00  0.00    +0.000 C 
ATOM     11  C   UNL     1     -10.152  -9.944  27.736  0.00  0.00    +0.000 C 
ATOM     12  C   UNL     1     -13.230 -11.209  26.667  0.00  0.00    +0.000 C 
ATOM     13  C   UNL     1     -11.969 -11.522  27.258  0.00  0.00    +0.000 C 
ATOM     14  C   UNL     1     -10.682 -11.266  27.784  0.00  0.00    +0.000 C 
ATOM     15  C   UNL     1     -13.200 -10.166  25.721  0.00  0.00    +0.000 C 
ATOM     16  C   UNL     1      -7.949  -7.141  27.397  0.00  0.00    +0.000 C 
ATOM     17  C   UNL     1     -14.511  -9.595  27.507  0.00  0.00    +0.000 C 
ATOM     18  C   UNL     1      -9.361  -5.126  26.900  0.00  0.00    +0.000 C 
ATOM     19  C   UNL     1      -9.786 -12.408  28.140  0.00  0.00    +0.000 C 
ENDROOT
BRANCH   6  20
ATOM     20  O   UNL     1     -12.224  -5.820  27.604  0.00  0.00    +0.000 OA
BRANCH  20  22
ATOM     21  O   UNL     1     -14.408  -5.471  28.239  0.00  0.00    +0.000 OA
ATOM     22  C   UNL     1     -13.246  -5.749  28.525  0.00  0.00    +0.000 C 
BRANCH  22  23
ATOM     23  C   UNL     1     -12.723  -6.069  29.902  0.00  0.00    +0.000 C 
ATOM     24  C   UNL     1     -13.141  -7.304  30.683  0.00  0.00    +0.000 C 
ATOM     25  C   UNL     1     -11.799  -5.307  30.502  0.00  0.00    +0.000 C 
ENDBRANCH  22  23
ENDBRANCH  20  22
ENDBRANCH   6  20
TORSDOF 3
ENDMDL
MODEL 9
REMARK VINA RESULT:      -4.9      2.855      5.619
REMARK  Name = 6325056_Deoxyelephantopin.pdbqt.pdb
REMARK  3 active torsions:
REMARK  status: ('A' for Active; 'I' for Inactive)
REMARK    1  A    between atoms: C_6  and  O_20
REMARK    2  A    between atoms: O_20  and  C_22
REMARK    3  A    between atoms: C_22  and  C_23
REMARK                            x       y       z     vdW  Elec       q    Type
REMARK                         _______ _______ _______ _____ _____    ______ ____
ROOT
ATOM      1  O   UNL     1     -11.174  -7.564  31.309  0.00  0.00    +0.000 OA
ATOM      2  O   UNL     1      -6.647  -5.742  26.983  0.00  0.00    +0.000 OA
ATOM      3  O   UNL     1     -13.337  -8.175  31.782  0.00  0.00    +0.000 OA
ATOM      4  O   UNL     1      -7.633  -6.933  25.252  0.00  0.00    +0.000 OA
ATOM      5  C   UNL     1     -11.310  -7.417  28.957  0.00  0.00    +0.000 C 
ATOM      6  C   UNL     1     -10.943  -7.280  27.547  0.00  0.00    +0.000 C 
ATOM      7  C   UNL     1     -10.468  -7.282  30.132  0.00  0.00    +0.000 C 
ATOM      8  C   UNL     1     -10.012  -6.320  27.071  0.00  0.00    +0.000 C 
ATOM      9  C   UNL     1     -12.601  -7.795  29.492  0.00  0.00    +0.000 C 
ATOM     10  C   UNL     1      -8.947  -5.458  26.658  0.00  0.00    +0.000 C 
ATOM     11  C   UNL     1      -9.126  -6.845  30.234  0.00  0.00    +0.000 C 
ATOM     12  C   UNL     1      -7.233  -4.947  27.991  0.00  0.00    +0.000 C 
ATOM     13  C   UNL     1      -7.267  -5.560  29.279  0.00  0.00    +0.000 C 
ATOM     14  C   UNL     1      -7.802  -6.327  30.339  0.00  0.00    +0.000 C 
ATOM     15  C   UNL     1      -8.474  -4.465  27.530  0.00  0.00    +0.000 C 
ATOM     16  C   UNL     1     -12.473  -7.885  30.972  0.00  0.00    +0.000 C 
ATOM     17  C   UNL     1      -7.696  -6.123  26.159  0.00  0.00    +0.000 C 
ATOM     18  C   UNL     1     -13.736  -7.960  28.805  0.00  0.00    +0.000 C 
ATOM     19  C   UNL     1      -7.097  -6.367  31.657  0.00  0.00    +0.000 C 
ENDROOT
BRANCH   6  20
ATOM     20  O   UNL     1     -11.702  -7.932  26.560  0.00  0.00    +0.000 OA
BRANCH  20  22
ATOM     21  O   UNL     1     -10.115  -9.473  25.924  0.00  0.00    +0.000 OA
ATOM     22  C   UNL     1     -11.273  -9.199  26.230  0.00  0.00    +0.000 C 
BRANCH  22  23
ATOM     23  C   UNL     1     -12.423 -10.171  26.313  0.00  0.00    +0.000 C 
ATOM     24  C   UNL     1     -12.529 -11.243  27.385  0.00  0.00    +0.000 C 
ATOM     25  C   UNL     1     -13.465 -10.106  25.474  0.00  0.00    +0.000 C 
ENDBRANCH  22  23
ENDBRANCH  20  22
ENDBRANCH   6  20
TORSDOF 3
ENDMDL
