MODEL 1
REMARK VINA RESULT:      -6.1      0.000      0.000
REMARK  Name = 641785_Cardamonin.pdbqt.pdb
REMARK  6 active torsions:
REMARK  status: ('A' for Active; 'I' for Inactive)
REMARK    1  A    between atoms: C_1  and  C_14
REMARK    2  A    between atoms: C_2  and  O_7
REMARK    3  A    between atoms: C_3  and  O_9
REMARK    4  A    between atoms: C_6  and  O_11
REMARK    5  A    between atoms: C_14  and  C_15
REMARK    6  A    between atoms: C_16  and  C_17
REMARK                            x       y       z     vdW  Elec       q    Type
REMARK                         _______ _______ _______ _____ _____    ______ ____
ROOT
ATOM      1  C   UNL     1      -8.934   5.794   4.071  0.00  0.00    +0.000 A 
ATOM      2  C   UNL     1      -8.631   5.377   5.381  0.00  0.00    +0.000 A 
ATOM      3  C   UNL     1     -10.124   6.516   3.846  0.00  0.00    +0.000 A 
ATOM      4  C   UNL     1      -9.528   5.669   6.419  0.00  0.00    +0.000 A 
ATOM      5  C   UNL     1     -11.010   6.788   4.888  0.00  0.00    +0.000 A 
ATOM      6  C   UNL     1     -10.709   6.356   6.168  0.00  0.00    +0.000 A 
ENDROOT
BRANCH   2   7
ATOM      7  O   UNL     1      -7.424   4.763   5.624  0.00  0.00    +0.000 OA
ATOM      8  C   UNL     1      -6.693   5.252   6.714  0.00  0.00    +0.000 C 
ENDBRANCH   2   7
BRANCH   3   9
ATOM      9  O   UNL     1     -10.499   6.996   2.617  0.00  0.00    +0.000 OA
ATOM     10  H   UNL     1     -11.445   6.784   2.454  0.00  0.00    +0.000 HD
ENDBRANCH   3   9
BRANCH   6  11
ATOM     11  O   UNL     1     -11.584   6.628   7.175  0.00  0.00    +0.000 OA
ATOM     12  H   UNL     1     -11.522   5.924   7.845  0.00  0.00    +0.000 HD
ENDBRANCH   6  11
BRANCH   1  14
ATOM     13  O   UNL     1      -8.002   4.386   2.429  0.00  0.00    +0.000 OA
ATOM     14  C   UNL     1      -8.063   5.516   2.901  0.00  0.00    +0.000 C 
BRANCH  14  15
ATOM     15  C   UNL     1      -7.221   6.550   2.351  0.00  0.00    +0.000 C 
ATOM     16  C   UNL     1      -6.504   7.401   1.895  0.00  0.00    +0.000 C 
BRANCH  16  17
ATOM     17  C   UNL     1      -5.659   8.414   1.354  0.00  0.00    +0.000 A 
ATOM     18  C   UNL     1      -5.169   9.423   2.180  0.00  0.00    +0.000 A 
ATOM     19  C   UNL     1      -5.327   8.395   0.001  0.00  0.00    +0.000 A 
ATOM     20  C   UNL     1      -4.345  10.415   1.653  0.00  0.00    +0.000 A 
ATOM     21  C   UNL     1      -4.503   9.387  -0.526  0.00  0.00    +0.000 A 
ATOM     22  C   UNL     1      -4.013  10.395   0.300  0.00  0.00    +0.000 A 
ENDBRANCH  16  17
ENDBRANCH  14  15
ENDBRANCH   1  14
TORSDOF 6
ENDMDL
MODEL 2
REMARK VINA RESULT:      -5.7     13.698     15.527
REMARK  Name = 641785_Cardamonin.pdbqt.pdb
REMARK  6 active torsions:
REMARK  status: ('A' for Active; 'I' for Inactive)
REMARK    1  A    between atoms: C_1  and  C_14
REMARK    2  A    between atoms: C_2  and  O_7
REMARK    3  A    between atoms: C_3  and  O_9
REMARK    4  A    between atoms: C_6  and  O_11
REMARK    5  A    between atoms: C_14  and  C_15
REMARK    6  A    between atoms: C_16  and  C_17
REMARK                            x       y       z     vdW  Elec       q    Type
REMARK                         _______ _______ _______ _____ _____    ______ ____
ROOT
ATOM      1  C   UNL     1      -5.336  -5.562  -0.945  0.00  0.00    +0.000 A 
ATOM      2  C   UNL     1      -5.714  -4.916  -2.138  0.00  0.00    +0.000 A 
ATOM      3  C   UNL     1      -5.242  -4.802   0.239  0.00  0.00    +0.000 A 
ATOM      4  C   UNL     1      -5.960  -3.535  -2.122  0.00  0.00    +0.000 A 
ATOM      5  C   UNL     1      -5.480  -3.428   0.235  0.00  0.00    +0.000 A 
ATOM      6  C   UNL     1      -5.831  -2.802  -0.949  0.00  0.00    +0.000 A 
ENDROOT
BRANCH   2   7
ATOM      7  O   UNL     1      -5.907  -5.669  -3.272  0.00  0.00    +0.000 OA
ATOM      8  C   UNL     1      -5.106  -5.341  -4.372  0.00  0.00    +0.000 C 
ENDBRANCH   2   7
BRANCH   3   9
ATOM      9  O   UNL     1      -4.914  -5.336   1.460  0.00  0.00    +0.000 OA
ATOM     10  H   UNL     1      -4.717  -6.293   1.360  0.00  0.00    +0.000 HD
ENDBRANCH   3   9
BRANCH   6  11
ATOM     11  O   UNL     1      -6.060  -1.459  -0.939  0.00  0.00    +0.000 OA
ATOM     12  H   UNL     1      -6.056  -1.147  -0.017  0.00  0.00    +0.000 HD
ENDBRANCH   6  11
BRANCH   1  14
ATOM     13  O   UNL     1      -5.849  -7.789  -0.375  0.00  0.00    +0.000 OA
ATOM     14  C   UNL     1      -5.032  -7.013  -0.860  0.00  0.00    +0.000 C 
BRANCH  14  15
ATOM     15  C   UNL     1      -3.747  -7.519  -1.275  0.00  0.00    +0.000 C 
ATOM     16  C   UNL     1      -2.671  -7.923  -1.627  0.00  0.00    +0.000 C 
BRANCH  16  17
ATOM     17  C   UNL     1      -1.397  -8.409  -2.044  0.00  0.00    +0.000 A 
ATOM     18  C   UNL     1      -1.276  -9.094  -3.252  0.00  0.00    +0.000 A 
ATOM     19  C   UNL     1      -0.277  -8.201  -1.243  0.00  0.00    +0.000 A 
ATOM     20  C   UNL     1      -0.032  -9.570  -3.659  0.00  0.00    +0.000 A 
ATOM     21  C   UNL     1       0.967  -8.678  -1.651  0.00  0.00    +0.000 A 
ATOM     22  C   UNL     1       1.088  -9.362  -2.858  0.00  0.00    +0.000 A 
ENDBRANCH  16  17
ENDBRANCH  14  15
ENDBRANCH   1  14
TORSDOF 6
ENDMDL
MODEL 3
REMARK VINA RESULT:      -5.3      3.330      6.352
REMARK  Name = 641785_Cardamonin.pdbqt.pdb
REMARK  6 active torsions:
REMARK  status: ('A' for Active; 'I' for Inactive)
REMARK    1  A    between atoms: C_1  and  C_14
REMARK    2  A    between atoms: C_2  and  O_7
REMARK    3  A    between atoms: C_3  and  O_9
REMARK    4  A    between atoms: C_6  and  O_11
REMARK    5  A    between atoms: C_14  and  C_15
REMARK    6  A    between atoms: C_16  and  C_17
REMARK                            x       y       z     vdW  Elec       q    Type
REMARK                         _______ _______ _______ _____ _____    ______ ____
ROOT
ATOM      1  C   UNL     1      -9.730   6.006   5.089  0.00  0.00    +0.000 A 
ATOM      2  C   UNL     1      -8.460   5.597   4.638  0.00  0.00    +0.000 A 
ATOM      3  C   UNL     1     -10.019   5.927   6.467  0.00  0.00    +0.000 A 
ATOM      4  C   UNL     1      -7.531   5.100   5.564  0.00  0.00    +0.000 A 
ATOM      5  C   UNL     1      -9.087   5.421   7.372  0.00  0.00    +0.000 A 
ATOM      6  C   UNL     1      -7.849   5.004   6.912  0.00  0.00    +0.000 A 
ENDROOT
BRANCH   2   7
ATOM      7  O   UNL     1      -8.136   5.767   3.312  0.00  0.00    +0.000 OA
ATOM      8  C   UNL     1      -7.114   6.686   3.042  0.00  0.00    +0.000 C 
ENDBRANCH   2   7
BRANCH   3   9
ATOM      9  O   UNL     1     -11.211   6.329   7.016  0.00  0.00    +0.000 OA
ATOM     10  H   UNL     1     -11.246   7.310   7.048  0.00  0.00    +0.000 HD
ENDBRANCH   3   9
BRANCH   6  11
ATOM     11  O   UNL     1      -6.949   4.511   7.807  0.00  0.00    +0.000 OA
ATOM     12  H   UNL     1      -7.054   4.984   8.652  0.00  0.00    +0.000 HD
ENDBRANCH   6  11
BRANCH   1  14
ATOM     13  O   UNL     1     -11.306   7.616   4.404  0.00  0.00    +0.000 OA
ATOM     14  C   UNL     1     -10.791   6.524   4.189  0.00  0.00    +0.000 C 
BRANCH  14  15
ATOM     15  C   UNL     1     -11.282   5.721   3.096  0.00  0.00    +0.000 C 
ATOM     16  C   UNL     1     -11.705   5.045   2.197  0.00  0.00    +0.000 C 
BRANCH  16  17
ATOM     17  C   UNL     1     -12.201   4.243   1.126  0.00  0.00    +0.000 A 
ATOM     18  C   UNL     1     -12.136   4.717  -0.183  0.00  0.00    +0.000 A 
ATOM     19  C   UNL     1     -12.750   2.991   1.391  0.00  0.00    +0.000 A 
ATOM     20  C   UNL     1     -12.621   3.936  -1.229  0.00  0.00    +0.000 A 
ATOM     21  C   UNL     1     -13.235   2.210   0.344  0.00  0.00    +0.000 A 
ATOM     22  C   UNL     1     -13.171   2.684  -0.965  0.00  0.00    +0.000 A 
ENDBRANCH  16  17
ENDBRANCH  14  15
ENDBRANCH   1  14
TORSDOF 6
ENDMDL
MODEL 4
REMARK VINA RESULT:      -5.2     12.896     14.615
REMARK  Name = 641785_Cardamonin.pdbqt.pdb
REMARK  6 active torsions:
REMARK  status: ('A' for Active; 'I' for Inactive)
REMARK    1  A    between atoms: C_1  and  C_14
REMARK    2  A    between atoms: C_2  and  O_7
REMARK    3  A    between atoms: C_3  and  O_9
REMARK    4  A    between atoms: C_6  and  O_11
REMARK    5  A    between atoms: C_14  and  C_15
REMARK    6  A    between atoms: C_16  and  C_17
REMARK                            x       y       z     vdW  Elec       q    Type
REMARK                         _______ _______ _______ _____ _____    ______ ____
ROOT
ATOM      1  C   UNL     1      -3.983  -3.044  -2.403  0.00  0.00    +0.000 A 
ATOM      2  C   UNL     1      -5.161  -3.685  -2.830  0.00  0.00    +0.000 A 
ATOM      3  C   UNL     1      -4.025  -2.249  -1.239  0.00  0.00    +0.000 A 
ATOM      4  C   UNL     1      -6.346  -3.497  -2.103  0.00  0.00    +0.000 A 
ATOM      5  C   UNL     1      -5.214  -2.064  -0.535  0.00  0.00    +0.000 A 
ATOM      6  C   UNL     1      -6.370  -2.685  -0.976  0.00  0.00    +0.000 A 
ENDROOT
BRANCH   2   7
ATOM      7  O   UNL     1      -5.104  -4.543  -3.904  0.00  0.00    +0.000 OA
ATOM      8  C   UNL     1      -5.239  -5.905  -3.610  0.00  0.00    +0.000 C 
ENDBRANCH   2   7
BRANCH   3   9
ATOM      9  O   UNL     1      -2.929  -1.607  -0.719  0.00  0.00    +0.000 OA
ATOM     10  H   UNL     1      -2.875  -1.776   0.247  0.00  0.00    +0.000 HD
ENDBRANCH   3   9
BRANCH   6  11
ATOM     11  O   UNL     1      -7.524  -2.495  -0.279  0.00  0.00    +0.000 OA
ATOM     12  H   UNL     1      -8.212  -3.079  -0.644  0.00  0.00    +0.000 HD
ENDBRANCH   6  11
BRANCH   1  14
ATOM     13  O   UNL     1      -2.316  -2.276  -3.880  0.00  0.00    +0.000 OA
ATOM     14  C   UNL     1      -2.684  -3.160  -3.114  0.00  0.00    +0.000 C 
BRANCH  14  15
ATOM     15  C   UNL     1      -1.874  -4.345  -2.972  0.00  0.00    +0.000 C 
ATOM     16  C   UNL     1      -1.188  -5.324  -2.841  0.00  0.00    +0.000 C 
BRANCH  16  17
ATOM     17  C   UNL     1      -0.378  -6.488  -2.691  0.00  0.00    +0.000 A 
ATOM     18  C   UNL     1       0.596  -6.783  -3.643  0.00  0.00    +0.000 A 
ATOM     19  C   UNL     1      -0.563  -7.328  -1.596  0.00  0.00    +0.000 A 
ATOM     20  C   UNL     1       1.387  -7.920  -3.498  0.00  0.00    +0.000 A 
ATOM     21  C   UNL     1       0.228  -8.466  -1.451  0.00  0.00    +0.000 A 
ATOM     22  C   UNL     1       1.202  -8.761  -2.403  0.00  0.00    +0.000 A 
ENDBRANCH  16  17
ENDBRANCH  14  15
ENDBRANCH   1  14
TORSDOF 6
ENDMDL
MODEL 5
REMARK VINA RESULT:      -4.9     24.848     27.653
REMARK  Name = 641785_Cardamonin.pdbqt.pdb
REMARK  6 active torsions:
REMARK  status: ('A' for Active; 'I' for Inactive)
REMARK    1  A    between atoms: C_1  and  C_14
REMARK    2  A    between atoms: C_2  and  O_7
REMARK    3  A    between atoms: C_3  and  O_9
REMARK    4  A    between atoms: C_6  and  O_11
REMARK    5  A    between atoms: C_14  and  C_15
REMARK    6  A    between atoms: C_16  and  C_17
REMARK                            x       y       z     vdW  Elec       q    Type
REMARK                         _______ _______ _______ _____ _____    ______ ____
ROOT
ATOM      1  C   UNL     1      -7.490  -4.755  26.633  0.00  0.00    +0.000 A 
ATOM      2  C   UNL     1      -7.455  -4.579  28.029  0.00  0.00    +0.000 A 
ATOM      3  C   UNL     1      -7.366  -3.622  25.802  0.00  0.00    +0.000 A 
ATOM      4  C   UNL     1      -7.325  -3.285  28.554  0.00  0.00    +0.000 A 
ATOM      5  C   UNL     1      -7.248  -2.342  26.340  0.00  0.00    +0.000 A 
ATOM      6  C   UNL     1      -7.234  -2.181  27.716  0.00  0.00    +0.000 A 
ENDROOT
BRANCH   2   7
ATOM      7  O   UNL     1      -7.471  -5.688  28.843  0.00  0.00    +0.000 OA
ATOM      8  C   UNL     1      -6.256  -6.020  29.453  0.00  0.00    +0.000 C 
ENDBRANCH   2   7
BRANCH   3   9
ATOM      9  O   UNL     1      -7.356  -3.685  24.431  0.00  0.00    +0.000 OA
ATOM     10  H   UNL     1      -8.253  -3.914  24.103  0.00  0.00    +0.000 HD
ENDBRANCH   3   9
BRANCH   6  11
ATOM     11  O   UNL     1      -7.120  -0.924  28.228  0.00  0.00    +0.000 OA
ATOM     12  H   UNL     1      -6.193  -0.635  28.147  0.00  0.00    +0.000 HD
ENDBRANCH   6  11
BRANCH   1  14
ATOM     13  O   UNL     1      -6.801  -6.482  25.187  0.00  0.00    +0.000 OA
ATOM     14  C   UNL     1      -7.647  -6.079  25.977  0.00  0.00    +0.000 C 
BRANCH  14  15
ATOM     15  C   UNL     1      -8.830  -6.873  26.203  0.00  0.00    +0.000 C 
ATOM     16  C   UNL     1      -9.815  -7.530  26.409  0.00  0.00    +0.000 C 
BRANCH  16  17
ATOM     17  C   UNL     1     -10.983  -8.313  26.647  0.00  0.00    +0.000 A 
ATOM     18  C   UNL     1     -10.919  -9.702  26.552  0.00  0.00    +0.000 A 
ATOM     19  C   UNL     1     -12.184  -7.689  26.973  0.00  0.00    +0.000 A 
ATOM     20  C   UNL     1     -12.060 -10.467  26.782  0.00  0.00    +0.000 A 
ATOM     21  C   UNL     1     -13.325  -8.455  27.204  0.00  0.00    +0.000 A 
ATOM     22  C   UNL     1     -13.261  -9.843  27.108  0.00  0.00    +0.000 A 
ENDBRANCH  16  17
ENDBRANCH  14  15
ENDBRANCH   1  14
TORSDOF 6
ENDMDL
MODEL 6
REMARK VINA RESULT:      -4.8      2.184      3.439
REMARK  Name = 641785_Cardamonin.pdbqt.pdb
REMARK  6 active torsions:
REMARK  status: ('A' for Active; 'I' for Inactive)
REMARK    1  A    between atoms: C_1  and  C_14
REMARK    2  A    between atoms: C_2  and  O_7
REMARK    3  A    between atoms: C_3  and  O_9
REMARK    4  A    between atoms: C_6  and  O_11
REMARK    5  A    between atoms: C_14  and  C_15
REMARK    6  A    between atoms: C_16  and  C_17
REMARK                            x       y       z     vdW  Elec       q    Type
REMARK                         _______ _______ _______ _____ _____    ______ ____
ROOT
ATOM      1  C   UNL     1      -7.558   7.630   5.304  0.00  0.00    +0.000 A 
ATOM      2  C   UNL     1      -8.885   8.098   5.353  0.00  0.00    +0.000 A 
ATOM      3  C   UNL     1      -7.277   6.335   5.784  0.00  0.00    +0.000 A 
ATOM      4  C   UNL     1      -9.882   7.277   5.899  0.00  0.00    +0.000 A 
ATOM      5  C   UNL     1      -8.278   5.535   6.334  0.00  0.00    +0.000 A 
ATOM      6  C   UNL     1      -9.576   6.015   6.393  0.00  0.00    +0.000 A 
ENDROOT
BRANCH   2   7
ATOM      7  O   UNL     1      -9.184   9.319   4.793  0.00  0.00    +0.000 OA
ATOM      8  C   UNL     1      -9.963   9.287   3.630  0.00  0.00    +0.000 C 
ENDBRANCH   2   7
BRANCH   3   9
ATOM      9  O   UNL     1      -6.026   5.770   5.755  0.00  0.00    +0.000 OA
ATOM     10  H   UNL     1      -5.455   6.194   6.432  0.00  0.00    +0.000 HD
ENDBRANCH   3   9
BRANCH   6  11
ATOM     11  O   UNL     1     -10.544   5.224   6.933  0.00  0.00    +0.000 OA
ATOM     12  H   UNL     1     -10.583   4.389   6.434  0.00  0.00    +0.000 HD
ENDBRANCH   6  11
BRANCH   1  14
ATOM     13  O   UNL     1      -5.618   8.947   5.530  0.00  0.00    +0.000 OA
ATOM     14  C   UNL     1      -6.427   8.429   4.767  0.00  0.00    +0.000 C 
BRANCH  14  15
ATOM     15  C   UNL     1      -6.306   8.669   3.351  0.00  0.00    +0.000 C 
ATOM     16  C   UNL     1      -6.192   8.856   2.168  0.00  0.00    +0.000 C 
BRANCH  16  17
ATOM     17  C   UNL     1      -6.060   9.084   0.767  0.00  0.00    +0.000 A 
ATOM     18  C   UNL     1      -5.140   8.344   0.027  0.00  0.00    +0.000 A 
ATOM     19  C   UNL     1      -6.850  10.046   0.141  0.00  0.00    +0.000 A 
ATOM     20  C   UNL     1      -5.010   8.567  -1.342  0.00  0.00    +0.000 A 
ATOM     21  C   UNL     1      -6.719  10.268  -1.228  0.00  0.00    +0.000 A 
ATOM     22  C   UNL     1      -5.799   9.529  -1.968  0.00  0.00    +0.000 A 
ENDBRANCH  16  17
ENDBRANCH  14  15
ENDBRANCH   1  14
TORSDOF 6
ENDMDL
MODEL 7
REMARK VINA RESULT:      -4.7     21.696     23.122
REMARK  Name = 641785_Cardamonin.pdbqt.pdb
REMARK  6 active torsions:
REMARK  status: ('A' for Active; 'I' for Inactive)
REMARK    1  A    between atoms: C_1  and  C_14
REMARK    2  A    between atoms: C_2  and  O_7
REMARK    3  A    between atoms: C_3  and  O_9
REMARK    4  A    between atoms: C_6  and  O_11
REMARK    5  A    between atoms: C_14  and  C_15
REMARK    6  A    between atoms: C_16  and  C_17
REMARK                            x       y       z     vdW  Elec       q    Type
REMARK                         _______ _______ _______ _____ _____    ______ ____
ROOT
ATOM      1  C   UNL     1     -20.038  -1.221  20.673  0.00  0.00    +0.000 A 
ATOM      2  C   UNL     1     -20.077  -1.738  21.982  0.00  0.00    +0.000 A 
ATOM      3  C   UNL     1     -19.237  -0.090  20.413  0.00  0.00    +0.000 A 
ATOM      4  C   UNL     1     -19.341  -1.102  22.993  0.00  0.00    +0.000 A 
ATOM      5  C   UNL     1     -18.520   0.536  21.431  0.00  0.00    +0.000 A 
ATOM      6  C   UNL     1     -18.582   0.029  22.718  0.00  0.00    +0.000 A 
ENDROOT
BRANCH   2   7
ATOM      7  O   UNL     1     -20.774  -2.900  22.221  0.00  0.00    +0.000 OA
ATOM      8  C   UNL     1     -20.004  -4.021  22.551  0.00  0.00    +0.000 C 
ENDBRANCH   2   7
BRANCH   3   9
ATOM      9  O   UNL     1     -19.102   0.474  19.169  0.00  0.00    +0.000 OA
ATOM     10  H   UNL     1     -18.412  -0.006  18.661  0.00  0.00    +0.000 HD
ENDBRANCH   3   9
BRANCH   6  11
ATOM     11  O   UNL     1     -17.877   0.651  23.704  0.00  0.00    +0.000 OA
ATOM     12  H   UNL     1     -16.991   0.251  23.758  0.00  0.00    +0.000 HD
ENDBRANCH   6  11
BRANCH   1  14
ATOM     13  O   UNL     1     -21.849  -1.296  19.170  0.00  0.00    +0.000 OA
ATOM     14  C   UNL     1     -20.797  -1.806  19.538  0.00  0.00    +0.000 C 
BRANCH  14  15
ATOM     15  C   UNL     1     -20.349  -3.021  18.905  0.00  0.00    +0.000 C 
ATOM     16  C   UNL     1     -19.989  -4.033  18.364  0.00  0.00    +0.000 C 
BRANCH  16  17
ATOM     17  C   UNL     1     -19.558  -5.235  17.729  0.00  0.00    +0.000 A 
ATOM     18  C   UNL     1     -18.202  -5.444  17.486  0.00  0.00    +0.000 A 
ATOM     19  C   UNL     1     -20.493  -6.195  17.350  0.00  0.00    +0.000 A 
ATOM     20  C   UNL     1     -17.780  -6.617  16.864  0.00  0.00    +0.000 A 
ATOM     21  C   UNL     1     -20.070  -7.368  16.728  0.00  0.00    +0.000 A 
ATOM     22  C   UNL     1     -18.715  -7.577  16.485  0.00  0.00    +0.000 A 
ENDBRANCH  16  17
ENDBRANCH  14  15
ENDBRANCH   1  14
TORSDOF 6
ENDMDL
MODEL 8
REMARK VINA RESULT:      -4.6     21.678     25.943
REMARK  Name = 641785_Cardamonin.pdbqt.pdb
REMARK  6 active torsions:
REMARK  status: ('A' for Active; 'I' for Inactive)
REMARK    1  A    between atoms: C_1  and  C_14
REMARK    2  A    between atoms: C_2  and  O_7
REMARK    3  A    between atoms: C_3  and  O_9
REMARK    4  A    between atoms: C_6  and  O_11
REMARK    5  A    between atoms: C_14  and  C_15
REMARK    6  A    between atoms: C_16  and  C_17
REMARK                            x       y       z     vdW  Elec       q    Type
REMARK                         _______ _______ _______ _____ _____    ______ ____
ROOT
ATOM      1  C   UNL     1     -19.416  -2.828  20.972  0.00  0.00    +0.000 A 
ATOM      2  C   UNL     1     -19.640  -1.644  21.699  0.00  0.00    +0.000 A 
ATOM      3  C   UNL     1     -19.440  -2.775  19.563  0.00  0.00    +0.000 A 
ATOM      4  C   UNL     1     -19.905  -0.453  21.007  0.00  0.00    +0.000 A 
ATOM      5  C   UNL     1     -19.715  -1.585  18.891  0.00  0.00    +0.000 A 
ATOM      6  C   UNL     1     -19.953  -0.431  19.619  0.00  0.00    +0.000 A 
ENDROOT
BRANCH   2   7
ATOM      7  O   UNL     1     -19.516  -1.668  23.069  0.00  0.00    +0.000 OA
ATOM      8  C   UNL     1     -20.707  -1.544  23.796  0.00  0.00    +0.000 C 
ENDBRANCH   2   7
BRANCH   3   9
ATOM      9  O   UNL     1     -19.204  -3.861  18.759  0.00  0.00    +0.000 OA
ATOM     10  H   UNL     1     -19.572  -4.670  19.178  0.00  0.00    +0.000 HD
ENDBRANCH   3   9
BRANCH   6  11
ATOM     11  O   UNL     1     -20.222   0.724  18.949  0.00  0.00    +0.000 OA
ATOM     12  H   UNL     1     -19.437   1.299  18.986  0.00  0.00    +0.000 HD
ENDBRANCH   6  11
BRANCH   1  14
ATOM     13  O   UNL     1     -18.002  -4.561  21.709  0.00  0.00    +0.000 OA
ATOM     14  C   UNL     1     -19.150  -4.143  21.609  0.00  0.00    +0.000 C 
BRANCH  14  15
ATOM     15  C   UNL     1     -20.240  -4.979  22.049  0.00  0.00    +0.000 C 
ATOM     16  C   UNL     1     -21.143  -5.672  22.435  0.00  0.00    +0.000 C 
BRANCH  16  17
ATOM     17  C   UNL     1     -22.216  -6.497  22.885  0.00  0.00    +0.000 A 
ATOM     18  C   UNL     1     -23.376  -5.912  23.390  0.00  0.00    +0.000 A 
ATOM     19  C   UNL     1     -22.102  -7.883  22.822  0.00  0.00    +0.000 A 
ATOM     20  C   UNL     1     -24.424  -6.717  23.832  0.00  0.00    +0.000 A 
ATOM     21  C   UNL     1     -23.150  -8.688  23.264  0.00  0.00    +0.000 A 
ATOM     22  C   UNL     1     -24.309  -8.104  23.769  0.00  0.00    +0.000 A 
ENDBRANCH  16  17
ENDBRANCH  14  15
ENDBRANCH   1  14
TORSDOF 6
ENDMDL
MODEL 9
REMARK VINA RESULT:      -4.5     13.740     16.741
REMARK  Name = 641785_Cardamonin.pdbqt.pdb
REMARK  6 active torsions:
REMARK  status: ('A' for Active; 'I' for Inactive)
REMARK    1  A    between atoms: C_1  and  C_14
REMARK    2  A    between atoms: C_2  and  O_7
REMARK    3  A    between atoms: C_3  and  O_9
REMARK    4  A    between atoms: C_6  and  O_11
REMARK    5  A    between atoms: C_14  and  C_15
REMARK    6  A    between atoms: C_16  and  C_17
REMARK                            x       y       z     vdW  Elec       q    Type
REMARK                         _______ _______ _______ _____ _____    ______ ____
ROOT
ATOM      1  C   UNL     1     -14.531   4.881  16.916  0.00  0.00    +0.000 A 
ATOM      2  C   UNL     1     -15.507   5.838  17.253  0.00  0.00    +0.000 A 
ATOM      3  C   UNL     1     -14.082   4.809  15.581  0.00  0.00    +0.000 A 
ATOM      4  C   UNL     1     -16.023   6.673  16.251  0.00  0.00    +0.000 A 
ATOM      5  C   UNL     1     -14.613   5.640  14.596  0.00  0.00    +0.000 A 
ATOM      6  C   UNL     1     -15.587   6.564  14.937  0.00  0.00    +0.000 A 
ENDROOT
BRANCH   2   7
ATOM      7  O   UNL     1     -15.873   5.982  18.571  0.00  0.00    +0.000 OA
ATOM      8  C   UNL     1     -15.441   7.154  19.204  0.00  0.00    +0.000 C 
ENDBRANCH   2   7
BRANCH   3   9
ATOM      9  O   UNL     1     -13.113   3.936  15.153  0.00  0.00    +0.000 OA
ATOM     10  H   UNL     1     -12.845   3.350  15.894  0.00  0.00    +0.000 HD
ENDBRANCH   3   9
BRANCH   6  11
ATOM     11  O   UNL     1     -16.098   7.368  13.964  0.00  0.00    +0.000 OA
ATOM     12  H   UNL     1     -17.056   7.464  14.107  0.00  0.00    +0.000 HD
ENDBRANCH   6  11
BRANCH   1  14
ATOM     13  O   UNL     1     -14.361   2.787  17.983  0.00  0.00    +0.000 OA
ATOM     14  C   UNL     1     -13.938   3.935  17.896  0.00  0.00    +0.000 C 
BRANCH  14  15
ATOM     15  C   UNL     1     -12.911   4.373  18.809  0.00  0.00    +0.000 C 
ATOM     16  C   UNL     1     -12.060   4.757  19.568  0.00  0.00    +0.000 C 
BRANCH  16  17
ATOM     17  C   UNL     1     -11.049   5.205  20.467  0.00  0.00    +0.000 A 
ATOM     18  C   UNL     1     -10.590   6.519  20.397  0.00  0.00    +0.000 A 
ATOM     19  C   UNL     1     -10.519   4.329  21.411  0.00  0.00    +0.000 A 
ATOM     20  C   UNL     1      -9.600   6.957  21.274  0.00  0.00    +0.000 A 
ATOM     21  C   UNL     1      -9.529   4.768  22.288  0.00  0.00    +0.000 A 
ATOM     22  C   UNL     1      -9.071   6.081  22.218  0.00  0.00    +0.000 A 
ENDBRANCH  16  17
ENDBRANCH  14  15
ENDBRANCH   1  14
TORSDOF 6
ENDMDL
