MODEL 1
REMARK VINA RESULT:      -5.1      0.000      0.000
REMARK  Name = 6440856_Goniothalamin.pdbqt.pdb
REMARK  2 active torsions:
REMARK  status: ('A' for Active; 'I' for Inactive)
REMARK    1  A    between atoms: C_1  and  C_5
REMARK    2  A    between atoms: C_2  and  C_10
REMARK                            x       y       z     vdW  Elec       q    Type
REMARK                         _______ _______ _______ _____ _____    ______ ____
ROOT
ATOM      1  C   UNL     1       6.381  -8.708  10.746  0.00  0.00    +0.000 C 
ATOM      2  C   UNL     1       6.137  -7.555  10.516  0.00  0.00    +0.000 C 
ENDROOT
BRANCH   1   5
ATOM      3  O   UNL     1       5.597 -10.921  11.457  0.00  0.00    +0.000 OA
ATOM      4  O   UNL     1       5.075 -13.087  12.101  0.00  0.00    +0.000 OA
ATOM      5  C   UNL     1       6.669 -10.065  11.020  0.00  0.00    +0.000 A 
ATOM      6  C   UNL     1       7.940 -10.690  10.907  0.00  0.00    +0.000 A 
ATOM      7  C   UNL     1       8.330 -12.124  11.179  0.00  0.00    +0.000 A 
ATOM      8  C   UNL     1       7.288 -12.607  11.518  0.00  0.00    +0.000 A 
ATOM      9  C   UNL     1       5.894 -12.263  11.726  0.00  0.00    +0.000 A 
ENDBRANCH   1   5
BRANCH   2  10
ATOM     10  C   UNL     1       5.846  -6.185  10.243  0.00  0.00    +0.000 A 
ATOM     11  C   UNL     1       5.871  -5.250  11.275  0.00  0.00    +0.000 A 
ATOM     12  C   UNL     1       5.539  -5.785   8.945  0.00  0.00    +0.000 A 
ATOM     13  C   UNL     1       5.586  -3.913  11.008  0.00  0.00    +0.000 A 
ATOM     14  C   UNL     1       5.255  -4.448   8.678  0.00  0.00    +0.000 A 
ATOM     15  C   UNL     1       5.279  -3.512   9.710  0.00  0.00    +0.000 A 
ENDBRANCH   2  10
TORSDOF 2
ENDMDL
MODEL 2
REMARK VINA RESULT:      -4.9     19.837     21.029
REMARK  Name = 6440856_Goniothalamin.pdbqt.pdb
REMARK  2 active torsions:
REMARK  status: ('A' for Active; 'I' for Inactive)
REMARK    1  A    between atoms: C_1  and  C_5
REMARK    2  A    between atoms: C_2  and  C_10
REMARK                            x       y       z     vdW  Elec       q    Type
REMARK                         _______ _______ _______ _____ _____    ______ ____
ROOT
ATOM      1  C   UNL     1     -12.642  -8.014   2.533  0.00  0.00    +0.000 C 
ATOM      2  C   UNL     1     -13.000  -7.924   3.675  0.00  0.00    +0.000 C 
ENDROOT
BRANCH   1   5
ATOM      3  O   UNL     1     -10.821  -8.347   0.922  0.00  0.00    +0.000 OA
ATOM      4  O   UNL     1      -9.260  -8.640  -0.768  0.00  0.00    +0.000 OA
ATOM      5  C   UNL     1     -12.217  -8.116   1.188  0.00  0.00    +0.000 A 
ATOM      6  C   UNL     1     -13.047  -8.013   0.038  0.00  0.00    +0.000 A 
ATOM      7  C   UNL     1     -12.675  -8.111  -1.423  0.00  0.00    +0.000 A 
ATOM      8  C   UNL     1     -11.494  -8.298  -1.369  0.00  0.00    +0.000 A 
ATOM      9  C   UNL     1     -10.413  -8.446  -0.413  0.00  0.00    +0.000 A 
ENDBRANCH   1   5
BRANCH   2  10
ATOM     10  C   UNL     1     -13.426  -7.818   5.032  0.00  0.00    +0.000 A 
ATOM     11  C   UNL     1     -12.727  -8.486   6.035  0.00  0.00    +0.000 A 
ATOM     12  C   UNL     1     -14.540  -7.045   5.353  0.00  0.00    +0.000 A 
ATOM     13  C   UNL     1     -13.144  -8.383   7.360  0.00  0.00    +0.000 A 
ATOM     14  C   UNL     1     -14.955  -6.941   6.679  0.00  0.00    +0.000 A 
ATOM     15  C   UNL     1     -14.257  -7.610   7.681  0.00  0.00    +0.000 A 
ENDBRANCH   2  10
TORSDOF 2
ENDMDL
MODEL 3
REMARK VINA RESULT:      -4.8     26.778     27.724
REMARK  Name = 6440856_Goniothalamin.pdbqt.pdb
REMARK  2 active torsions:
REMARK  status: ('A' for Active; 'I' for Inactive)
REMARK    1  A    between atoms: C_1  and  C_5
REMARK    2  A    between atoms: C_2  and  C_10
REMARK                            x       y       z     vdW  Elec       q    Type
REMARK                         _______ _______ _______ _____ _____    ______ ____
ROOT
ATOM      1  C   UNL     1     -19.394  -4.822  19.322  0.00  0.00    +0.000 C 
ATOM      2  C   UNL     1     -19.443  -4.110  20.288  0.00  0.00    +0.000 C 
ENDROOT
BRANCH   1   5
ATOM      3  O   UNL     1     -20.545  -6.324  17.761  0.00  0.00    +0.000 OA
ATOM      4  O   UNL     1     -21.429  -7.768  16.176  0.00  0.00    +0.000 OA
ATOM      5  C   UNL     1     -19.340  -5.662  18.187  0.00  0.00    +0.000 A 
ATOM      6  C   UNL     1     -18.187  -5.930  17.398  0.00  0.00    +0.000 A 
ATOM      7  C   UNL     1     -18.045  -6.808  16.177  0.00  0.00    +0.000 A 
ATOM      8  C   UNL     1     -19.158  -7.228  16.040  0.00  0.00    +0.000 A 
ATOM      9  C   UNL     1     -20.478  -7.154  16.635  0.00  0.00    +0.000 A 
ENDBRANCH   1   5
BRANCH   2  10
ATOM     10  C   UNL     1     -19.502  -3.264  21.435  0.00  0.00    +0.000 A 
ATOM     11  C   UNL     1     -19.750  -3.812  22.692  0.00  0.00    +0.000 A 
ATOM     12  C   UNL     1     -19.310  -1.891  21.297  0.00  0.00    +0.000 A 
ATOM     13  C   UNL     1     -19.808  -2.985  23.811  0.00  0.00    +0.000 A 
ATOM     14  C   UNL     1     -19.368  -1.065  22.417  0.00  0.00    +0.000 A 
ATOM     15  C   UNL     1     -19.616  -1.613  23.674  0.00  0.00    +0.000 A 
ENDBRANCH   2  10
TORSDOF 2
ENDMDL
MODEL 4
REMARK VINA RESULT:      -4.7     22.544     23.467
REMARK  Name = 6440856_Goniothalamin.pdbqt.pdb
REMARK  2 active torsions:
REMARK  status: ('A' for Active; 'I' for Inactive)
REMARK    1  A    between atoms: C_1  and  C_5
REMARK    2  A    between atoms: C_2  and  C_10
REMARK                            x       y       z     vdW  Elec       q    Type
REMARK                         _______ _______ _______ _____ _____    ______ ____
ROOT
ATOM      1  C   UNL     1     -11.075  -9.008  26.494  0.00  0.00    +0.000 C 
ATOM      2  C   UNL     1     -10.283  -8.107  26.446  0.00  0.00    +0.000 C 
ENDROOT
BRANCH   1   5
ATOM      3  O   UNL     1     -11.715 -11.194  27.408  0.00  0.00    +0.000 OA
ATOM      4  O   UNL     1     -12.513 -13.243  28.143  0.00  0.00    +0.000 OA
ATOM      5  C   UNL     1     -12.005 -10.071  26.554  0.00  0.00    +0.000 A 
ATOM      6  C   UNL     1     -13.232 -10.151  25.840  0.00  0.00    +0.000 A 
ATOM      7  C   UNL     1     -14.276 -11.243  25.848  0.00  0.00    +0.000 A 
ATOM      8  C   UNL     1     -13.805 -12.034  26.614  0.00  0.00    +0.000 A 
ATOM      9  C   UNL     1     -12.644 -12.239  27.459  0.00  0.00    +0.000 A 
ENDBRANCH   1   5
BRANCH   2  10
ATOM     10  C   UNL     1      -9.344  -7.035  26.389  0.00  0.00    +0.000 A 
ATOM     11  C   UNL     1      -8.122  -7.215  25.744  0.00  0.00    +0.000 A 
ATOM     12  C   UNL     1      -9.649  -5.811  26.979  0.00  0.00    +0.000 A 
ATOM     13  C   UNL     1      -7.204  -6.168  25.690  0.00  0.00    +0.000 A 
ATOM     14  C   UNL     1      -8.731  -4.764  26.924  0.00  0.00    +0.000 A 
ATOM     15  C   UNL     1      -7.510  -4.943  26.279  0.00  0.00    +0.000 A 
ENDBRANCH   2  10
TORSDOF 2
ENDMDL
MODEL 5
REMARK VINA RESULT:      -4.7     22.488     23.371
REMARK  Name = 6440856_Goniothalamin.pdbqt.pdb
REMARK  2 active torsions:
REMARK  status: ('A' for Active; 'I' for Inactive)
REMARK    1  A    between atoms: C_1  and  C_5
REMARK    2  A    between atoms: C_2  and  C_10
REMARK                            x       y       z     vdW  Elec       q    Type
REMARK                         _______ _______ _______ _____ _____    ______ ____
ROOT
ATOM      1  C   UNL     1     -10.889  -9.000  26.591  0.00  0.00    +0.000 C 
ATOM      2  C   UNL     1     -10.151  -8.057  26.500  0.00  0.00    +0.000 C 
ENDROOT
BRANCH   1   5
ATOM      3  O   UNL     1     -12.966 -10.120  25.918  0.00  0.00    +0.000 OA
ATOM      4  O   UNL     1     -14.869 -11.350  25.426  0.00  0.00    +0.000 OA
ATOM      5  C   UNL     1     -11.758 -10.109  26.703  0.00  0.00    +0.000 A 
ATOM      6  C   UNL     1     -11.561 -11.247  27.531  0.00  0.00    +0.000 A 
ATOM      7  C   UNL     1     -12.435 -12.467  27.707  0.00  0.00    +0.000 A 
ATOM      8  C   UNL     1     -13.346 -12.232  26.966  0.00  0.00    +0.000 A 
ATOM      9  C   UNL     1     -13.818 -11.223  26.037  0.00  0.00    +0.000 A 
ENDBRANCH   1   5
BRANCH   2  10
ATOM     10  C   UNL     1      -9.275  -6.937  26.392  0.00  0.00    +0.000 A 
ATOM     11  C   UNL     1      -9.612  -5.729  26.997  0.00  0.00    +0.000 A 
ATOM     12  C   UNL     1      -8.082  -7.053  25.681  0.00  0.00    +0.000 A 
ATOM     13  C   UNL     1      -8.756  -4.635  26.890  0.00  0.00    +0.000 A 
ATOM     14  C   UNL     1      -7.226  -5.959  25.574  0.00  0.00    +0.000 A 
ATOM     15  C   UNL     1      -7.564  -4.751  26.180  0.00  0.00    +0.000 A 
ENDBRANCH   2  10
TORSDOF 2
ENDMDL
MODEL 6
REMARK VINA RESULT:      -4.6     27.323     28.498
REMARK  Name = 6440856_Goniothalamin.pdbqt.pdb
REMARK  2 active torsions:
REMARK  status: ('A' for Active; 'I' for Inactive)
REMARK    1  A    between atoms: C_1  and  C_5
REMARK    2  A    between atoms: C_2  and  C_10
REMARK                            x       y       z     vdW  Elec       q    Type
REMARK                         _______ _______ _______ _____ _____    ______ ____
ROOT
ATOM      1  C   UNL     1     -19.768  -4.218  20.176  0.00  0.00    +0.000 C 
ATOM      2  C   UNL     1     -19.599  -4.888  19.195  0.00  0.00    +0.000 C 
ENDROOT
BRANCH   1   5
ATOM      3  O   UNL     1     -20.703  -2.195  21.205  0.00  0.00    +0.000 OA
ATOM      4  O   UNL     1     -21.496  -0.360  22.379  0.00  0.00    +0.000 OA
ATOM      5  C   UNL     1     -19.965  -3.426  21.331  0.00  0.00    +0.000 A 
ATOM      6  C   UNL     1     -19.499  -3.725  22.640  0.00  0.00    +0.000 A 
ATOM      7  C   UNL     1     -19.666  -2.938  23.920  0.00  0.00    +0.000 A 
ATOM      8  C   UNL     1     -20.295  -1.989  23.549  0.00  0.00    +0.000 A 
ATOM      9  C   UNL     1     -20.891  -1.420  22.356  0.00  0.00    +0.000 A 
ENDBRANCH   1   5
BRANCH   2  10
ATOM     10  C   UNL     1     -19.397  -5.684  18.029  0.00  0.00    +0.000 A 
ATOM     11  C   UNL     1     -20.464  -6.386  17.473  0.00  0.00    +0.000 A 
ATOM     12  C   UNL     1     -18.134  -5.757  17.446  0.00  0.00    +0.000 A 
ATOM     13  C   UNL     1     -20.267  -7.164  16.334  0.00  0.00    +0.000 A 
ATOM     14  C   UNL     1     -17.937  -6.534  16.307  0.00  0.00    +0.000 A 
ATOM     15  C   UNL     1     -19.004  -7.237  15.752  0.00  0.00    +0.000 A 
ENDBRANCH   2  10
TORSDOF 2
ENDMDL
MODEL 7
REMARK VINA RESULT:      -4.6     19.103     21.258
REMARK  Name = 6440856_Goniothalamin.pdbqt.pdb
REMARK  2 active torsions:
REMARK  status: ('A' for Active; 'I' for Inactive)
REMARK    1  A    between atoms: C_1  and  C_5
REMARK    2  A    between atoms: C_2  and  C_10
REMARK                            x       y       z     vdW  Elec       q    Type
REMARK                         _______ _______ _______ _____ _____    ______ ____
ROOT
ATOM      1  C   UNL     1     -12.204 -16.647  12.387  0.00  0.00    +0.000 C 
ATOM      2  C   UNL     1     -12.607 -16.977  13.469  0.00  0.00    +0.000 C 
ENDROOT
BRANCH   1   5
ATOM      3  O   UNL     1     -12.680 -16.033  10.059  0.00  0.00    +0.000 OA
ATOM      4  O   UNL     1     -12.899 -15.428   7.832  0.00  0.00    +0.000 OA
ATOM      5  C   UNL     1     -11.726 -16.257  11.115  0.00  0.00    +0.000 A 
ATOM      6  C   UNL     1     -10.365 -16.057  10.758  0.00  0.00    +0.000 A 
ATOM      7  C   UNL     1      -9.774 -15.642   9.431  0.00  0.00    +0.000 A 
ATOM      8  C   UNL     1     -10.750 -15.525   8.747  0.00  0.00    +0.000 A 
ATOM      9  C   UNL     1     -12.194 -15.648   8.805  0.00  0.00    +0.000 A 
ENDBRANCH   1   5
BRANCH   2  10
ATOM     10  C   UNL     1     -13.086 -17.369  14.754  0.00  0.00    +0.000 A 
ATOM     11  C   UNL     1     -14.214 -16.755  15.293  0.00  0.00    +0.000 A 
ATOM     12  C   UNL     1     -12.425 -18.367  15.468  0.00  0.00    +0.000 A 
ATOM     13  C   UNL     1     -14.680 -17.137  16.549  0.00  0.00    +0.000 A 
ATOM     14  C   UNL     1     -12.892 -18.749  16.723  0.00  0.00    +0.000 A 
ATOM     15  C   UNL     1     -14.020 -18.135  17.262  0.00  0.00    +0.000 A 
ENDBRANCH   2  10
TORSDOF 2
ENDMDL
MODEL 8
REMARK VINA RESULT:      -4.6     22.644     24.034
REMARK  Name = 6440856_Goniothalamin.pdbqt.pdb
REMARK  2 active torsions:
REMARK  status: ('A' for Active; 'I' for Inactive)
REMARK    1  A    between atoms: C_1  and  C_5
REMARK    2  A    between atoms: C_2  and  C_10
REMARK                            x       y       z     vdW  Elec       q    Type
REMARK                         _______ _______ _______ _____ _____    ______ ____
ROOT
ATOM      1  C   UNL     1     -10.433  -8.293  26.491  0.00  0.00    +0.000 C 
ATOM      2  C   UNL     1     -11.198  -9.215  26.571  0.00  0.00    +0.000 C 
ENDROOT
BRANCH   1   5
ATOM      3  O   UNL     1      -9.942  -5.929  26.928  0.00  0.00    +0.000 OA
ATOM      4  O   UNL     1      -9.271  -3.731  27.240  0.00  0.00    +0.000 OA
ATOM      5  C   UNL     1      -9.535  -7.205  26.399  0.00  0.00    +0.000 A 
ATOM      6  C   UNL     1      -8.235  -7.239  25.825  0.00  0.00    +0.000 A 
ATOM      7  C   UNL     1      -7.219  -6.129  25.689  0.00  0.00    +0.000 A 
ATOM      8  C   UNL     1      -7.789  -5.204  26.191  0.00  0.00    +0.000 A 
ATOM      9  C   UNL     1      -9.044  -4.859  26.831  0.00  0.00    +0.000 A 
ENDBRANCH   1   5
BRANCH   2  10
ATOM     10  C   UNL     1     -12.106 -10.311  26.666  0.00  0.00    +0.000 A 
ATOM     11  C   UNL     1     -13.268 -10.321  25.898  0.00  0.00    +0.000 A 
ATOM     12  C   UNL     1     -11.829 -11.370  27.528  0.00  0.00    +0.000 A 
ATOM     13  C   UNL     1     -14.155 -11.391  25.992  0.00  0.00    +0.000 A 
ATOM     14  C   UNL     1     -12.716 -12.440  27.621  0.00  0.00    +0.000 A 
ATOM     15  C   UNL     1     -13.878 -12.450  26.853  0.00  0.00    +0.000 A 
ENDBRANCH   2  10
TORSDOF 2
ENDMDL
MODEL 9
REMARK VINA RESULT:      -4.5     26.935     27.968
REMARK  Name = 6440856_Goniothalamin.pdbqt.pdb
REMARK  2 active torsions:
REMARK  status: ('A' for Active; 'I' for Inactive)
REMARK    1  A    between atoms: C_1  and  C_5
REMARK    2  A    between atoms: C_2  and  C_10
REMARK                            x       y       z     vdW  Elec       q    Type
REMARK                         _______ _______ _______ _____ _____    ______ ____
ROOT
ATOM      1  C   UNL     1     -19.608  -4.385  20.058  0.00  0.00    +0.000 C 
ATOM      2  C   UNL     1     -19.539  -3.634  20.992  0.00  0.00    +0.000 C 
ENDROOT
BRANCH   1   5
ATOM      3  O   UNL     1     -18.490  -5.577  18.227  0.00  0.00    +0.000 OA
ATOM      4  O   UNL     1     -17.643  -6.791  16.442  0.00  0.00    +0.000 OA
ATOM      5  C   UNL     1     -19.692  -5.269  18.958  0.00  0.00    +0.000 A 
ATOM      6  C   UNL     1     -20.872  -5.905  18.484  0.00  0.00    +0.000 A 
ATOM      7  C   UNL     1     -21.047  -6.857  17.323  0.00  0.00    +0.000 A 
ATOM      8  C   UNL     1     -19.931  -6.941  16.898  0.00  0.00    +0.000 A 
ATOM      9  C   UNL     1     -18.587  -6.453  17.139  0.00  0.00    +0.000 A 
ENDBRANCH   1   5
BRANCH   2  10
ATOM     10  C   UNL     1     -19.457  -2.741  22.101  0.00  0.00    +0.000 A 
ATOM     11  C   UNL     1     -19.100  -1.410  21.897  0.00  0.00    +0.000 A 
ATOM     12  C   UNL     1     -19.736  -3.201  23.386  0.00  0.00    +0.000 A 
ATOM     13  C   UNL     1     -19.019  -0.538  22.981  0.00  0.00    +0.000 A 
ATOM     14  C   UNL     1     -19.656  -2.328  24.469  0.00  0.00    +0.000 A 
ATOM     15  C   UNL     1     -19.298  -0.997  24.266  0.00  0.00    +0.000 A 
ENDBRANCH   2  10
TORSDOF 2
ENDMDL
