MODEL 1
REMARK VINA RESULT:      -4.4      0.000      0.000
REMARK  Name = 649_Dihydrouracil.pdb
REMARK  0 active torsions:
REMARK  status: ('A' for Active; 'I' for Inactive)
REMARK                            x       y       z     vdW  Elec       q    Type
REMARK                         _______ _______ _______ _____ _____    ______ ____
ROOT
ATOM      1  O   UNL     1      -4.328  -5.293  -0.001  0.00  0.00    +0.000 OA
ATOM      2  O   UNL     1      -7.480  -1.929  -0.215  0.00  0.00    +0.000 OA
ATOM      3  N   UNL     1      -5.357  -1.445  -0.936  0.00  0.00    +0.000 N 
ATOM      4  N   UNL     1      -5.895  -3.590  -0.117  0.00  0.00    +0.000 N 
ATOM      5  C   UNL     1      -4.093  -1.833  -1.152  0.00  0.00    +0.000 A 
ATOM      6  C   UNL     1      -3.663  -3.227  -0.830  0.00  0.00    +0.000 A 
ATOM      7  C   UNL     1      -4.625  -4.142  -0.284  0.00  0.00    +0.000 A 
ATOM      8  C   UNL     1      -6.326  -2.292  -0.410  0.00  0.00    +0.000 A 
ATOM      9  H   UNL     1      -5.639  -0.499  -1.158  0.00  0.00    +0.000 HD
ATOM     10  H   UNL     1      -6.594  -4.208   0.265  0.00  0.00    +0.000 HD
ENDROOT
TORSDOF 0
ENDMDL
MODEL 2
REMARK VINA RESULT:      -3.7     10.618     11.367
REMARK  Name = 649_Dihydrouracil.pdb
REMARK  0 active torsions:
REMARK  status: ('A' for Active; 'I' for Inactive)
REMARK                            x       y       z     vdW  Elec       q    Type
REMARK                         _______ _______ _______ _____ _____    ______ ____
ROOT
ATOM      1  O   UNL     1     -11.111  -9.099   4.175  0.00  0.00    +0.000 OA
ATOM      2  O   UNL     1     -13.212  -8.641   8.258  0.00  0.00    +0.000 OA
ATOM      3  N   UNL     1     -13.990  -7.371   6.514  0.00  0.00    +0.000 N 
ATOM      4  N   UNL     1     -12.180  -8.854   6.216  0.00  0.00    +0.000 N 
ATOM      5  C   UNL     1     -13.914  -7.003   5.228  0.00  0.00    +0.000 A 
ATOM      6  C   UNL     1     -12.882  -7.602   4.328  0.00  0.00    +0.000 A 
ATOM      7  C   UNL     1     -11.974  -8.577   4.864  0.00  0.00    +0.000 A 
ATOM      8  C   UNL     1     -13.136  -8.310   7.081  0.00  0.00    +0.000 A 
ATOM      9  H   UNL     1     -14.693  -6.960   7.114  0.00  0.00    +0.000 HD
ATOM     10  H   UNL     1     -11.558  -9.535   6.623  0.00  0.00    +0.000 HD
ENDROOT
TORSDOF 0
ENDMDL
MODEL 3
REMARK VINA RESULT:      -3.5      1.949      2.332
REMARK  Name = 649_Dihydrouracil.pdb
REMARK  0 active torsions:
REMARK  status: ('A' for Active; 'I' for Inactive)
REMARK                            x       y       z     vdW  Elec       q    Type
REMARK                         _______ _______ _______ _____ _____    ______ ____
ROOT
ATOM      1  O   UNL     1      -4.131  -5.217  -0.260  0.00  0.00    +0.000 OA
ATOM      2  O   UNL     1      -3.514  -1.274  -2.577  0.00  0.00    +0.000 OA
ATOM      3  N   UNL     1      -5.101  -1.298  -0.922  0.00  0.00    +0.000 N 
ATOM      4  N   UNL     1      -3.837  -3.228  -1.411  0.00  0.00    +0.000 N 
ATOM      5  C   UNL     1      -5.758  -1.959   0.041  0.00  0.00    +0.000 A 
ATOM      6  C   UNL     1      -5.444  -3.392   0.325  0.00  0.00    +0.000 A 
ATOM      7  C   UNL     1      -4.428  -4.048  -0.449  0.00  0.00    +0.000 A 
ATOM      8  C   UNL     1      -4.110  -1.886  -1.698  0.00  0.00    +0.000 A 
ATOM      9  H   UNL     1      -5.321  -0.327  -1.106  0.00  0.00    +0.000 HD
ATOM     10  H   UNL     1      -3.119  -3.659  -1.972  0.00  0.00    +0.000 HD
ENDROOT
TORSDOF 0
ENDMDL
MODEL 4
REMARK VINA RESULT:      -3.4     10.754     11.657
REMARK  Name = 649_Dihydrouracil.pdb
REMARK  0 active torsions:
REMARK  status: ('A' for Active; 'I' for Inactive)
REMARK                            x       y       z     vdW  Elec       q    Type
REMARK                         _______ _______ _______ _____ _____    ______ ____
ROOT
ATOM      1  O   UNL     1     -12.562  -8.471   4.020  0.00  0.00    +0.000 OA
ATOM      2  O   UNL     1     -10.089  -8.082   7.896  0.00  0.00    +0.000 OA
ATOM      3  N   UNL     1     -12.360  -8.323   8.104  0.00  0.00    +0.000 N 
ATOM      4  N   UNL     1     -11.339  -8.278   5.978  0.00  0.00    +0.000 N 
ATOM      5  C   UNL     1     -13.563  -8.472   7.535  0.00  0.00    +0.000 A 
ATOM      6  C   UNL     1     -13.696  -8.533   6.048  0.00  0.00    +0.000 A 
ATOM      7  C   UNL     1     -12.513  -8.429   5.240  0.00  0.00    +0.000 A 
ATOM      8  C   UNL     1     -11.186  -8.218   7.368  0.00  0.00    +0.000 A 
ATOM      9  H   UNL     1     -12.281  -8.283   9.112  0.00  0.00    +0.000 HD
ATOM     10  H   UNL     1     -10.490  -8.201   5.440  0.00  0.00    +0.000 HD
ENDROOT
TORSDOF 0
ENDMDL
MODEL 5
REMARK VINA RESULT:      -3.4      1.874      2.005
REMARK  Name = 649_Dihydrouracil.pdb
REMARK  0 active torsions:
REMARK  status: ('A' for Active; 'I' for Inactive)
REMARK                            x       y       z     vdW  Elec       q    Type
REMARK                         _______ _______ _______ _____ _____    ______ ____
ROOT
ATOM      1  O   UNL     1      -4.899  -5.308   0.956  0.00  0.00    +0.000 OA
ATOM      2  O   UNL     1      -6.363  -3.714  -3.120  0.00  0.00    +0.000 OA
ATOM      3  N   UNL     1      -6.198  -2.218  -1.390  0.00  0.00    +0.000 N 
ATOM      4  N   UNL     1      -5.636  -4.487  -1.081  0.00  0.00    +0.000 N 
ATOM      5  C   UNL     1      -5.898  -1.958  -0.111  0.00  0.00    +0.000 A 
ATOM      6  C   UNL     1      -5.418  -3.048   0.791  0.00  0.00    +0.000 A 
ATOM      7  C   UNL     1      -5.285  -4.378   0.264  0.00  0.00    +0.000 A 
ATOM      8  C   UNL     1      -6.086  -3.485  -1.948  0.00  0.00    +0.000 A 
ATOM      9  H   UNL     1      -6.521  -1.471  -1.993  0.00  0.00    +0.000 HD
ATOM     10  H   UNL     1      -5.554  -5.409  -1.482  0.00  0.00    +0.000 HD
ENDROOT
TORSDOF 0
ENDMDL
MODEL 6
REMARK VINA RESULT:      -3.4     11.016     12.065
REMARK  Name = 649_Dihydrouracil.pdb
REMARK  0 active torsions:
REMARK  status: ('A' for Active; 'I' for Inactive)
REMARK                            x       y       z     vdW  Elec       q    Type
REMARK                         _______ _______ _______ _____ _____    ______ ____
ROOT
ATOM      1  O   UNL     1     -14.738  -6.272   4.345  0.00  0.00    +0.000 OA
ATOM      2  O   UNL     1     -11.200  -8.337   6.468  0.00  0.00    +0.000 OA
ATOM      3  N   UNL     1     -13.136  -8.050   7.663  0.00  0.00    +0.000 N 
ATOM      4  N   UNL     1     -12.974  -7.311   5.429  0.00  0.00    +0.000 N 
ATOM      5  C   UNL     1     -14.398  -7.607   7.730  0.00  0.00    +0.000 A 
ATOM      6  C   UNL     1     -15.034  -6.951   6.547  0.00  0.00    +0.000 A 
ATOM      7  C   UNL     1     -14.270  -6.801   5.341  0.00  0.00    +0.000 A 
ATOM      8  C   UNL     1     -12.354  -7.930   6.520  0.00  0.00    +0.000 A 
ATOM      9  H   UNL     1     -12.715  -8.493   8.469  0.00  0.00    +0.000 HD
ATOM     10  H   UNL     1     -12.411  -7.221   4.598  0.00  0.00    +0.000 HD
ENDROOT
TORSDOF 0
ENDMDL
MODEL 7
REMARK VINA RESULT:      -3.3     11.276     12.118
REMARK  Name = 649_Dihydrouracil.pdb
REMARK  0 active torsions:
REMARK  status: ('A' for Active; 'I' for Inactive)
REMARK                            x       y       z     vdW  Elec       q    Type
REMARK                         _______ _______ _______ _____ _____    ______ ____
ROOT
ATOM      1  O   UNL     1     -13.311  -7.731   3.831  0.00  0.00    +0.000 OA
ATOM      2  O   UNL     1     -15.790  -6.665   7.574  0.00  0.00    +0.000 OA
ATOM      3  N   UNL     1     -13.810  -7.778   7.891  0.00  0.00    +0.000 N 
ATOM      4  N   UNL     1     -14.540  -7.206   5.723  0.00  0.00    +0.000 N 
ATOM      5  C   UNL     1     -12.708  -8.344   7.383  0.00  0.00    +0.000 A 
ATOM      6  C   UNL     1     -12.474  -8.355   5.907  0.00  0.00    +0.000 A 
ATOM      7  C   UNL     1     -13.449  -7.750   5.044  0.00  0.00    +0.000 A 
ATOM      8  C   UNL     1     -14.784  -7.180   7.100  0.00  0.00    +0.000 A 
ATOM      9  H   UNL     1     -13.959  -7.776   8.892  0.00  0.00    +0.000 HD
ATOM     10  H   UNL     1     -15.244  -6.773   5.145  0.00  0.00    +0.000 HD
ENDROOT
TORSDOF 0
ENDMDL
MODEL 8
REMARK VINA RESULT:      -3.2     15.212     16.020
REMARK  Name = 649_Dihydrouracil.pdb
REMARK  0 active torsions:
REMARK  status: ('A' for Active; 'I' for Inactive)
REMARK                            x       y       z     vdW  Elec       q    Type
REMARK                         _______ _______ _______ _____ _____    ______ ____
ROOT
ATOM      1  O   UNL     1       7.300  -7.843  11.925  0.00  0.00    +0.000 OA
ATOM      2  O   UNL     1       5.459  -7.696   7.696  0.00  0.00    +0.000 OA
ATOM      3  N   UNL     1       5.489  -5.751   8.911  0.00  0.00    +0.000 N 
ATOM      4  N   UNL     1       6.372  -7.747   9.805  0.00  0.00    +0.000 N 
ATOM      5  C   UNL     1       5.804  -5.096  10.035  0.00  0.00    +0.000 A 
ATOM      6  C   UNL     1       6.468  -5.809  11.168  0.00  0.00    +0.000 A 
ATOM      7  C   UNL     1       6.761  -7.209  11.031  0.00  0.00    +0.000 A 
ATOM      8  C   UNL     1       5.751  -7.104   8.728  0.00  0.00    +0.000 A 
ATOM      9  H   UNL     1       5.041  -5.258   8.149  0.00  0.00    +0.000 HD
ATOM     10  H   UNL     1       6.563  -8.729   9.677  0.00  0.00    +0.000 HD
ENDROOT
TORSDOF 0
ENDMDL
MODEL 9
REMARK VINA RESULT:      -3.1      2.464      2.943
REMARK  Name = 649_Dihydrouracil.pdb
REMARK  0 active torsions:
REMARK  status: ('A' for Active; 'I' for Inactive)
REMARK                            x       y       z     vdW  Elec       q    Type
REMARK                         _______ _______ _______ _____ _____    ______ ____
ROOT
ATOM      1  O   UNL     1      -3.818  -2.098  -3.824  0.00  0.00    +0.000 OA
ATOM      2  O   UNL     1      -5.451  -1.182   0.393  0.00  0.00    +0.000 OA
ATOM      3  N   UNL     1      -6.307  -3.004  -0.706  0.00  0.00    +0.000 N 
ATOM      4  N   UNL     1      -4.651  -1.656  -1.708  0.00  0.00    +0.000 N 
ATOM      5  C   UNL     1      -6.336  -3.792  -1.788  0.00  0.00    +0.000 A 
ATOM      6  C   UNL     1      -5.448  -3.509  -2.956  0.00  0.00    +0.000 A 
ATOM      7  C   UNL     1      -4.564  -2.378  -2.899  0.00  0.00    +0.000 A 
ATOM      8  C   UNL     1      -5.471  -1.898  -0.601  0.00  0.00    +0.000 A 
ATOM      9  H   UNL     1      -6.912  -3.205   0.080  0.00  0.00    +0.000 HD
ATOM     10  H   UNL     1      -4.044  -0.855  -1.636  0.00  0.00    +0.000 HD
ENDROOT
TORSDOF 0
ENDMDL
