MODEL 1
REMARK VINA RESULT:      -6.7      0.000      0.000
REMARK  Name = 6509753_ManzamineA.pdbqt.pdb
REMARK  2 active torsions:
REMARK  status: ('A' for Active; 'I' for Inactive)
REMARK    1  A    between atoms: C_7  and  O_42
REMARK    2  A    between atoms: C_11  and  C_30
REMARK                            x       y       z     vdW  Elec       q    Type
REMARK                         _______ _______ _______ _____ _____    ______ ____
ROOT
ATOM      1  N   UNL     1     -12.557   8.677   4.242  0.00  0.00    +0.000 N 
ATOM      2  N   UNL     1     -10.832   4.767   1.676  0.00  0.00    +0.000 N 
ATOM      3  C   UNL     1     -10.784   7.235   3.153  0.00  0.00    +0.000 C 
ATOM      4  C   UNL     1     -11.716   8.485   3.033  0.00  0.00    +0.000 C 
ATOM      5  C   UNL     1      -9.232   7.404   2.881  0.00  0.00    +0.000 C 
ATOM      6  C   UNL     1     -11.038   6.975   4.567  0.00  0.00    +0.000 C 
ATOM      7  C   UNL     1     -11.191   9.736   2.325  0.00  0.00    +0.000 C 
ATOM      8  C   UNL     1     -11.232   6.053   2.336  0.00  0.00    +0.000 C 
ATOM      9  C   UNL     1     -12.150   7.595   5.167  0.00  0.00    +0.000 C 
ATOM     10  C   UNL     1      -8.621   6.219   2.333  0.00  0.00    +0.000 C 
ATOM     11  C   UNL     1      -8.768   8.713   2.443  0.00  0.00    +0.000 C 
ATOM     12  C   UNL     1      -9.760   9.523   2.248  0.00  0.00    +0.000 C 
ATOM     13  C   UNL     1      -9.387   5.031   1.743  0.00  0.00    +0.000 C 
ATOM     14  C   UNL     1     -13.987   8.654   3.927  0.00  0.00    +0.000 C 
ATOM     15  C   UNL     1     -11.848   9.904   1.032  0.00  0.00    +0.000 C 
ATOM     16  C   UNL     1     -13.089   6.959   6.031  0.00  0.00    +0.000 C 
ATOM     17  C   UNL     1     -11.245   4.836   0.284  0.00  0.00    +0.000 C 
ATOM     18  C   UNL     1     -15.483   8.322   4.087  0.00  0.00    +0.000 C 
ATOM     19  C   UNL     1     -12.464   9.915  -0.369  0.00  0.00    +0.000 C 
ATOM     20  C   UNL     1     -14.165   6.601   6.428  0.00  0.00    +0.000 C 
ATOM     21  C   UNL     1     -16.304   7.477   5.059  0.00  0.00    +0.000 C 
ATOM     22  C   UNL     1     -11.758   5.072  -1.139  0.00  0.00    +0.000 C 
ATOM     23  C   UNL     1     -15.675   6.667   6.186  0.00  0.00    +0.000 C 
ATOM     24  C   UNL     1     -12.922   9.442  -1.746  0.00  0.00    +0.000 C 
ATOM     25  C   UNL     1     -12.344   5.799  -2.346  0.00  0.00    +0.000 C 
ATOM     26  C   UNL     1     -12.855   7.103  -2.934  0.00  0.00    +0.000 C 
ATOM     27  C   UNL     1     -13.038   8.561  -2.548  0.00  0.00    +0.000 C 
ENDROOT
BRANCH  11  30
ATOM     28  N   UNL     1      -7.051   9.058   0.765  0.00  0.00    +0.000 NA
ATOM     29  N   UNL     1      -6.556   9.496   4.406  0.00  0.00    +0.000 N 
ATOM     30  C   UNL     1      -7.405   9.066   2.070  0.00  0.00    +0.000 A 
ATOM     31  C   UNL     1      -6.459   9.399   3.036  0.00  0.00    +0.000 A 
ATOM     32  C   UNL     1      -5.146   9.725   2.695  0.00  0.00    +0.000 A 
ATOM     33  C   UNL     1      -5.777   9.375   0.443  0.00  0.00    +0.000 A 
ATOM     34  C   UNL     1      -4.775   9.713   1.341  0.00  0.00    +0.000 A 
ATOM     35  C   UNL     1      -4.446  10.014   3.907  0.00  0.00    +0.000 A 
ATOM     36  C   UNL     1      -5.351   9.863   4.956  0.00  0.00    +0.000 A 
ATOM     37  C   UNL     1      -3.124  10.393   4.203  0.00  0.00    +0.000 A 
ATOM     38  C   UNL     1      -5.006  10.073   6.295  0.00  0.00    +0.000 A 
ATOM     39  C   UNL     1      -2.760  10.607   5.535  0.00  0.00    +0.000 A 
ATOM     40  C   UNL     1      -3.687  10.449   6.559  0.00  0.00    +0.000 A 
ATOM     41  H   UNL     1      -7.399   9.331   4.938  0.00  0.00    +0.000 HD
ENDBRANCH  11  30
BRANCH   7  42
ATOM     42  O   UNL     1     -11.416  10.896   3.113  0.00  0.00    +0.000 OA
ATOM     43  H   UNL     1     -12.184  10.695   3.673  0.00  0.00    +0.000 HD
ENDBRANCH   7  42
TORSDOF 2
ENDMDL
MODEL 2
REMARK VINA RESULT:      -6.6     30.217     32.424
REMARK  Name = 6509753_ManzamineA.pdbqt.pdb
REMARK  2 active torsions:
REMARK  status: ('A' for Active; 'I' for Inactive)
REMARK    1  A    between atoms: C_7  and  O_42
REMARK    2  A    between atoms: C_11  and  C_30
REMARK                            x       y       z     vdW  Elec       q    Type
REMARK                         _______ _______ _______ _____ _____    ______ ____
ROOT
ATOM      1  N   UNL     1       3.270 -18.909   5.320  0.00  0.00    +0.000 N 
ATOM      2  N   UNL     1       6.099 -22.982   4.818  0.00  0.00    +0.000 N 
ATOM      3  C   UNL     1       5.372 -20.300   5.559  0.00  0.00    +0.000 C 
ATOM      4  C   UNL     1       4.602 -19.214   4.738  0.00  0.00    +0.000 C 
ATOM      5  C   UNL     1       6.852 -19.997   6.037  0.00  0.00    +0.000 C 
ATOM      6  C   UNL     1       4.455 -20.328   6.695  0.00  0.00    +0.000 C 
ATOM      7  C   UNL     1       5.390 -18.058   4.116  0.00  0.00    +0.000 C 
ATOM      8  C   UNL     1       5.405 -21.655   4.907  0.00  0.00    +0.000 C 
ATOM      9  C   UNL     1       3.183 -19.747   6.536  0.00  0.00    +0.000 C 
ATOM     10  C   UNL     1       7.673 -21.179   6.123  0.00  0.00    +0.000 C 
ATOM     11  C   UNL     1       7.452 -18.743   5.603  0.00  0.00    +0.000 C 
ATOM     12  C   UNL     1       6.674 -18.107   4.785  0.00  0.00    +0.000 C 
ATOM     13  C   UNL     1       7.317 -22.538   5.512  0.00  0.00    +0.000 C 
ATOM     14  C   UNL     1       2.184 -19.161   4.370  0.00  0.00    +0.000 C 
ATOM     15  C   UNL     1       5.457 -18.209   2.665  0.00  0.00    +0.000 C 
ATOM     16  C   UNL     1       1.949 -20.325   6.958  0.00  0.00    +0.000 C 
ATOM     17  C   UNL     1       6.429 -23.218   3.423  0.00  0.00    +0.000 C 
ATOM     18  C   UNL     1       0.811 -19.637   3.859  0.00  0.00    +0.000 C 
ATOM     19  C   UNL     1       5.614 -18.526   1.177  0.00  0.00    +0.000 C 
ATOM     20  C   UNL     1       0.823 -20.733   6.856  0.00  0.00    +0.000 C 
ATOM     21  C   UNL     1      -0.371 -20.385   4.475  0.00  0.00    +0.000 C 
ATOM     22  C   UNL     1       6.684 -23.308   1.915  0.00  0.00    +0.000 C 
ATOM     23  C   UNL     1      -0.370 -20.894   5.911  0.00  0.00    +0.000 C 
ATOM     24  C   UNL     1       5.906 -19.294  -0.110  0.00  0.00    +0.000 C 
ATOM     25  C   UNL     1       6.760 -22.889   0.450  0.00  0.00    +0.000 C 
ATOM     26  C   UNL     1       6.588 -21.784  -0.579  0.00  0.00    +0.000 C 
ATOM     27  C   UNL     1       6.215 -20.313  -0.656  0.00  0.00    +0.000 C 
ENDROOT
BRANCH  11  30
ATOM     28  N   UNL     1       9.636 -18.031   4.824  0.00  0.00    +0.000 NA
ATOM     29  N   UNL     1       8.674 -18.360   8.381  0.00  0.00    +0.000 N 
ATOM     30  C   UNL     1       8.815 -18.301   5.863  0.00  0.00    +0.000 A 
ATOM     31  C   UNL     1       9.290 -18.167   7.166  0.00  0.00    +0.000 A 
ATOM     32  C   UNL     1      10.598 -17.760   7.431  0.00  0.00    +0.000 A 
ATOM     33  C   UNL     1      10.901 -17.637   5.088  0.00  0.00    +0.000 A 
ATOM     34  C   UNL     1      11.452 -17.482   6.352  0.00  0.00    +0.000 A 
ATOM     35  C   UNL     1      10.757 -17.722   8.850  0.00  0.00    +0.000 A 
ATOM     36  C   UNL     1       9.542 -18.101   9.416  0.00  0.00    +0.000 A 
ATOM     37  C   UNL     1      11.828 -17.396   9.704  0.00  0.00    +0.000 A 
ATOM     38  C   UNL     1       9.334 -18.172  10.796  0.00  0.00    +0.000 A 
ATOM     39  C   UNL     1      11.640 -17.462  11.087  0.00  0.00    +0.000 A 
ATOM     40  C   UNL     1      10.413 -17.843  11.619  0.00  0.00    +0.000 A 
ATOM     41  H   UNL     1       7.712 -18.645   8.502  0.00  0.00    +0.000 HD
ENDBRANCH  11  30
BRANCH   7  42
ATOM     42  O   UNL     1       4.786 -16.811   4.425  0.00  0.00    +0.000 OA
ATOM     43  H   UNL     1       4.001 -16.743   3.856  0.00  0.00    +0.000 HD
ENDBRANCH   7  42
TORSDOF 2
ENDMDL
MODEL 3
REMARK VINA RESULT:      -6.4     30.274     32.563
REMARK  Name = 6509753_ManzamineA.pdbqt.pdb
REMARK  2 active torsions:
REMARK  status: ('A' for Active; 'I' for Inactive)
REMARK    1  A    between atoms: C_7  and  O_42
REMARK    2  A    between atoms: C_11  and  C_30
REMARK                            x       y       z     vdW  Elec       q    Type
REMARK                         _______ _______ _______ _____ _____    ______ ____
ROOT
ATOM      1  N   UNL     1       3.197 -18.882   5.271  0.00  0.00    +0.000 N 
ATOM      2  N   UNL     1       6.000 -23.004   5.319  0.00  0.00    +0.000 N 
ATOM      3  C   UNL     1       5.259 -20.262   5.776  0.00  0.00    +0.000 C 
ATOM      4  C   UNL     1       4.563 -19.246   4.813  0.00  0.00    +0.000 C 
ATOM      5  C   UNL     1       6.706 -19.930   6.329  0.00  0.00    +0.000 C 
ATOM      6  C   UNL     1       4.265 -20.186   6.842  0.00  0.00    +0.000 C 
ATOM      7  C   UNL     1       5.407 -18.153   4.152  0.00  0.00    +0.000 C 
ATOM      8  C   UNL     1       5.319 -21.669   5.245  0.00  0.00    +0.000 C 
ATOM      9  C   UNL     1       3.014 -19.612   6.545  0.00  0.00    +0.000 C 
ATOM     10  C   UNL     1       7.503 -21.106   6.573  0.00  0.00    +0.000 C 
ATOM     11  C   UNL     1       7.351 -18.722   5.834  0.00  0.00    +0.000 C 
ATOM     12  C   UNL     1       6.640 -18.154   4.911  0.00  0.00    +0.000 C 
ATOM     13  C   UNL     1       7.173 -22.510   6.057  0.00  0.00    +0.000 C 
ATOM     14  C   UNL     1       2.177 -19.207   4.272  0.00  0.00    +0.000 C 
ATOM     15  C   UNL     1       5.572 -18.428   2.728  0.00  0.00    +0.000 C 
ATOM     16  C   UNL     1       1.746 -20.143   6.927  0.00  0.00    +0.000 C 
ATOM     17  C   UNL     1       6.423 -23.361   3.975  0.00  0.00    +0.000 C 
ATOM     18  C   UNL     1       0.836 -19.715   3.708  0.00  0.00    +0.000 C 
ATOM     19  C   UNL     1       5.829 -18.874   1.286  0.00  0.00    +0.000 C 
ATOM     20  C   UNL     1       0.625 -20.549   6.781  0.00  0.00    +0.000 C 
ATOM     21  C   UNL     1      -0.395 -20.398   4.300  0.00  0.00    +0.000 C 
ATOM     22  C   UNL     1       6.781 -23.581   2.503  0.00  0.00    +0.000 C 
ATOM     23  C   UNL     1      -0.501 -20.782   5.771  0.00  0.00    +0.000 C 
ATOM     24  C   UNL     1       6.199 -19.751   0.093  0.00  0.00    +0.000 C 
ATOM     25  C   UNL     1       6.965 -23.290   1.016  0.00  0.00    +0.000 C 
ATOM     26  C   UNL     1       6.879 -22.277  -0.113  0.00  0.00    +0.000 C 
ATOM     27  C   UNL     1       6.533 -20.816  -0.341  0.00  0.00    +0.000 C 
ENDROOT
BRANCH  11  30
ATOM     28  N   UNL     1       9.010 -17.951   7.427  0.00  0.00    +0.000 NA
ATOM     29  N   UNL     1       9.621 -18.414   3.807  0.00  0.00    +0.000 N 
ATOM     30  C   UNL     1       8.698 -18.270   6.151  0.00  0.00    +0.000 A 
ATOM     31  C   UNL     1       9.667 -18.149   5.157  0.00  0.00    +0.000 A 
ATOM     32  C   UNL     1      10.958 -17.702   5.442  0.00  0.00    +0.000 A 
ATOM     33  C   UNL     1      10.261 -17.519   7.695  0.00  0.00    +0.000 A 
ATOM     34  C   UNL     1      11.281 -17.367   6.766  0.00  0.00    +0.000 A 
ATOM     35  C   UNL     1      11.692 -17.697   4.216  0.00  0.00    +0.000 A 
ATOM     36  C   UNL     1      10.832 -18.146   3.215  0.00  0.00    +0.000 A 
ATOM     37  C   UNL     1      13.012 -17.353   3.870  0.00  0.00    +0.000 A 
ATOM     38  C   UNL     1      11.222 -18.272   1.878  0.00  0.00    +0.000 A 
ATOM     39  C   UNL     1      13.419 -17.472   2.539  0.00  0.00    +0.000 A 
ATOM     40  C   UNL     1      12.537 -17.924   1.564  0.00  0.00    +0.000 A 
ATOM     41  H   UNL     1       8.812 -18.769   3.315  0.00  0.00    +0.000 HD
ENDBRANCH  11  30
BRANCH   7  42
ATOM     42  O   UNL     1       4.800 -16.879   4.310  0.00  0.00    +0.000 OA
ATOM     43  H   UNL     1       4.621 -16.783   5.261  0.00  0.00    +0.000 HD
ENDBRANCH   7  42
TORSDOF 2
ENDMDL
MODEL 4
REMARK VINA RESULT:      -6.4     21.248     24.678
REMARK  Name = 6509753_ManzamineA.pdbqt.pdb
REMARK  2 active torsions:
REMARK  status: ('A' for Active; 'I' for Inactive)
REMARK    1  A    between atoms: C_7  and  O_42
REMARK    2  A    between atoms: C_11  and  C_30
REMARK                            x       y       z     vdW  Elec       q    Type
REMARK                         _______ _______ _______ _____ _____    ______ ____
ROOT
ATOM      1  N   UNL     1     -21.164  -1.598  19.011  0.00  0.00    +0.000 N 
ATOM      2  N   UNL     1     -24.329  -1.064  22.824  0.00  0.00    +0.000 N 
ATOM      3  C   UNL     1     -21.882  -0.865  21.326  0.00  0.00    +0.000 C 
ATOM      4  C   UNL     1     -21.158  -1.943  20.455  0.00  0.00    +0.000 C 
ATOM      5  C   UNL     1     -21.128  -0.254  22.578  0.00  0.00    +0.000 C 
ATOM      6  C   UNL     1     -22.025   0.131  20.268  0.00  0.00    +0.000 C 
ATOM      7  C   UNL     1     -19.913  -2.636  21.017  0.00  0.00    +0.000 C 
ATOM      8  C   UNL     1     -23.244  -1.281  21.811  0.00  0.00    +0.000 C 
ATOM      9  C   UNL     1     -21.841  -0.284  18.935  0.00  0.00    +0.000 C 
ATOM     10  C   UNL     1     -22.019   0.127  23.645  0.00  0.00    +0.000 C 
ATOM     11  C   UNL     1     -19.818  -0.801  22.903  0.00  0.00    +0.000 C 
ATOM     12  C   UNL     1     -19.525  -1.806  22.139  0.00  0.00    +0.000 C 
ATOM     13  C   UNL     1     -23.486  -0.298  23.754  0.00  0.00    +0.000 C 
ATOM     14  C   UNL     1     -21.818  -2.628  18.201  0.00  0.00    +0.000 C 
ATOM     15  C   UNL     1     -20.212  -4.022  21.363  0.00  0.00    +0.000 C 
ATOM     16  C   UNL     1     -22.682   0.061  17.835  0.00  0.00    +0.000 C 
ATOM     17  C   UNL     1     -24.631  -2.348  23.434  0.00  0.00    +0.000 C 
ATOM     18  C   UNL     1     -22.711  -3.230  17.100  0.00  0.00    +0.000 C 
ATOM     19  C   UNL     1     -20.650  -5.407  21.845  0.00  0.00    +0.000 C 
ATOM     20  C   UNL     1     -23.393  -0.120  16.884  0.00  0.00    +0.000 C 
ATOM     21  C   UNL     1     -23.676  -2.662  16.061  0.00  0.00    +0.000 C 
ATOM     22  C   UNL     1     -24.827  -3.775  23.953  0.00  0.00    +0.000 C 
ATOM     23  C   UNL     1     -23.989  -1.174  15.949  0.00  0.00    +0.000 C 
ATOM     24  C   UNL     1     -21.456  -6.504  22.535  0.00  0.00    +0.000 C 
ATOM     25  C   UNL     1     -24.582  -5.266  24.168  0.00  0.00    +0.000 C 
ATOM     26  C   UNL     1     -23.700  -6.473  23.896  0.00  0.00    +0.000 C 
ATOM     27  C   UNL     1     -22.409  -6.834  23.181  0.00  0.00    +0.000 C 
ENDROOT
BRANCH  11  30
ATOM     28  N   UNL     1     -19.283  -0.946  25.265  0.00  0.00    +0.000 NA
ATOM     29  N   UNL     1     -17.395   1.063  22.796  0.00  0.00    +0.000 N 
ATOM     30  C   UNL     1     -18.991  -0.440  24.045  0.00  0.00    +0.000 A 
ATOM     31  C   UNL     1     -17.911   0.428  23.903  0.00  0.00    +0.000 A 
ATOM     32  C   UNL     1     -17.117   0.796  24.991  0.00  0.00    +0.000 A 
ATOM     33  C   UNL     1     -18.510  -0.585  26.313  0.00  0.00    +0.000 A 
ATOM     34  C   UNL     1     -17.422   0.274  26.258  0.00  0.00    +0.000 A 
ATOM     35  C   UNL     1     -16.108   1.684  24.506  0.00  0.00    +0.000 A 
ATOM     36  C   UNL     1     -16.307   1.831  23.135  0.00  0.00    +0.000 A 
ATOM     37  C   UNL     1     -15.041   2.372  25.113  0.00  0.00    +0.000 A 
ATOM     38  C   UNL     1     -15.493   2.633  22.329  0.00  0.00    +0.000 A 
ATOM     39  C   UNL     1     -14.217   3.179  24.325  0.00  0.00    +0.000 A 
ATOM     40  C   UNL     1     -14.442   3.304  22.958  0.00  0.00    +0.000 A 
ATOM     41  H   UNL     1     -17.759   0.972  21.857  0.00  0.00    +0.000 HD
ENDBRANCH  11  30
BRANCH   7  42
ATOM     42  O   UNL     1     -18.852  -2.613  20.073  0.00  0.00    +0.000 OA
ATOM     43  H   UNL     1     -18.110  -2.165  20.513  0.00  0.00    +0.000 HD
ENDBRANCH   7  42
TORSDOF 2
ENDMDL
MODEL 5
REMARK VINA RESULT:      -6.4     27.031     29.330
REMARK  Name = 6509753_ManzamineA.pdbqt.pdb
REMARK  2 active torsions:
REMARK  status: ('A' for Active; 'I' for Inactive)
REMARK    1  A    between atoms: C_7  and  O_42
REMARK    2  A    between atoms: C_11  and  C_30
REMARK                            x       y       z     vdW  Elec       q    Type
REMARK                         _______ _______ _______ _____ _____    ______ ____
ROOT
ATOM      1  N   UNL     1       2.707 -11.724  20.485  0.00  0.00    +0.000 N 
ATOM      2  N   UNL     1       3.274 -16.536  19.317  0.00  0.00    +0.000 N 
ATOM      3  C   UNL     1       3.347 -13.678  19.007  0.00  0.00    +0.000 C 
ATOM      4  C   UNL     1       2.267 -12.609  19.376  0.00  0.00    +0.000 C 
ATOM      5  C   UNL     1       3.802 -13.821  17.496  0.00  0.00    +0.000 C 
ATOM      6  C   UNL     1       4.420 -13.115  19.822  0.00  0.00    +0.000 C 
ATOM      7  C   UNL     1       1.428 -11.986  18.258  0.00  0.00    +0.000 C 
ATOM      8  C   UNL     1       3.026 -15.067  19.488  0.00  0.00    +0.000 C 
ATOM      9  C   UNL     1       4.080 -12.173  20.810  0.00  0.00    +0.000 C 
ATOM     10  C   UNL     1       4.191 -15.164  17.147  0.00  0.00    +0.000 C 
ATOM     11  C   UNL     1       3.116 -12.999  16.510  0.00  0.00    +0.000 C 
ATOM     12  C   UNL     1       2.142 -12.334  17.047  0.00  0.00    +0.000 C 
ATOM     13  C   UNL     1       3.897 -16.409  17.990  0.00  0.00    +0.000 C 
ATOM     14  C   UNL     1       1.797 -11.784  21.632  0.00  0.00    +0.000 C 
ATOM     15  C   UNL     1       0.055 -12.479  18.314  0.00  0.00    +0.000 C 
ATOM     16  C   UNL     1       4.572 -12.160  22.149  0.00  0.00    +0.000 C 
ATOM     17  C   UNL     1       1.985 -17.188  19.156  0.00  0.00    +0.000 C 
ATOM     18  C   UNL     1       1.354 -11.842  23.106  0.00  0.00    +0.000 C 
ATOM     19  C   UNL     1      -1.313 -13.164  18.347  0.00  0.00    +0.000 C 
ATOM     20  C   UNL     1       4.521 -12.151  23.350  0.00  0.00    +0.000 C 
ATOM     21  C   UNL     1       2.076 -11.957  24.447  0.00  0.00    +0.000 C 
ATOM     22  C   UNL     1       0.551 -17.706  19.017  0.00  0.00    +0.000 C 
ATOM     23  C   UNL     1       3.591 -12.089  24.563  0.00  0.00    +0.000 C 
ATOM     24  C   UNL     1      -2.375 -14.259  18.406  0.00  0.00    +0.000 C 
ATOM     25  C   UNL     1      -0.967 -17.691  18.862  0.00  0.00    +0.000 C 
ATOM     26  C   UNL     1      -2.229 -16.865  18.677  0.00  0.00    +0.000 C 
ATOM     27  C   UNL     1      -2.659 -15.418  18.505  0.00  0.00    +0.000 C 
ENDROOT
BRANCH  11  30
ATOM     28  N   UNL     1       2.966 -14.123  14.366  0.00  0.00    +0.000 NA
ATOM     29  N   UNL     1       4.331 -10.720  14.869  0.00  0.00    +0.000 N 
ATOM     30  C   UNL     1       3.323 -13.025  15.069  0.00  0.00    +0.000 A 
ATOM     31  C   UNL     1       3.896 -11.942  14.406  0.00  0.00    +0.000 A 
ATOM     32  C   UNL     1       4.115 -11.958  13.028  0.00  0.00    +0.000 A 
ATOM     33  C   UNL     1       3.181 -14.131  13.032  0.00  0.00    +0.000 A 
ATOM     34  C   UNL     1       3.747 -13.099  12.297  0.00  0.00    +0.000 A 
ATOM     35  C   UNL     1       4.706 -10.707  12.672  0.00  0.00    +0.000 A 
ATOM     36  C   UNL     1       4.828  -9.957  13.840  0.00  0.00    +0.000 A 
ATOM     37  C   UNL     1       5.146 -10.145  11.459  0.00  0.00    +0.000 A 
ATOM     38  C   UNL     1       5.367  -8.667  13.863  0.00  0.00    +0.000 A 
ATOM     39  C   UNL     1       5.689  -8.858  11.462  0.00  0.00    +0.000 A 
ATOM     40  C   UNL     1       5.795  -8.136  12.645  0.00  0.00    +0.000 A 
ATOM     41  H   UNL     1       4.283 -10.418  15.832  0.00  0.00    +0.000 HD
ENDBRANCH  11  30
BRANCH   7  42
ATOM     42  O   UNL     1       1.416 -10.569  18.363  0.00  0.00    +0.000 OA
ATOM     43  H   UNL     1       2.093 -10.344  19.024  0.00  0.00    +0.000 HD
ENDBRANCH   7  42
TORSDOF 2
ENDMDL
MODEL 6
REMARK VINA RESULT:      -6.2     23.611     26.598
REMARK  Name = 6509753_ManzamineA.pdbqt.pdb
REMARK  2 active torsions:
REMARK  status: ('A' for Active; 'I' for Inactive)
REMARK    1  A    between atoms: C_7  and  O_42
REMARK    2  A    between atoms: C_11  and  C_30
REMARK                            x       y       z     vdW  Elec       q    Type
REMARK                         _______ _______ _______ _____ _____    ______ ____
ROOT
ATOM      1  N   UNL     1      -9.893 -19.368   9.240  0.00  0.00    +0.000 N 
ATOM      2  N   UNL     1     -13.228 -19.316   5.535  0.00  0.00    +0.000 N 
ATOM      3  C   UNL     1     -10.784 -18.763   6.948  0.00  0.00    +0.000 C 
ATOM      4  C   UNL     1     -10.571 -18.321   8.432  0.00  0.00    +0.000 C 
ATOM      5  C   UNL     1     -10.289 -17.811   5.783  0.00  0.00    +0.000 C 
ATOM      6  C   UNL     1      -9.965 -19.970   7.017  0.00  0.00    +0.000 C 
ATOM      7  C   UNL     1     -10.227 -16.859   8.729  0.00  0.00    +0.000 C 
ATOM      8  C   UNL     1     -12.203 -19.139   6.616  0.00  0.00    +0.000 C 
ATOM      9  C   UNL     1      -9.619 -20.467   8.287  0.00  0.00    +0.000 C 
ATOM     10  C   UNL     1     -11.092 -17.909   4.590  0.00  0.00    +0.000 C 
ATOM     11  C   UNL     1      -9.734 -16.519   6.164  0.00  0.00    +0.000 C 
ATOM     12  C   UNL     1      -9.836 -16.322   7.441  0.00  0.00    +0.000 C 
ATOM     13  C   UNL     1     -12.469 -18.576   4.515  0.00  0.00    +0.000 C 
ATOM     14  C   UNL     1     -10.702 -19.790  10.386  0.00  0.00    +0.000 C 
ATOM     15  C   UNL     1     -11.362 -16.183   9.348  0.00  0.00    +0.000 C 
ATOM     16  C   UNL     1      -9.682 -21.835   8.688  0.00  0.00    +0.000 C 
ATOM     17  C   UNL     1     -14.395 -18.529   5.897  0.00  0.00    +0.000 C 
ATOM     18  C   UNL     1     -11.347 -20.744  11.409  0.00  0.00    +0.000 C 
ATOM     19  C   UNL     1     -12.646 -15.513   9.842  0.00  0.00    +0.000 C 
ATOM     20  C   UNL     1      -9.998 -22.782   9.357  0.00  0.00    +0.000 C 
ATOM     21  C   UNL     1     -11.394 -22.259  11.592  0.00  0.00    +0.000 C 
ATOM     22  C   UNL     1     -15.535 -17.662   6.438  0.00  0.00    +0.000 C 
ATOM     23  C   UNL     1     -10.736 -23.231  10.620  0.00  0.00    +0.000 C 
ATOM     24  C   UNL     1     -14.110 -15.087   9.924  0.00  0.00    +0.000 C 
ATOM     25  C   UNL     1     -16.280 -16.670   7.326  0.00  0.00    +0.000 C 
ATOM     26  C   UNL     1     -16.224 -15.702   8.496  0.00  0.00    +0.000 C 
ATOM     27  C   UNL     1     -15.227 -15.144   9.498  0.00  0.00    +0.000 C 
ENDROOT
BRANCH  11  30
ATOM     28  N   UNL     1      -9.943 -14.284   5.246  0.00  0.00    +0.000 NA
ATOM     29  N   UNL     1      -7.382 -16.751   4.222  0.00  0.00    +0.000 N 
ATOM     30  C   UNL     1      -9.291 -15.468   5.260  0.00  0.00    +0.000 A 
ATOM     31  C   UNL     1      -8.214 -15.669   4.400  0.00  0.00    +0.000 A 
ATOM     32  C   UNL     1      -7.786 -14.676   3.516  0.00  0.00    +0.000 A 
ATOM     33  C   UNL     1      -9.524 -13.328   4.388  0.00  0.00    +0.000 A 
ATOM     34  C   UNL     1      -8.465 -13.448   3.498  0.00  0.00    +0.000 A 
ATOM     35  C   UNL     1      -6.672 -15.199   2.789  0.00  0.00    +0.000 A 
ATOM     36  C   UNL     1      -6.444 -16.493   3.251  0.00  0.00    +0.000 A 
ATOM     37  C   UNL     1      -5.837 -14.683   1.782  0.00  0.00    +0.000 A 
ATOM     38  C   UNL     1      -5.419 -17.307   2.760  0.00  0.00    +0.000 A 
ATOM     39  C   UNL     1      -4.807 -15.481   1.277  0.00  0.00    +0.000 A 
ATOM     40  C   UNL     1      -4.605 -16.769   1.761  0.00  0.00    +0.000 A 
ATOM     41  H   UNL     1      -7.443 -17.617   4.740  0.00  0.00    +0.000 HD
ENDBRANCH  11  30
BRANCH   7  42
ATOM     42  O   UNL     1      -9.105 -16.769   9.595  0.00  0.00    +0.000 OA
ATOM     43  H   UNL     1      -9.407 -16.273  10.375  0.00  0.00    +0.000 HD
ENDBRANCH   7  42
TORSDOF 2
ENDMDL
MODEL 7
REMARK VINA RESULT:      -6.1     27.746     31.645
REMARK  Name = 6509753_ManzamineA.pdbqt.pdb
REMARK  2 active torsions:
REMARK  status: ('A' for Active; 'I' for Inactive)
REMARK    1  A    between atoms: C_7  and  O_42
REMARK    2  A    between atoms: C_11  and  C_30
REMARK                            x       y       z     vdW  Elec       q    Type
REMARK                         _______ _______ _______ _____ _____    ______ ____
ROOT
ATOM      1  N   UNL     1     -15.899  -4.408  30.670  0.00  0.00    +0.000 N 
ATOM      2  N   UNL     1     -14.426  -8.460  33.171  0.00  0.00    +0.000 N 
ATOM      3  C   UNL     1     -14.423  -6.407  31.158  0.00  0.00    +0.000 C 
ATOM      4  C   UNL     1     -15.613  -5.825  30.327  0.00  0.00    +0.000 C 
ATOM      5  C   UNL     1     -13.225  -7.111  30.396  0.00  0.00    +0.000 C 
ATOM      6  C   UNL     1     -13.994  -5.139  31.740  0.00  0.00    +0.000 C 
ATOM      7  C   UNL     1     -15.776  -6.251  28.866  0.00  0.00    +0.000 C 
ATOM      8  C   UNL     1     -14.841  -7.347  32.255  0.00  0.00    +0.000 C 
ATOM      9  C   UNL     1     -14.879  -4.046  31.679  0.00  0.00    +0.000 C 
ATOM     10  C   UNL     1     -12.607  -8.163  31.163  0.00  0.00    +0.000 C 
ATOM     11  C   UNL     1     -13.344  -7.258  28.952  0.00  0.00    +0.000 C 
ATOM     12  C   UNL     1     -14.503  -6.857  28.532  0.00  0.00    +0.000 C 
ATOM     13  C   UNL     1     -13.207  -8.798  32.422  0.00  0.00    +0.000 C 
ATOM     14  C   UNL     1     -17.271  -4.224  31.149  0.00  0.00    +0.000 C 
ATOM     15  C   UNL     1     -16.926  -7.138  28.718  0.00  0.00    +0.000 C 
ATOM     16  C   UNL     1     -15.175  -3.157  32.755  0.00  0.00    +0.000 C 
ATOM     17  C   UNL     1     -15.378  -9.547  33.009  0.00  0.00    +0.000 C 
ATOM     18  C   UNL     1     -18.423  -3.688  32.020  0.00  0.00    +0.000 C 
ATOM     19  C   UNL     1     -18.044  -8.182  28.679  0.00  0.00    +0.000 C 
ATOM     20  C   UNL     1     -15.856  -2.555  33.541  0.00  0.00    +0.000 C 
ATOM     21  C   UNL     1     -18.517  -2.805  33.263  0.00  0.00    +0.000 C 
ATOM     22  C   UNL     1     -16.474 -10.577  32.723  0.00  0.00    +0.000 C 
ATOM     23  C   UNL     1     -17.290  -2.252  33.980  0.00  0.00    +0.000 C 
ATOM     24  C   UNL     1     -18.887  -9.405  29.032  0.00  0.00    +0.000 C 
ATOM     25  C   UNL     1     -17.674 -11.240  32.053  0.00  0.00    +0.000 C 
ATOM     26  C   UNL     1     -18.705 -11.200  30.937  0.00  0.00    +0.000 C 
ATOM     27  C   UNL     1     -19.088 -10.352  29.737  0.00  0.00    +0.000 C 
ENDROOT
BRANCH  11  30
ATOM     28  N   UNL     1     -12.603  -9.234  27.757  0.00  0.00    +0.000 NA
ATOM     29  N   UNL     1     -10.865  -5.967  27.708  0.00  0.00    +0.000 N 
ATOM     30  C   UNL     1     -12.402  -7.934  28.072  0.00  0.00    +0.000 A 
ATOM     31  C   UNL     1     -11.292  -7.267  27.560  0.00  0.00    +0.000 A 
ATOM     32  C   UNL     1     -10.372  -7.907  26.728  0.00  0.00    +0.000 A 
ATOM     33  C   UNL     1     -11.708  -9.846  26.950  0.00  0.00    +0.000 A 
ATOM     34  C   UNL     1     -10.577  -9.257  26.403  0.00  0.00    +0.000 A 
ATOM     35  C   UNL     1      -9.367  -6.951  26.383  0.00  0.00    +0.000 A 
ATOM     36  C   UNL     1      -9.702  -5.751  27.008  0.00  0.00    +0.000 A 
ATOM     37  C   UNL     1      -8.205  -6.999  25.592  0.00  0.00    +0.000 A 
ATOM     38  C   UNL     1      -8.935  -4.589  26.885  0.00  0.00    +0.000 A 
ATOM     39  C   UNL     1      -7.425  -5.848  25.457  0.00  0.00    +0.000 A 
ATOM     40  C   UNL     1      -7.788  -4.667  26.094  0.00  0.00    +0.000 A 
ATOM     41  H   UNL     1     -11.345  -5.260  28.248  0.00  0.00    +0.000 HD
ENDBRANCH  11  30
BRANCH   7  42
ATOM     42  O   UNL     1     -15.952  -5.120  28.026  0.00  0.00    +0.000 OA
ATOM     43  H   UNL     1     -16.912  -5.004  27.929  0.00  0.00    +0.000 HD
ENDBRANCH   7  42
TORSDOF 2
ENDMDL
MODEL 8
REMARK VINA RESULT:      -6.1     23.607     27.358
REMARK  Name = 6509753_ManzamineA.pdbqt.pdb
REMARK  2 active torsions:
REMARK  status: ('A' for Active; 'I' for Inactive)
REMARK    1  A    between atoms: C_7  and  O_42
REMARK    2  A    between atoms: C_11  and  C_30
REMARK                            x       y       z     vdW  Elec       q    Type
REMARK                         _______ _______ _______ _____ _____    ______ ____
ROOT
ATOM      1  N   UNL     1      -9.620 -17.549   7.124  0.00  0.00    +0.000 N 
ATOM      2  N   UNL     1     -13.637 -20.311   8.162  0.00  0.00    +0.000 N 
ATOM      3  C   UNL     1     -12.087 -18.118   7.132  0.00  0.00    +0.000 C 
ATOM      4  C   UNL     1     -10.921 -17.321   7.803  0.00  0.00    +0.000 C 
ATOM      5  C   UNL     1     -13.404 -17.345   6.708  0.00  0.00    +0.000 C 
ATOM      6  C   UNL     1     -11.336 -18.549   5.956  0.00  0.00    +0.000 C 
ATOM      7  C   UNL     1     -11.202 -15.921   8.355  0.00  0.00    +0.000 C 
ATOM      8  C   UNL     1     -12.535 -19.326   7.911  0.00  0.00    +0.000 C 
ATOM      9  C   UNL     1      -9.932 -18.447   5.990  0.00  0.00    +0.000 C 
ATOM     10  C   UNL     1     -14.588 -18.163   6.779  0.00  0.00    +0.000 C 
ATOM     11  C   UNL     1     -13.490 -15.933   7.052  0.00  0.00    +0.000 C 
ATOM     12  C   UNL     1     -12.474 -15.558   7.763  0.00  0.00    +0.000 C 
ATOM     13  C   UNL     1     -14.678 -19.514   7.496  0.00  0.00    +0.000 C 
ATOM     14  C   UNL     1      -8.614 -18.102   8.034  0.00  0.00    +0.000 C 
ATOM     15  C   UNL     1     -11.195 -15.936   9.814  0.00  0.00    +0.000 C 
ATOM     16  C   UNL     1      -9.016 -19.452   5.559  0.00  0.00    +0.000 C 
ATOM     17  C   UNL     1     -13.910 -20.317   9.590  0.00  0.00    +0.000 C 
ATOM     18  C   UNL     1      -7.455 -18.996   8.513  0.00  0.00    +0.000 C 
ATOM     19  C   UNL     1     -11.328 -16.073  11.332  0.00  0.00    +0.000 C 
ATOM     20  C   UNL     1      -8.098 -20.224   5.639  0.00  0.00    +0.000 C 
ATOM     21  C   UNL     1      -6.663 -20.155   7.909  0.00  0.00    +0.000 C 
ATOM     22  C   UNL     1     -14.053 -20.204  11.110  0.00  0.00    +0.000 C 
ATOM     23  C   UNL     1      -6.962 -20.730   6.529  0.00  0.00    +0.000 C 
ATOM     24  C   UNL     1     -11.760 -16.595  12.700  0.00  0.00    +0.000 C 
ATOM     25  C   UNL     1     -13.856 -19.684  12.531  0.00  0.00    +0.000 C 
ATOM     26  C   UNL     1     -13.224 -18.643  13.440  0.00  0.00    +0.000 C 
ATOM     27  C   UNL     1     -12.358 -17.398  13.357  0.00  0.00    +0.000 C 
ENDROOT
BRANCH  11  30
ATOM     28  N   UNL     1     -14.705 -14.345   5.678  0.00  0.00    +0.000 NA
ATOM     29  N   UNL     1     -15.816 -15.539   9.000  0.00  0.00    +0.000 N 
ATOM     30  C   UNL     1     -14.631 -15.057   6.825  0.00  0.00    +0.000 A 
ATOM     31  C   UNL     1     -15.640 -14.932   7.777  0.00  0.00    +0.000 A 
ATOM     32  C   UNL     1     -16.732 -14.085   7.581  0.00  0.00    +0.000 A 
ATOM     33  C   UNL     1     -15.765 -13.527   5.495  0.00  0.00    +0.000 A 
ATOM     34  C   UNL     1     -16.808 -13.342   6.392  0.00  0.00    +0.000 A 
ATOM     35  C   UNL     1     -17.571 -14.192   8.732  0.00  0.00    +0.000 A 
ATOM     36  C   UNL     1     -16.975 -15.106   9.599  0.00  0.00    +0.000 A 
ATOM     37  C   UNL     1     -18.788 -13.595   9.112  0.00  0.00    +0.000 A 
ATOM     38  C   UNL     1     -17.530 -15.460  10.832  0.00  0.00    +0.000 A 
ATOM     39  C   UNL     1     -19.358 -13.935  10.341  0.00  0.00    +0.000 A 
ATOM     40  C   UNL     1     -18.737 -14.852  11.182  0.00  0.00    +0.000 A 
ATOM     41  H   UNL     1     -15.186 -16.219   9.402  0.00  0.00    +0.000 HD
ENDBRANCH  11  30
BRANCH   7  42
ATOM     42  O   UNL     1     -10.230 -14.993   7.896  0.00  0.00    +0.000 OA
ATOM     43  H   UNL     1      -9.366 -15.362   8.147  0.00  0.00    +0.000 HD
ENDBRANCH   7  42
TORSDOF 2
ENDMDL
MODEL 9
REMARK VINA RESULT:      -6.1     25.452     28.502
REMARK  Name = 6509753_ManzamineA.pdbqt.pdb
REMARK  2 active torsions:
REMARK  status: ('A' for Active; 'I' for Inactive)
REMARK    1  A    between atoms: C_7  and  O_42
REMARK    2  A    between atoms: C_11  and  C_30
REMARK                            x       y       z     vdW  Elec       q    Type
REMARK                         _______ _______ _______ _____ _____    ______ ____
ROOT
ATOM      1  N   UNL     1     -16.327 -15.739  10.014  0.00  0.00    +0.000 N 
ATOM      2  N   UNL     1     -14.004 -17.054  14.223  0.00  0.00    +0.000 N 
ATOM      3  C   UNL     1     -14.334 -16.331  11.459  0.00  0.00    +0.000 C 
ATOM      4  C   UNL     1     -15.396 -16.822  10.422  0.00  0.00    +0.000 C 
ATOM      5  C   UNL     1     -12.798 -16.597  11.174  0.00  0.00    +0.000 C 
ATOM      6  C   UNL     1     -14.644 -14.908  11.350  0.00  0.00    +0.000 C 
ATOM      7  C   UNL     1     -14.977 -17.840   9.358  0.00  0.00    +0.000 C 
ATOM      8  C   UNL     1     -14.591 -16.794  12.868  0.00  0.00    +0.000 C 
ATOM      9  C   UNL     1     -15.855 -14.537  10.736  0.00  0.00    +0.000 C 
ATOM     10  C   UNL     1     -12.021 -16.773  12.375  0.00  0.00    +0.000 C 
ATOM     11  C   UNL     1     -12.463 -17.372   9.988  0.00  0.00    +0.000 C 
ATOM     12  C   UNL     1     -13.529 -17.814   9.397  0.00  0.00    +0.000 C 
ATOM     13  C   UNL     1     -12.606 -17.024  13.768  0.00  0.00    +0.000 C 
ATOM     14  C   UNL     1     -17.723 -16.074  10.307  0.00  0.00    +0.000 C 
ATOM     15  C   UNL     1     -15.567 -19.145   9.639  0.00  0.00    +0.000 C 
ATOM     16  C   UNL     1     -16.766 -13.554  11.226  0.00  0.00    +0.000 C 
ATOM     17  C   UNL     1     -14.335 -18.419  14.596  0.00  0.00    +0.000 C 
ATOM     18  C   UNL     1     -19.177 -15.868  10.772  0.00  0.00    +0.000 C 
ATOM     19  C   UNL     1     -16.093 -20.508  10.094  0.00  0.00    +0.000 C 
ATOM     20  C   UNL     1     -17.816 -13.102  11.596  0.00  0.00    +0.000 C 
ATOM     21  C   UNL     1     -19.953 -14.720  11.415  0.00  0.00    +0.000 C 
ATOM     22  C   UNL     1     -14.782 -19.865  14.829  0.00  0.00    +0.000 C 
ATOM     23  C   UNL     1     -19.305 -13.393  11.794  0.00  0.00    +0.000 C 
ATOM     24  C   UNL     1     -16.406 -21.708  10.984  0.00  0.00    +0.000 C 
ATOM     25  C   UNL     1     -15.373 -21.243  14.545  0.00  0.00    +0.000 C 
ATOM     26  C   UNL     1     -15.995 -22.188  13.531  0.00  0.00    +0.000 C 
ATOM     27  C   UNL     1     -16.369 -22.233  12.059  0.00  0.00    +0.000 C 
ENDROOT
BRANCH  11  30
ATOM     28  N   UNL     1     -10.400 -16.994   8.770  0.00  0.00    +0.000 NA
ATOM     29  N   UNL     1     -11.118 -19.992  10.817  0.00  0.00    +0.000 N 
ATOM     30  C   UNL     1     -11.131 -17.793   9.579  0.00  0.00    +0.000 A 
ATOM     31  C   UNL     1     -10.603 -19.013   9.998  0.00  0.00    +0.000 A 
ATOM     32  C   UNL     1      -9.334 -19.437   9.602  0.00  0.00    +0.000 A 
ATOM     33  C   UNL     1      -9.172 -17.411   8.391  0.00  0.00    +0.000 A 
ATOM     34  C   UNL     1      -8.576 -18.609   8.759  0.00  0.00    +0.000 A 
ATOM     35  C   UNL     1      -9.101 -20.713  10.202  0.00  0.00    +0.000 A 
ATOM     36  C   UNL     1     -10.230 -21.032  10.953  0.00  0.00    +0.000 A 
ATOM     37  C   UNL     1      -8.027 -21.622  10.175  0.00  0.00    +0.000 A 
ATOM     38  C   UNL     1     -10.347 -22.217  11.685  0.00  0.00    +0.000 A 
ATOM     39  C   UNL     1      -8.126 -22.813  10.899  0.00  0.00    +0.000 A 
ATOM     40  C   UNL     1      -9.267 -23.100  11.640  0.00  0.00    +0.000 A 
ATOM     41  H   UNL     1     -12.022 -19.951  11.267  0.00  0.00    +0.000 HD
ENDBRANCH  11  30
BRANCH   7  42
ATOM     42  O   UNL     1     -15.383 -17.416   8.065  0.00  0.00    +0.000 OA
ATOM     43  H   UNL     1     -15.066 -16.502   7.969  0.00  0.00    +0.000 HD
ENDBRANCH   7  42
TORSDOF 2
ENDMDL
