MODEL 1
REMARK VINA RESULT:      -4.4      0.000      0.000
REMARK  Name = 67499_Pyrazolo.pdbqt.pdb
REMARK  0 active torsions:
REMARK  status: ('A' for Active; 'I' for Inactive)
REMARK                            x       y       z     vdW  Elec       q    Type
REMARK                         _______ _______ _______ _____ _____    ______ ____
ROOT
ATOM      1  N   UNL     1     -14.425  -4.289   6.094  0.00  0.00    +0.000 N 
ATOM      2  N   UNL     1     -13.924  -4.378   4.843  0.00  0.00    +0.000 NA
ATOM      3  N   UNL     1     -15.419  -5.700   7.793  0.00  0.00    +0.000 NA
ATOM      4  N   UNL     1     -15.586  -8.003   7.064  0.00  0.00    +0.000 NA
ATOM      5  C   UNL     1     -14.651  -6.409   5.595  0.00  0.00    +0.000 A 
ATOM      6  C   UNL     1     -14.873  -5.479   6.588  0.00  0.00    +0.000 A 
ATOM      7  C   UNL     1     -14.066  -5.677   4.547  0.00  0.00    +0.000 A 
ATOM      8  C   UNL     1     -15.029  -7.718   5.861  0.00  0.00    +0.000 A 
ATOM      9  C   UNL     1     -15.748  -6.997   7.948  0.00  0.00    +0.000 A 
ATOM     10  H   UNL     1     -14.435  -3.389   6.560  0.00  0.00    +0.000 HD
ENDROOT
TORSDOF 0
ENDMDL
MODEL 2
REMARK VINA RESULT:      -4.0     11.279     13.026
REMARK  Name = 67499_Pyrazolo.pdbqt.pdb
REMARK  0 active torsions:
REMARK  status: ('A' for Active; 'I' for Inactive)
REMARK                            x       y       z     vdW  Elec       q    Type
REMARK                         _______ _______ _______ _____ _____    ______ ____
ROOT
ATOM      1  N   UNL     1      -5.739  -1.119  -0.534  0.00  0.00    +0.000 N 
ATOM      2  N   UNL     1      -6.935  -1.736  -0.412  0.00  0.00    +0.000 NA
ATOM      3  N   UNL     1      -3.407  -1.661  -0.899  0.00  0.00    +0.000 NA
ATOM      4  N   UNL     1      -3.063  -4.049  -1.118  0.00  0.00    +0.000 NA
ATOM      5  C   UNL     1      -5.252  -3.243  -0.755  0.00  0.00    +0.000 A 
ATOM      6  C   UNL     1      -4.700  -1.979  -0.741  0.00  0.00    +0.000 A 
ATOM      7  C   UNL     1      -6.627  -3.033  -0.548  0.00  0.00    +0.000 A 
ATOM      8  C   UNL     1      -4.384  -4.307  -0.952  0.00  0.00    +0.000 A 
ATOM      9  C   UNL     1      -2.654  -2.763  -1.083  0.00  0.00    +0.000 A 
ATOM     10  H   UNL     1      -5.695  -0.109  -0.468  0.00  0.00    +0.000 HD
ENDROOT
TORSDOF 0
ENDMDL
MODEL 3
REMARK VINA RESULT:      -4.0      3.682      4.615
REMARK  Name = 67499_Pyrazolo.pdbqt.pdb
REMARK  0 active torsions:
REMARK  status: ('A' for Active; 'I' for Inactive)
REMARK                            x       y       z     vdW  Elec       q    Type
REMARK                         _______ _______ _______ _____ _____    ______ ____
ROOT
ATOM      1  N   UNL     1     -11.237  -8.259   6.766  0.00  0.00    +0.000 N 
ATOM      2  N   UNL     1     -12.073  -8.146   7.821  0.00  0.00    +0.000 NA
ATOM      3  N   UNL     1     -11.303  -8.780   4.402  0.00  0.00    +0.000 NA
ATOM      4  N   UNL     1     -13.554  -9.257   3.648  0.00  0.00    +0.000 NA
ATOM      5  C   UNL     1     -13.204  -8.716   5.920  0.00  0.00    +0.000 A 
ATOM      6  C   UNL     1     -11.867  -8.598   5.604  0.00  0.00    +0.000 A 
ATOM      7  C   UNL     1     -13.272  -8.427   7.294  0.00  0.00    +0.000 A 
ATOM      8  C   UNL     1     -14.067  -9.059   4.888  0.00  0.00    +0.000 A 
ATOM      9  C   UNL     1     -12.224  -9.109   3.476  0.00  0.00    +0.000 A 
ATOM     10  H   UNL     1     -10.246  -8.092   6.899  0.00  0.00    +0.000 HD
ENDROOT
TORSDOF 0
ENDMDL
MODEL 4
REMARK VINA RESULT:      -4.0      2.669      3.294
REMARK  Name = 67499_Pyrazolo.pdbqt.pdb
REMARK  0 active torsions:
REMARK  status: ('A' for Active; 'I' for Inactive)
REMARK                            x       y       z     vdW  Elec       q    Type
REMARK                         _______ _______ _______ _____ _____    ______ ____
ROOT
ATOM      1  N   UNL     1     -11.651  -8.717   6.006  0.00  0.00    +0.000 N 
ATOM      2  N   UNL     1     -11.660  -9.139   4.723  0.00  0.00    +0.000 NA
ATOM      3  N   UNL     1     -13.184  -7.902   7.695  0.00  0.00    +0.000 NA
ATOM      4  N   UNL     1     -15.457  -7.791   6.867  0.00  0.00    +0.000 NA
ATOM      5  C   UNL     1     -13.755  -8.555   5.420  0.00  0.00    +0.000 A 
ATOM      6  C   UNL     1     -12.883  -8.357   6.470  0.00  0.00    +0.000 A 
ATOM      7  C   UNL     1     -12.949  -9.036   4.374  0.00  0.00    +0.000 A 
ATOM      8  C   UNL     1     -15.091  -8.255   5.647  0.00  0.00    +0.000 A 
ATOM      9  C   UNL     1     -14.501  -7.642   7.808  0.00  0.00    +0.000 A 
ATOM     10  H   UNL     1     -10.775  -8.698   6.514  0.00  0.00    +0.000 HD
ENDROOT
TORSDOF 0
ENDMDL
MODEL 5
REMARK VINA RESULT:      -4.0      1.652      2.627
REMARK  Name = 67499_Pyrazolo.pdbqt.pdb
REMARK  0 active torsions:
REMARK  status: ('A' for Active; 'I' for Inactive)
REMARK                            x       y       z     vdW  Elec       q    Type
REMARK                         _______ _______ _______ _____ _____    ______ ____
ROOT
ATOM      1  N   UNL     1     -13.509  -6.251   3.532  0.00  0.00    +0.000 N 
ATOM      2  N   UNL     1     -13.462  -7.597   3.420  0.00  0.00    +0.000 NA
ATOM      3  N   UNL     1     -14.179  -4.551   5.122  0.00  0.00    +0.000 NA
ATOM      4  N   UNL     1     -15.041  -5.521   7.166  0.00  0.00    +0.000 NA
ATOM      5  C   UNL     1     -14.314  -6.960   5.442  0.00  0.00    +0.000 A 
ATOM      6  C   UNL     1     -14.012  -5.821   4.726  0.00  0.00    +0.000 A 
ATOM      7  C   UNL     1     -13.955  -8.021   4.591  0.00  0.00    +0.000 A 
ATOM      8  C   UNL     1     -14.848  -6.784   6.710  0.00  0.00    +0.000 A 
ATOM      9  C   UNL     1     -14.702  -4.492   6.362  0.00  0.00    +0.000 A 
ATOM     10  H   UNL     1     -13.185  -5.679   2.762  0.00  0.00    +0.000 HD
ENDROOT
TORSDOF 0
ENDMDL
MODEL 6
REMARK VINA RESULT:      -3.8     11.563     12.730
REMARK  Name = 67499_Pyrazolo.pdbqt.pdb
REMARK  0 active torsions:
REMARK  status: ('A' for Active; 'I' for Inactive)
REMARK                            x       y       z     vdW  Elec       q    Type
REMARK                         _______ _______ _______ _____ _____    ______ ____
ROOT
ATOM      1  N   UNL     1      -5.503  -5.215   0.300  0.00  0.00    +0.000 N 
ATOM      2  N   UNL     1      -4.708  -6.109  -0.327  0.00  0.00    +0.000 NA
ATOM      3  N   UNL     1      -5.763  -2.819   0.537  0.00  0.00    +0.000 NA
ATOM      4  N   UNL     1      -4.096  -1.603  -0.731  0.00  0.00    +0.000 NA
ATOM      5  C   UNL     1      -4.071  -3.963  -0.786  0.00  0.00    +0.000 A 
ATOM      6  C   UNL     1      -5.162  -3.916   0.057  0.00  0.00    +0.000 A 
ATOM      7  C   UNL     1      -3.836  -5.335  -0.988  0.00  0.00    +0.000 A 
ATOM      8  C   UNL     1      -3.531  -2.749  -1.185  0.00  0.00    +0.000 A 
ATOM      9  C   UNL     1      -5.163  -1.699   0.091  0.00  0.00    +0.000 A 
ATOM     10  H   UNL     1      -6.262  -5.551   0.881  0.00  0.00    +0.000 HD
ENDROOT
TORSDOF 0
ENDMDL
MODEL 7
REMARK VINA RESULT:      -3.6      2.465      2.961
REMARK  Name = 67499_Pyrazolo.pdbqt.pdb
REMARK  0 active torsions:
REMARK  status: ('A' for Active; 'I' for Inactive)
REMARK                            x       y       z     vdW  Elec       q    Type
REMARK                         _______ _______ _______ _____ _____    ______ ____
ROOT
ATOM      1  N   UNL     1     -13.127  -7.771   4.223  0.00  0.00    +0.000 N 
ATOM      2  N   UNL     1     -14.296  -7.517   3.596  0.00  0.00    +0.000 NA
ATOM      3  N   UNL     1     -12.276  -8.192   6.451  0.00  0.00    +0.000 NA
ATOM      4  N   UNL     1     -14.042  -8.157   8.109  0.00  0.00    +0.000 NA
ATOM      5  C   UNL     1     -14.597  -7.774   5.846  0.00  0.00    +0.000 A 
ATOM      6  C   UNL     1     -13.255  -7.932   5.572  0.00  0.00    +0.000 A 
ATOM      7  C   UNL     1     -15.188  -7.520   4.596  0.00  0.00    +0.000 A 
ATOM      8  C   UNL     1     -14.987  -7.894   7.172  0.00  0.00    +0.000 A 
ATOM      9  C   UNL     1     -12.761  -8.289   7.704  0.00  0.00    +0.000 A 
ATOM     10  H   UNL     1     -12.274  -7.822   3.678  0.00  0.00    +0.000 HD
ENDROOT
TORSDOF 0
ENDMDL
MODEL 8
REMARK VINA RESULT:      -3.6     12.511     13.316
REMARK  Name = 67499_Pyrazolo.pdbqt.pdb
REMARK  0 active torsions:
REMARK  status: ('A' for Active; 'I' for Inactive)
REMARK                            x       y       z     vdW  Elec       q    Type
REMARK                         _______ _______ _______ _____ _____    ______ ____
ROOT
ATOM      1  N   UNL     1      -9.201   5.337   4.462  0.00  0.00    +0.000 N 
ATOM      2  N   UNL     1     -10.519   5.439   4.741  0.00  0.00    +0.000 NA
ATOM      3  N   UNL     1      -7.070   5.246   5.610  0.00  0.00    +0.000 NA
ATOM      4  N   UNL     1      -7.337   5.373   8.014  0.00  0.00    +0.000 NA
ATOM      5  C   UNL     1      -9.263   5.440   6.649  0.00  0.00    +0.000 A 
ATOM      6  C   UNL     1      -8.407   5.334   5.573  0.00  0.00    +0.000 A 
ATOM      7  C   UNL     1     -10.546   5.501   6.079  0.00  0.00    +0.000 A 
ATOM      8  C   UNL     1      -8.687   5.459   7.911  0.00  0.00    +0.000 A 
ATOM      9  C   UNL     1      -6.616   5.273   6.878  0.00  0.00    +0.000 A 
ATOM     10  H   UNL     1      -8.903   5.273   3.496  0.00  0.00    +0.000 HD
ENDROOT
TORSDOF 0
ENDMDL
MODEL 9
REMARK VINA RESULT:      -3.5      2.228      2.601
REMARK  Name = 67499_Pyrazolo.pdbqt.pdb
REMARK  0 active torsions:
REMARK  status: ('A' for Active; 'I' for Inactive)
REMARK                            x       y       z     vdW  Elec       q    Type
REMARK                         _______ _______ _______ _____ _____    ______ ____
ROOT
ATOM      1  N   UNL     1     -15.100  -7.422   4.424  0.00  0.00    +0.000 N 
ATOM      2  N   UNL     1     -14.213  -7.936   3.544  0.00  0.00    +0.000 NA
ATOM      3  N   UNL     1     -15.363  -7.101   6.810  0.00  0.00    +0.000 NA
ATOM      4  N   UNL     1     -13.465  -7.956   8.047  0.00  0.00    +0.000 NA
ATOM      5  C   UNL     1     -13.467  -8.141   5.693  0.00  0.00    +0.000 A 
ATOM      6  C   UNL     1     -14.698  -7.521   5.724  0.00  0.00    +0.000 A 
ATOM      7  C   UNL     1     -13.219  -8.373   4.329  0.00  0.00    +0.000 A 
ATOM      8  C   UNL     1     -12.841  -8.359   6.912  0.00  0.00    +0.000 A 
ATOM      9  C   UNL     1     -14.670  -7.360   7.936  0.00  0.00    +0.000 A 
ATOM     10  H   UNL     1     -15.962  -7.016   4.078  0.00  0.00    +0.000 HD
ENDROOT
TORSDOF 0
ENDMDL
