REMARK  Name = 71369791_5FluoroDione.pdbqt.pdb
REMARK  1 active torsions:
REMARK  status: ('A' for Active; 'I' for Inactive)
REMARK    1  A    between atoms: N_4  and  C_12
REMARK                            x       y       z     vdW  Elec       q    Type
REMARK                         _______ _______ _______ _____ _____    ______ ____
ROOT
ATOM      1  F   UNL     1       2.573  -2.358  -0.056  0.00  0.00    +0.000 F 
ATOM      2  O   UNL     1      -0.048   2.396   0.382  0.00  0.00    +0.000 OA
ATOM      3  O   UNL     1       3.925   0.130   0.044  0.00  0.00    +0.000 OA
ATOM      4  N   UNL     1      -0.185   0.075  -0.043  0.00  0.00    +0.000 N 
ATOM      5  N   UNL     1       1.886   1.201   0.111  0.00  0.00    +0.000 N 
ATOM      6  C   UNL     1       0.576  -1.016  -0.257  0.00  0.00    +0.000 C 
ATOM      7  C   UNL     1       1.963  -1.192  -0.327  0.00  0.00    +0.000 C 
ATOM      8  C   UNL     1       0.475   1.308   0.164  0.00  0.00    +0.000 C 
ATOM      9  C   UNL     1       2.705   0.074  -0.052  0.00  0.00    +0.000 C 
ATOM     10  H   UNL     1       2.377   2.064   0.298  0.00  0.00    +0.000 HD
ENDROOT
BRANCH   4  12
ATOM     11  O   UNL     1      -2.180  -1.296  -0.236  0.00  0.00    +0.000 OA
ATOM     12  C   UNL     1      -1.544  -0.065  -0.033  0.00  0.00    +0.000 C 
ATOM     13  C   UNL     1      -2.544   0.923   0.167  0.00  0.00    +0.000 C 
ATOM     14  C   UNL     1      -4.037   0.590   0.144  0.00  0.00    +0.000 C 
ATOM     15  C   UNL     1      -3.408  -0.778  -0.114  0.00  0.00    +0.000 C 
ENDBRANCH   4  12
TORSDOF 1
