MODEL 1
REMARK VINA RESULT:      -5.0      0.000      0.000
REMARK  Name = 71369791_5FluoroDione.pdbqt.pdb
REMARK  1 active torsions:
REMARK  status: ('A' for Active; 'I' for Inactive)
REMARK    1  A    between atoms: N_4  and  C_12
REMARK                            x       y       z     vdW  Elec       q    Type
REMARK                         _______ _______ _______ _____ _____    ______ ____
ROOT
ATOM      1  F   UNL     1     -15.000  -7.572   1.073  0.00  0.00    +0.000 F 
ATOM      2  O   UNL     1     -11.615  -7.557   5.340  0.00  0.00    +0.000 OA
ATOM      3  O   UNL     1     -12.221  -8.069   0.823  0.00  0.00    +0.000 OA
ATOM      4  N   UNL     1     -13.758  -7.031   4.492  0.00  0.00    +0.000 N 
ATOM      5  N   UNL     1     -11.982  -7.699   3.084  0.00  0.00    +0.000 N 
ATOM      6  C   UNL     1     -14.463  -6.961   3.346  0.00  0.00    +0.000 C 
ATOM      7  C   UNL     1     -14.112  -7.208   2.014  0.00  0.00    +0.000 C 
ATOM      8  C   UNL     1     -12.403  -7.428   4.409  0.00  0.00    +0.000 C 
ATOM      9  C   UNL     1     -12.706  -7.691   1.883  0.00  0.00    +0.000 C 
ATOM     10  H   UNL     1     -11.029  -8.025   3.008  0.00  0.00    +0.000 HD
ENDROOT
BRANCH   4  12
ATOM     11  O   UNL     1     -14.512  -5.407   6.132  0.00  0.00    +0.000 OA
ATOM     12  C   UNL     1     -14.383  -6.721   5.667  0.00  0.00    +0.000 C 
ATOM     13  C   UNL     1     -14.994  -7.588   6.611  0.00  0.00    +0.000 C 
ATOM     14  C   UNL     1     -15.654  -7.068   7.889  0.00  0.00    +0.000 C 
ATOM     15  C   UNL     1     -15.165  -5.773   7.241  0.00  0.00    +0.000 C 
ENDBRANCH   4  12
TORSDOF 1
ENDMDL
MODEL 2
REMARK VINA RESULT:      -4.9     20.387     20.993
REMARK  Name = 71369791_5FluoroDione.pdbqt.pdb
REMARK  1 active torsions:
REMARK  status: ('A' for Active; 'I' for Inactive)
REMARK    1  A    between atoms: N_4  and  C_12
REMARK                            x       y       z     vdW  Elec       q    Type
REMARK                         _______ _______ _______ _____ _____    ______ ____
ROOT
ATOM      1  F   UNL     1       6.289  -8.019  13.236  0.00  0.00    +0.000 F 
ATOM      2  O   UNL     1       5.799  -7.156   7.881  0.00  0.00    +0.000 OA
ATOM      3  O   UNL     1       5.794 -10.110  11.389  0.00  0.00    +0.000 OA
ATOM      4  N   UNL     1       5.891  -6.224  10.051  0.00  0.00    +0.000 N 
ATOM      5  N   UNL     1       5.713  -8.552   9.693  0.00  0.00    +0.000 N 
ATOM      6  C   UNL     1       5.887  -6.559  11.356  0.00  0.00    +0.000 C 
ATOM      7  C   UNL     1       5.799  -7.796  12.005  0.00  0.00    +0.000 C 
ATOM      8  C   UNL     1       5.800  -7.268   9.102  0.00  0.00    +0.000 C 
ATOM      9  C   UNL     1       5.763  -8.935  11.042  0.00  0.00    +0.000 C 
ATOM     10  H   UNL     1       5.688  -9.315   9.032  0.00  0.00    +0.000 HD
ENDROOT
BRANCH   4  12
ATOM     11  O   UNL     1       7.011  -4.403   8.899  0.00  0.00    +0.000 OA
ATOM     12  C   UNL     1       5.988  -4.903   9.713  0.00  0.00    +0.000 C 
ATOM     13  C   UNL     1       5.144  -3.822  10.080  0.00  0.00    +0.000 C 
ATOM     14  C   UNL     1       5.402  -2.389   9.610  0.00  0.00    +0.000 C 
ATOM     15  C   UNL     1       6.558  -3.145   8.958  0.00  0.00    +0.000 C 
ENDBRANCH   4  12
TORSDOF 1
ENDMDL
MODEL 3
REMARK VINA RESULT:      -4.8     22.386     23.109
REMARK  Name = 71369791_5FluoroDione.pdbqt.pdb
REMARK  1 active torsions:
REMARK  status: ('A' for Active; 'I' for Inactive)
REMARK    1  A    between atoms: N_4  and  C_12
REMARK                            x       y       z     vdW  Elec       q    Type
REMARK                         _______ _______ _______ _____ _____    ______ ____
ROOT
ATOM      1  F   UNL     1     -11.188  -7.647  28.252  0.00  0.00    +0.000 F 
ATOM      2  O   UNL     1      -6.982  -6.439  25.010  0.00  0.00    +0.000 OA
ATOM      3  O   UNL     1      -9.987  -9.551  26.533  0.00  0.00    +0.000 OA
ATOM      4  N   UNL     1      -8.709  -5.645  26.415  0.00  0.00    +0.000 N 
ATOM      5  N   UNL     1      -8.577  -7.907  25.746  0.00  0.00    +0.000 N 
ATOM      6  C   UNL     1      -9.807  -6.047  27.086  0.00  0.00    +0.000 C 
ATOM      7  C   UNL     1     -10.431  -7.295  27.200  0.00  0.00    +0.000 C 
ATOM      8  C   UNL     1      -8.001  -6.616  25.670  0.00  0.00    +0.000 C 
ATOM      9  C   UNL     1      -9.681  -8.366  26.479  0.00  0.00    +0.000 C 
ATOM     10  H   UNL     1      -8.062  -8.623  25.254  0.00  0.00    +0.000 HD
ENDROOT
BRANCH   4  12
ATOM     11  O   UNL     1      -8.758  -3.371  25.565  0.00  0.00    +0.000 OA
ATOM     12  C   UNL     1      -8.337  -4.333  26.492  0.00  0.00    +0.000 C 
ATOM     13  C   UNL     1      -7.505  -3.693  27.448  0.00  0.00    +0.000 C 
ATOM     14  C   UNL     1      -7.187  -2.198  27.383  0.00  0.00    +0.000 C 
ATOM     15  C   UNL     1      -8.092  -2.378  26.166  0.00  0.00    +0.000 C 
ENDBRANCH   4  12
TORSDOF 1
ENDMDL
MODEL 4
REMARK VINA RESULT:      -4.2     20.429     21.751
REMARK  Name = 71369791_5FluoroDione.pdbqt.pdb
REMARK  1 active torsions:
REMARK  status: ('A' for Active; 'I' for Inactive)
REMARK    1  A    between atoms: N_4  and  C_12
REMARK                            x       y       z     vdW  Elec       q    Type
REMARK                         _______ _______ _______ _____ _____    ______ ____
ROOT
ATOM      1  F   UNL     1      10.398  -4.343   8.655  0.00  0.00    +0.000 F 
ATOM      2  O   UNL     1       4.990  -3.861   9.076  0.00  0.00    +0.000 OA
ATOM      3  O   UNL     1       9.059  -1.860   8.391  0.00  0.00    +0.000 OA
ATOM      4  N   UNL     1       6.852  -5.298   8.848  0.00  0.00    +0.000 N 
ATOM      5  N   UNL     1       7.047  -2.953   8.644  0.00  0.00    +0.000 N 
ATOM      6  C   UNL     1       8.180  -5.294   8.618  0.00  0.00    +0.000 C 
ATOM      7  C   UNL     1       9.086  -4.255   8.380  0.00  0.00    +0.000 C 
ATOM      8  C   UNL     1       6.184  -4.052   8.874  0.00  0.00    +0.000 C 
ATOM      9  C   UNL     1       8.437  -2.913   8.460  0.00  0.00    +0.000 C 
ATOM     10  H   UNL     1       6.596  -2.050   8.700  0.00  0.00    +0.000 HD
ENDROOT
BRANCH   4  12
ATOM     11  O   UNL     1       5.685  -7.251   7.998  0.00  0.00    +0.000 OA
ATOM     12  C   UNL     1       6.224  -6.495   9.047  0.00  0.00    +0.000 C 
ATOM     13  C   UNL     1       5.990  -7.192  10.261  0.00  0.00    +0.000 C 
ATOM     14  C   UNL     1       5.261  -8.537  10.304  0.00  0.00    +0.000 C 
ATOM     15  C   UNL     1       5.252  -8.224   8.808  0.00  0.00    +0.000 C 
ENDBRANCH   4  12
TORSDOF 1
ENDMDL
MODEL 5
REMARK VINA RESULT:      -4.2     20.390     21.636
REMARK  Name = 71369791_5FluoroDione.pdbqt.pdb
REMARK  1 active torsions:
REMARK  status: ('A' for Active; 'I' for Inactive)
REMARK    1  A    between atoms: N_4  and  C_12
REMARK                            x       y       z     vdW  Elec       q    Type
REMARK                         _______ _______ _______ _____ _____    ______ ____
ROOT
ATOM      1  F   UNL     1       9.024 -11.711  10.831  0.00  0.00    +0.000 F 
ATOM      2  O   UNL     1       4.001  -9.783  11.680  0.00  0.00    +0.000 OA
ATOM      3  O   UNL     1       7.222 -12.895  12.669  0.00  0.00    +0.000 OA
ATOM      4  N   UNL     1       6.141  -9.429  10.741  0.00  0.00    +0.000 N 
ATOM      5  N   UNL     1       5.693 -11.239  12.191  0.00  0.00    +0.000 N 
ATOM      6  C   UNL     1       7.387  -9.941  10.703  0.00  0.00    +0.000 C 
ATOM      7  C   UNL     1       7.961 -11.055  11.326  0.00  0.00    +0.000 C 
ATOM      8  C   UNL     1       5.179 -10.095  11.534  0.00  0.00    +0.000 C 
ATOM      9  C   UNL     1       6.965 -11.827  12.127  0.00  0.00    +0.000 C 
ATOM     10  H   UNL     1       5.010 -11.753  12.730  0.00  0.00    +0.000 HD
ENDROOT
BRANCH   4  12
ATOM     11  O   UNL     1       5.512  -8.345   8.660  0.00  0.00    +0.000 OA
ATOM     12  C   UNL     1       5.872  -8.304  10.013  0.00  0.00    +0.000 C 
ATOM     13  C   UNL     1       5.895  -6.946  10.425  0.00  0.00    +0.000 C 
ATOM     14  C   UNL     1       5.565  -5.797   9.469  0.00  0.00    +0.000 C 
ATOM     15  C   UNL     1       5.401  -7.015   8.562  0.00  0.00    +0.000 C 
ENDBRANCH   4  12
TORSDOF 1
ENDMDL
MODEL 6
REMARK VINA RESULT:      -4.0     12.580     14.399
REMARK  Name = 71369791_5FluoroDione.pdbqt.pdb
REMARK  1 active torsions:
REMARK  status: ('A' for Active; 'I' for Inactive)
REMARK    1  A    between atoms: N_4  and  C_12
REMARK                            x       y       z     vdW  Elec       q    Type
REMARK                         _______ _______ _______ _____ _____    ______ ____
ROOT
ATOM      1  F   UNL     1     -22.424  -7.631  15.428  0.00  0.00    +0.000 F 
ATOM      2  O   UNL     1     -17.532  -5.809  16.981  0.00  0.00    +0.000 OA
ATOM      3  O   UNL     1     -20.056  -8.175  13.970  0.00  0.00    +0.000 OA
ATOM      4  N   UNL     1     -19.878  -5.697  17.246  0.00  0.00    +0.000 N 
ATOM      5  N   UNL     1     -18.872  -6.888  15.471  0.00  0.00    +0.000 N 
ATOM      6  C   UNL     1     -21.034  -6.119  16.697  0.00  0.00    +0.000 C 
ATOM      7  C   UNL     1     -21.304  -6.901  15.568  0.00  0.00    +0.000 C 
ATOM      8  C   UNL     1     -18.671  -6.086  16.621  0.00  0.00    +0.000 C 
ATOM      9  C   UNL     1     -20.056  -7.388  14.909  0.00  0.00    +0.000 C 
ATOM     10  H   UNL     1     -18.021  -7.211  15.033  0.00  0.00    +0.000 HD
ENDROOT
BRANCH   4  12
ATOM     11  O   UNL     1     -19.613  -3.561  18.371  0.00  0.00    +0.000 OA
ATOM     12  C   UNL     1     -19.930  -4.925  18.372  0.00  0.00    +0.000 C 
ATOM     13  C   UNL     1     -20.287  -5.296  19.696  0.00  0.00    +0.000 C 
ATOM     14  C   UNL     1     -20.289  -4.294  20.852  0.00  0.00    +0.000 C 
ATOM     15  C   UNL     1     -19.847  -3.418  19.680  0.00  0.00    +0.000 C 
ENDBRANCH   4  12
TORSDOF 1
ENDMDL
MODEL 7
REMARK VINA RESULT:      -3.9     22.719     24.035
REMARK  Name = 71369791_5FluoroDione.pdbqt.pdb
REMARK  1 active torsions:
REMARK  status: ('A' for Active; 'I' for Inactive)
REMARK    1  A    between atoms: N_4  and  C_12
REMARK                            x       y       z     vdW  Elec       q    Type
REMARK                         _______ _______ _______ _____ _____    ______ ____
ROOT
ATOM      1  F   UNL     1      -7.292  -7.634  30.553  0.00  0.00    +0.000 F 
ATOM      2  O   UNL     1      -8.101  -6.987  25.206  0.00  0.00    +0.000 OA
ATOM      3  O   UNL     1      -5.340  -6.506  28.836  0.00  0.00    +0.000 OA
ATOM      4  N   UNL     1      -8.830  -7.968  27.229  0.00  0.00    +0.000 N 
ATOM      5  N   UNL     1      -6.745  -6.872  27.048  0.00  0.00    +0.000 N 
ATOM      6  C   UNL     1      -8.463  -8.167  28.510  0.00  0.00    +0.000 C 
ATOM      7  C   UNL     1      -7.311  -7.810  29.221  0.00  0.00    +0.000 C 
ATOM      8  C   UNL     1      -7.934  -7.268  26.388  0.00  0.00    +0.000 C 
ATOM      9  C   UNL     1      -6.361  -7.014  28.389  0.00  0.00    +0.000 C 
ATOM     10  H   UNL     1      -6.110  -6.334  26.475  0.00  0.00    +0.000 HD
ENDROOT
BRANCH   4  12
ATOM     11  O   UNL     1     -10.184  -9.665  26.140  0.00  0.00    +0.000 OA
ATOM     12  C   UNL     1     -10.041  -8.444  26.812  0.00  0.00    +0.000 C 
ATOM     13  C   UNL     1     -11.328  -7.861  26.950  0.00  0.00    +0.000 C 
ATOM     14  C   UNL     1     -12.592  -8.537  26.416  0.00  0.00    +0.000 C 
ATOM     15  C   UNL     1     -11.511  -9.543  26.025  0.00  0.00    +0.000 C 
ENDBRANCH   4  12
TORSDOF 1
ENDMDL
MODEL 8
REMARK VINA RESULT:      -3.8     20.792     22.109
REMARK  Name = 71369791_5FluoroDione.pdbqt.pdb
REMARK  1 active torsions:
REMARK  status: ('A' for Active; 'I' for Inactive)
REMARK    1  A    between atoms: N_4  and  C_12
REMARK                            x       y       z     vdW  Elec       q    Type
REMARK                         _______ _______ _______ _____ _____    ______ ____
ROOT
ATOM      1  F   UNL     1       8.730  -6.275   8.252  0.00  0.00    +0.000 F 
ATOM      2  O   UNL     1       4.751  -2.857   9.716  0.00  0.00    +0.000 OA
ATOM      3  O   UNL     1       5.997  -7.025   8.264  0.00  0.00    +0.000 OA
ATOM      4  N   UNL     1       7.070  -3.306   9.650  0.00  0.00    +0.000 N 
ATOM      5  N   UNL     1       5.461  -4.941   9.088  0.00  0.00    +0.000 N 
ATOM      6  C   UNL     1       7.960  -4.277   9.367  0.00  0.00    +0.000 C 
ATOM      7  C   UNL     1       7.799  -5.603   8.949  0.00  0.00    +0.000 C 
ATOM      8  C   UNL     1       5.697  -3.611   9.514  0.00  0.00    +0.000 C 
ATOM      9  C   UNL     1       6.364  -5.953   8.732  0.00  0.00    +0.000 C 
ATOM     10  H   UNL     1       4.486  -5.166   8.944  0.00  0.00    +0.000 HD
ENDROOT
BRANCH   4  12
ATOM     11  O   UNL     1       8.415  -1.922  11.125  0.00  0.00    +0.000 OA
ATOM     12  C   UNL     1       7.537  -2.084  10.046  0.00  0.00    +0.000 C 
ATOM     13  C   UNL     1       7.261  -0.802   9.502  0.00  0.00    +0.000 C 
ATOM     14  C   UNL     1       7.873   0.478  10.076  0.00  0.00    +0.000 C 
ATOM     15  C   UNL     1       8.470  -0.591  10.990  0.00  0.00    +0.000 C 
ENDBRANCH   4  12
TORSDOF 1
ENDMDL
MODEL 9
REMARK VINA RESULT:      -3.8     20.606     21.506
REMARK  Name = 71369791_5FluoroDione.pdbqt.pdb
REMARK  1 active torsions:
REMARK  status: ('A' for Active; 'I' for Inactive)
REMARK    1  A    between atoms: N_4  and  C_12
REMARK                            x       y       z     vdW  Elec       q    Type
REMARK                         _______ _______ _______ _____ _____    ______ ____
ROOT
ATOM      1  F   UNL     1       7.389 -11.143  10.194  0.00  0.00    +0.000 F 
ATOM      2  O   UNL     1       4.940  -7.427  13.334  0.00  0.00    +0.000 OA
ATOM      3  O   UNL     1       6.634 -11.664  12.875  0.00  0.00    +0.000 OA
ATOM      4  N   UNL     1       6.119  -7.886  11.338  0.00  0.00    +0.000 N 
ATOM      5  N   UNL     1       5.895  -9.489  13.058  0.00  0.00    +0.000 N 
ATOM      6  C   UNL     1       6.810  -8.855  10.707  0.00  0.00    +0.000 C 
ATOM      7  C   UNL     1       7.144 -10.163  11.080  0.00  0.00    +0.000 C 
ATOM      8  C   UNL     1       5.598  -8.176  12.620  0.00  0.00    +0.000 C 
ATOM      9  C   UNL     1       6.560 -10.536  12.403  0.00  0.00    +0.000 C 
ATOM     10  H   UNL     1       5.496  -9.730  13.954  0.00  0.00    +0.000 HD
ENDROOT
BRANCH   4  12
ATOM     11  O   UNL     1       6.236  -5.460  11.333  0.00  0.00    +0.000 OA
ATOM     12  C   UNL     1       5.956  -6.683  10.711  0.00  0.00    +0.000 C 
ATOM     13  C   UNL     1       5.499  -6.416   9.393  0.00  0.00    +0.000 C 
ATOM     14  C   UNL     1       5.372  -4.993   8.846  0.00  0.00    +0.000 C 
ATOM     15  C   UNL     1       5.889  -4.738  10.261  0.00  0.00    +0.000 C 
ENDBRANCH   4  12
TORSDOF 1
ENDMDL
