MODEL 1
REMARK VINA RESULT:      -3.2      0.000      0.000
REMARK  Name = 7288_3Pentanone.pdbqt.pdb
REMARK  2 active torsions:
REMARK  status: ('A' for Active; 'I' for Inactive)
REMARK    1  A    between atoms: C_2  and  C_3
REMARK    2  A    between atoms: C_2  and  C_5
REMARK                            x       y       z     vdW  Elec       q    Type
REMARK                         _______ _______ _______ _____ _____    ______ ____
ROOT
ATOM      1  O   UNL     1       5.550  -7.749   7.700  0.00  0.00    +0.000 OA
ATOM      2  C   UNL     1       5.504  -7.207   8.798  0.00  0.00    +0.000 C 
ENDROOT
BRANCH   2   3
ATOM      3  C   UNL     1       5.443  -5.770   8.912  0.00  0.00    +0.000 C 
ATOM      4  C   UNL     1       5.396  -4.235   9.049  0.00  0.00    +0.000 C 
ENDBRANCH   2   3
BRANCH   2   5
ATOM      5  C   UNL     1       5.511  -7.990  10.011  0.00  0.00    +0.000 C 
ATOM      6  C   UNL     1       5.505  -8.842  11.296  0.00  0.00    +0.000 C 
ENDBRANCH   2   5
TORSDOF 2
ENDMDL
MODEL 2
REMARK VINA RESULT:      -2.7     17.699     19.118
REMARK  Name = 7288_3Pentanone.pdbqt.pdb
REMARK  2 active torsions:
REMARK  status: ('A' for Active; 'I' for Inactive)
REMARK    1  A    between atoms: C_2  and  C_3
REMARK    2  A    between atoms: C_2  and  C_5
REMARK                            x       y       z     vdW  Elec       q    Type
REMARK                         _______ _______ _______ _____ _____    ______ ____
ROOT
ATOM      1  O   UNL     1      -8.111   4.786   3.821  0.00  0.00    +0.000 OA
ATOM      2  C   UNL     1      -8.469   5.068   4.958  0.00  0.00    +0.000 C 
ENDROOT
BRANCH   2   3
ATOM      3  C   UNL     1      -9.841   5.423   5.236  0.00  0.00    +0.000 C 
ATOM      4  C   UNL     1     -11.299   5.807   5.556  0.00  0.00    +0.000 C 
ENDBRANCH   2   3
BRANCH   2   5
ATOM      5  C   UNL     1      -7.532   5.055   6.056  0.00  0.00    +0.000 C 
ATOM      6  C   UNL     1      -6.515   5.027   7.215  0.00  0.00    +0.000 C 
ENDBRANCH   2   5
TORSDOF 2
ENDMDL
MODEL 3
REMARK VINA RESULT:      -2.6     20.973     21.081
REMARK  Name = 7288_3Pentanone.pdbqt.pdb
REMARK  2 active torsions:
REMARK  status: ('A' for Active; 'I' for Inactive)
REMARK    1  A    between atoms: C_2  and  C_3
REMARK    2  A    between atoms: C_2  and  C_5
REMARK                            x       y       z     vdW  Elec       q    Type
REMARK                         _______ _______ _______ _____ _____    ______ ____
ROOT
ATOM      1  O   UNL     1     -13.801  -7.402   8.177  0.00  0.00    +0.000 OA
ATOM      2  C   UNL     1     -14.866  -7.180   7.615  0.00  0.00    +0.000 C 
ENDROOT
BRANCH   2   3
ATOM      3  C   UNL     1     -14.987  -7.301   6.181  0.00  0.00    +0.000 C 
ATOM      4  C   UNL     1     -15.108  -7.453   4.652  0.00  0.00    +0.000 C 
ENDBRANCH   2   3
BRANCH   2   5
ATOM      5  C   UNL     1     -16.034  -6.789   8.368  0.00  0.00    +0.000 C 
ATOM      6  C   UNL     1     -17.281  -6.393   9.184  0.00  0.00    +0.000 C 
ENDBRANCH   2   5
TORSDOF 2
ENDMDL
MODEL 4
REMARK VINA RESULT:      -2.6     20.569     20.846
REMARK  Name = 7288_3Pentanone.pdbqt.pdb
REMARK  2 active torsions:
REMARK  status: ('A' for Active; 'I' for Inactive)
REMARK    1  A    between atoms: C_2  and  C_3
REMARK    2  A    between atoms: C_2  and  C_5
REMARK                            x       y       z     vdW  Elec       q    Type
REMARK                         _______ _______ _______ _____ _____    ______ ____
ROOT
ATOM      1  O   UNL     1     -13.991  -4.709   5.194  0.00  0.00    +0.000 OA
ATOM      2  C   UNL     1     -14.437  -5.844   5.073  0.00  0.00    +0.000 C 
ENDROOT
BRANCH   2   3
ATOM      3  C   UNL     1     -14.814  -6.619   6.231  0.00  0.00    +0.000 C 
ATOM      4  C   UNL     1     -15.219  -7.467   7.452  0.00  0.00    +0.000 C 
ENDBRANCH   2   3
BRANCH   2   5
ATOM      5  C   UNL     1     -14.600  -6.440   3.768  0.00  0.00    +0.000 C 
ATOM      6  C   UNL     1     -14.787  -7.059   2.368  0.00  0.00    +0.000 C 
ENDBRANCH   2   5
TORSDOF 2
ENDMDL
MODEL 5
REMARK VINA RESULT:      -2.6     19.097     19.281
REMARK  Name = 7288_3Pentanone.pdbqt.pdb
REMARK  2 active torsions:
REMARK  status: ('A' for Active; 'I' for Inactive)
REMARK    1  A    between atoms: C_2  and  C_3
REMARK    2  A    between atoms: C_2  and  C_5
REMARK                            x       y       z     vdW  Elec       q    Type
REMARK                         _______ _______ _______ _____ _____    ______ ____
ROOT
ATOM      1  O   UNL     1     -11.987  -8.288   7.840  0.00  0.00    +0.000 OA
ATOM      2  C   UNL     1     -12.931  -8.210   7.064  0.00  0.00    +0.000 C 
ENDROOT
BRANCH   2   3
ATOM      3  C   UNL     1     -12.803  -8.653   5.696  0.00  0.00    +0.000 C 
ATOM      4  C   UNL     1     -12.680  -9.145   4.240  0.00  0.00    +0.000 C 
ENDBRANCH   2   3
BRANCH   2   5
ATOM      5  C   UNL     1     -14.201  -7.674   7.493  0.00  0.00    +0.000 C 
ATOM      6  C   UNL     1     -15.568  -7.122   7.946  0.00  0.00    +0.000 C 
ENDBRANCH   2   5
TORSDOF 2
ENDMDL
MODEL 6
REMARK VINA RESULT:      -2.4     21.195     22.011
REMARK  Name = 7288_3Pentanone.pdbqt.pdb
REMARK  2 active torsions:
REMARK  status: ('A' for Active; 'I' for Inactive)
REMARK    1  A    between atoms: C_2  and  C_3
REMARK    2  A    between atoms: C_2  and  C_5
REMARK                            x       y       z     vdW  Elec       q    Type
REMARK                         _______ _______ _______ _____ _____    ______ ____
ROOT
ATOM      1  O   UNL     1      -7.227  -5.688  24.996  0.00  0.00    +0.000 OA
ATOM      2  C   UNL     1      -7.813  -5.002  25.825  0.00  0.00    +0.000 C 
ENDROOT
BRANCH   2   3
ATOM      3  C   UNL     1      -8.937  -5.529  26.562  0.00  0.00    +0.000 C 
ATOM      4  C   UNL     1     -10.152  -6.082  27.332  0.00  0.00    +0.000 C 
ENDBRANCH   2   3
BRANCH   2   5
ATOM      5  C   UNL     1      -7.397  -3.646  26.091  0.00  0.00    +0.000 C 
ATOM      6  C   UNL     1      -6.932  -2.205  26.385  0.00  0.00    +0.000 C 
ENDBRANCH   2   5
TORSDOF 2
ENDMDL
MODEL 7
REMARK VINA RESULT:      -2.4      1.885      3.936
REMARK  Name = 7288_3Pentanone.pdbqt.pdb
REMARK  2 active torsions:
REMARK  status: ('A' for Active; 'I' for Inactive)
REMARK    1  A    between atoms: C_2  and  C_3
REMARK    2  A    between atoms: C_2  and  C_5
REMARK                            x       y       z     vdW  Elec       q    Type
REMARK                         _______ _______ _______ _____ _____    ______ ____
ROOT
ATOM      1  O   UNL     1       7.009  -9.514  10.307  0.00  0.00    +0.000 OA
ATOM      2  C   UNL     1       5.970  -8.900  10.516  0.00  0.00    +0.000 C 
ENDROOT
BRANCH   2   3
ATOM      3  C   UNL     1       5.174  -9.169  11.690  0.00  0.00    +0.000 C 
ATOM      4  C   UNL     1       4.317  -9.477  12.934  0.00  0.00    +0.000 C 
ENDBRANCH   2   3
BRANCH   2   5
ATOM      5  C   UNL     1       5.509  -7.888   9.596  0.00  0.00    +0.000 C 
ATOM      6  C   UNL     1       5.036  -6.811   8.599  0.00  0.00    +0.000 C 
ENDBRANCH   2   5
TORSDOF 2
ENDMDL
MODEL 8
REMARK VINA RESULT:      -2.4     26.588     26.929
REMARK  Name = 7288_3Pentanone.pdbqt.pdb
REMARK  2 active torsions:
REMARK  status: ('A' for Active; 'I' for Inactive)
REMARK    1  A    between atoms: C_2  and  C_3
REMARK    2  A    between atoms: C_2  and  C_5
REMARK                            x       y       z     vdW  Elec       q    Type
REMARK                         _______ _______ _______ _____ _____    ______ ____
ROOT
ATOM      1  O   UNL     1     -20.227  -3.577  18.306  0.00  0.00    +0.000 OA
ATOM      2  C   UNL     1     -19.649  -4.536  18.804  0.00  0.00    +0.000 C 
ENDROOT
BRANCH   2   3
ATOM      3  C   UNL     1     -19.761  -4.818  20.215  0.00  0.00    +0.000 C 
ATOM      4  C   UNL     1     -19.857  -5.116  21.724  0.00  0.00    +0.000 C 
ENDBRANCH   2   3
BRANCH   2   5
ATOM      5  C   UNL     1     -18.836  -5.413  17.994  0.00  0.00    +0.000 C 
ATOM      6  C   UNL     1     -17.950  -6.346  17.145  0.00  0.00    +0.000 C 
ENDBRANCH   2   5
TORSDOF 2
ENDMDL
MODEL 9
REMARK VINA RESULT:      -2.4     26.512     26.809
REMARK  Name = 7288_3Pentanone.pdbqt.pdb
REMARK  2 active torsions:
REMARK  status: ('A' for Active; 'I' for Inactive)
REMARK    1  A    between atoms: C_2  and  C_3
REMARK    2  A    between atoms: C_2  and  C_5
REMARK                            x       y       z     vdW  Elec       q    Type
REMARK                         _______ _______ _______ _____ _____    ______ ____
ROOT
ATOM      1  O   UNL     1     -20.982  -4.676  18.434  0.00  0.00    +0.000 OA
ATOM      2  C   UNL     1     -19.839  -4.918  18.800  0.00  0.00    +0.000 C 
ENDROOT
BRANCH   2   3
ATOM      3  C   UNL     1     -18.860  -5.440  17.875  0.00  0.00    +0.000 C 
ATOM      4  C   UNL     1     -17.811  -6.016  16.904  0.00  0.00    +0.000 C 
ENDBRANCH   2   3
BRANCH   2   5
ATOM      5  C   UNL     1     -19.433  -4.689  20.166  0.00  0.00    +0.000 C 
ATOM      6  C   UNL     1     -18.978  -4.445  21.619  0.00  0.00    +0.000 C 
ENDBRANCH   2   5
TORSDOF 2
ENDMDL
