REMARK  Name = 73299_Hederagenin.pdbqt.pdb
REMARK  5 active torsions:
REMARK  status: ('A' for Active; 'I' for Inactive)
REMARK    1  A    between atoms: C_9  and  C_35
REMARK    2  A    between atoms: C_14  and  C_32
REMARK    3  A    between atoms: C_17  and  O_29
REMARK    4  A    between atoms: C_32  and  O_33
REMARK    5  A    between atoms: C_35  and  O_36
REMARK                            x       y       z     vdW  Elec       q    Type
REMARK                         _______ _______ _______ _____ _____    ______ ____
ROOT
ATOM      1  C   UNL     1      -0.680  -1.297   0.072  0.00  0.00    +0.000 C 
ATOM      2  C   UNL     1      -1.434  -0.225   0.965  0.00  0.00    +0.000 C 
ATOM      3  C   UNL     1      -2.960  -0.148   1.083  0.00  0.00    +0.000 C 
ATOM      4  C   UNL     1       0.618  -0.646  -0.724  0.00  0.00    +0.000 C 
ATOM      5  C   UNL     1      -3.788  -0.534  -0.177  0.00  0.00    +0.000 C 
ATOM      6  C   UNL     1      -1.687  -1.793  -0.873  0.00  0.00    +0.000 C 
ATOM      7  C   UNL     1      -3.135  -1.468  -1.029  0.00  0.00    +0.000 C 
ATOM      8  C   UNL     1       1.571   0.223   0.264  0.00  0.00    +0.000 C 
ATOM      9  C   UNL     1      -5.058   0.217  -0.611  0.00  0.00    +0.000 C 
ATOM     10  C   UNL     1       3.050   0.203   0.243  0.00  0.00    +0.000 C 
ATOM     11  C   UNL     1      -0.532   0.705   1.572  0.00  0.00    +0.000 C 
ATOM     12  C   UNL     1      -3.363   1.219   1.398  0.00  0.00    +0.000 C 
ATOM     13  C   UNL     1       1.533  -1.658  -1.284  0.00  0.00    +0.000 C 
ATOM     14  C   UNL     1       3.927  -1.120  -0.209  0.00  0.00    +0.000 C 
ATOM     15  C   UNL     1      -0.231  -2.463   1.044  0.00  0.00    +0.000 C 
ATOM     16  C   UNL     1       3.017  -1.859  -1.084  0.00  0.00    +0.000 C 
ATOM     17  C   UNL     1      -5.489   1.463   0.208  0.00  0.00    +0.000 C 
ATOM     18  C   UNL     1       0.916   0.850   1.198  0.00  0.00    +0.000 C 
ATOM     19  C   UNL     1      -3.390  -1.102   2.227  0.00  0.00    +0.000 C 
ATOM     20  C   UNL     1      -4.540   2.068   1.051  0.00  0.00    +0.000 C 
ATOM     21  C   UNL     1       0.176   0.365  -1.869  0.00  0.00    +0.000 C 
ATOM     22  C   UNL     1       3.752   1.478   0.092  0.00  0.00    +0.000 C 
ATOM     23  C   UNL     1       5.133  -0.547  -0.865  0.00  0.00    +0.000 C 
ATOM     24  C   UNL     1       4.986   2.149  -0.466  0.00  0.00    +0.000 C 
ATOM     25  C   UNL     1      -6.257  -0.788  -0.620  0.00  0.00    +0.000 C 
ATOM     26  C   UNL     1       5.651   0.910  -0.983  0.00  0.00    +0.000 C 
ATOM     27  C   UNL     1       4.624   3.122  -1.603  0.00  0.00    +0.000 C 
ATOM     28  C   UNL     1       5.811   2.824   0.644  0.00  0.00    +0.000 C 
ENDROOT
BRANCH  17  29
ATOM     29  O   UNL     1      -6.825   1.795   0.358  0.00  0.00    +0.000 OA
ATOM     30  H   UNL     1      -7.401   1.117  -0.053  0.00  0.00    +0.000 HD
ENDBRANCH  17  29
BRANCH  14  32
ATOM     31  O   UNL     1       4.509  -1.390   2.169  0.00  0.00    +0.000 OA
ATOM     32  C   UNL     1       4.305  -1.882   1.067  0.00  0.00    +0.000 C 
BRANCH  32  33
ATOM     33  O   UNL     1       4.483  -3.210   0.891  0.00  0.00    +0.000 OA
ATOM     34  H   UNL     1       4.739  -3.553   1.774  0.00  0.00    +0.000 HD
ENDBRANCH  32  33
ENDBRANCH  14  32
BRANCH   9  35
ATOM     35  C   UNL     1      -4.830   0.725  -2.001  0.00  0.00    +0.000 C 
BRANCH  35  36
ATOM     36  O   UNL     1      -4.613   1.172  -3.241  0.00  0.00    +0.000 OA
ATOM     37  H   UNL     1      -5.274   0.816  -3.863  0.00  0.00    +0.000 HD
ENDBRANCH  35  36
ENDBRANCH   9  35
TORSDOF 5
