MODEL 1
REMARK VINA RESULT:      -6.3      0.000      0.000
REMARK  Name = 73299_Hederagenin.pdbqt.pdb
REMARK  5 active torsions:
REMARK  status: ('A' for Active; 'I' for Inactive)
REMARK    1  A    between atoms: C_9  and  C_35
REMARK    2  A    between atoms: C_14  and  C_32
REMARK    3  A    between atoms: C_17  and  O_29
REMARK    4  A    between atoms: C_32  and  O_33
REMARK    5  A    between atoms: C_35  and  O_36
REMARK                            x       y       z     vdW  Elec       q    Type
REMARK                         _______ _______ _______ _____ _____    ______ ____
ROOT
ATOM      1  C   UNL     1       0.140 -15.925  19.714  0.00  0.00    +0.000 C 
ATOM      2  C   UNL     1      -0.002 -14.382  19.375  0.00  0.00    +0.000 C 
ATOM      3  C   UNL     1       1.080 -13.345  19.694  0.00  0.00    +0.000 C 
ATOM      4  C   UNL     1      -1.275 -16.574  20.279  0.00  0.00    +0.000 C 
ATOM      5  C   UNL     1       1.928 -13.578  20.978  0.00  0.00    +0.000 C 
ATOM      6  C   UNL     1       1.200 -16.005  20.725  0.00  0.00    +0.000 C 
ATOM      7  C   UNL     1       2.053 -14.948  21.342  0.00  0.00    +0.000 C 
ATOM      8  C   UNL     1      -2.545 -16.186  19.342  0.00  0.00    +0.000 C 
ATOM      9  C   UNL     1       2.358 -12.441  21.920  0.00  0.00    +0.000 C 
ATOM     10  C   UNL     1      -3.629 -17.118  18.962  0.00  0.00    +0.000 C 
ATOM     11  C   UNL     1      -1.282 -14.065  18.821  0.00  0.00    +0.000 C 
ATOM     12  C   UNL     1       0.469 -12.032  19.875  0.00  0.00    +0.000 C 
ATOM     13  C   UNL     1      -1.286 -18.048  20.282  0.00  0.00    +0.000 C 
ATOM     14  C   UNL     1      -3.401 -18.744  18.792  0.00  0.00    +0.000 C 
ATOM     15  C   UNL     1       0.608 -16.641  18.382  0.00  0.00    +0.000 C 
ATOM     16  C   UNL     1      -2.248 -19.025  19.647  0.00  0.00    +0.000 C 
ATOM     17  C   UNL     1       1.858 -11.004  21.610  0.00  0.00    +0.000 C 
ATOM     18  C   UNL     1      -2.461 -14.997  18.820  0.00  0.00    +0.000 C 
ATOM     19  C   UNL     1       2.062 -13.309  18.494  0.00  0.00    +0.000 C 
ATOM     20  C   UNL     1       0.766 -10.851  20.738  0.00  0.00    +0.000 C 
ATOM     21  C   UNL     1      -1.648 -16.034  21.727  0.00  0.00    +0.000 C 
ATOM     22  C   UNL     1      -5.007 -16.725  19.255  0.00  0.00    +0.000 C 
ATOM     23  C   UNL     1      -4.693 -19.337  19.231  0.00  0.00    +0.000 C 
ATOM     24  C   UNL     1      -6.384 -17.231  19.622  0.00  0.00    +0.000 C 
ATOM     25  C   UNL     1       3.921 -12.402  21.979  0.00  0.00    +0.000 C 
ATOM     26  C   UNL     1      -6.056 -18.692  19.592  0.00  0.00    +0.000 C 
ATOM     27  C   UNL     1      -6.790 -16.764  21.032  0.00  0.00    +0.000 C 
ATOM     28  C   UNL     1      -7.426 -16.852  18.555  0.00  0.00    +0.000 C 
ENDROOT
BRANCH  17  29
ATOM     29  O   UNL     1       2.630  -9.896  21.916  0.00  0.00    +0.000 OA
ATOM     30  H   UNL     1       3.558 -10.027  21.631  0.00  0.00    +0.000 HD
ENDBRANCH  17  29
BRANCH  14  32
ATOM     31  O   UNL     1      -2.182 -19.613  16.837  0.00  0.00    +0.000 OA
ATOM     32  C   UNL     1      -3.145 -19.022  17.306  0.00  0.00    +0.000 C 
BRANCH  32  33
ATOM     33  O   UNL     1      -4.064 -18.486  16.472  0.00  0.00    +0.000 OA
ATOM     34  H   UNL     1      -4.052 -19.059  15.676  0.00  0.00    +0.000 HD
ENDBRANCH  32  33
ENDBRANCH  14  32
BRANCH   9  35
ATOM     35  C   UNL     1       1.821 -12.754  23.282  0.00  0.00    +0.000 C 
BRANCH  35  36
ATOM     36  O   UNL     1       1.327 -13.031  24.492  0.00  0.00    +0.000 OA
ATOM     37  H   UNL     1       1.900 -13.659  24.969  0.00  0.00    +0.000 HD
ENDBRANCH  35  36
ENDBRANCH   9  35
TORSDOF 5
ENDMDL
MODEL 2
REMARK VINA RESULT:      -6.2     20.729     24.031
REMARK  Name = 73299_Hederagenin.pdbqt.pdb
REMARK  5 active torsions:
REMARK  status: ('A' for Active; 'I' for Inactive)
REMARK    1  A    between atoms: C_9  and  C_35
REMARK    2  A    between atoms: C_14  and  C_32
REMARK    3  A    between atoms: C_17  and  O_29
REMARK    4  A    between atoms: C_32  and  O_33
REMARK    5  A    between atoms: C_35  and  O_36
REMARK                            x       y       z     vdW  Elec       q    Type
REMARK                         _______ _______ _______ _____ _____    ______ ____
ROOT
ATOM      1  C   UNL     1     -12.525  -9.820   1.731  0.00  0.00    +0.000 C 
ATOM      2  C   UNL     1     -12.646  -8.298   2.159  0.00  0.00    +0.000 C 
ATOM      3  C   UNL     1     -12.683  -7.832   3.619  0.00  0.00    +0.000 C 
ATOM      4  C   UNL     1     -13.490 -10.184   0.435  0.00  0.00    +0.000 C 
ATOM      5  C   UNL     1     -13.372  -8.777   4.646  0.00  0.00    +0.000 C 
ATOM      6  C   UNL     1     -12.917 -10.590   2.917  0.00  0.00    +0.000 C 
ATOM      7  C   UNL     1     -13.320 -10.152   4.286  0.00  0.00    +0.000 C 
ATOM      8  C   UNL     1     -13.325  -9.111  -0.773  0.00  0.00    +0.000 C 
ATOM      9  C   UNL     1     -14.260  -8.267   5.794  0.00  0.00    +0.000 C 
ATOM     10  C   UNL     1     -13.259  -9.460  -2.209  0.00  0.00    +0.000 C 
ATOM     11  C   UNL     1     -12.802  -7.429   1.033  0.00  0.00    +0.000 C 
ATOM     12  C   UNL     1     -13.411  -6.570   3.717  0.00  0.00    +0.000 C 
ATOM     13  C   UNL     1     -13.160 -11.473  -0.200  0.00  0.00    +0.000 C 
ATOM     14  C   UNL     1     -12.639 -10.887  -2.762  0.00  0.00    +0.000 C 
ATOM     15  C   UNL     1     -10.999 -10.078   1.400  0.00  0.00    +0.000 C 
ATOM     16  C   UNL     1     -12.809 -11.801  -1.632  0.00  0.00    +0.000 C 
ATOM     17  C   UNL     1     -14.540  -6.743   5.883  0.00  0.00    +0.000 C 
ATOM     18  C   UNL     1     -13.107  -7.895  -0.362  0.00  0.00    +0.000 C 
ATOM     19  C   UNL     1     -11.218  -7.634   4.085  0.00  0.00    +0.000 C 
ATOM     20  C   UNL     1     -14.299  -5.953   4.745  0.00  0.00    +0.000 C 
ATOM     21  C   UNL     1     -15.035 -10.153   0.809  0.00  0.00    +0.000 C 
ATOM     22  C   UNL     1     -14.211  -8.819  -3.117  0.00  0.00    +0.000 C 
ATOM     23  C   UNL     1     -13.453 -11.191  -3.969  0.00  0.00    +0.000 C 
ATOM     24  C   UNL     1     -15.019  -8.994  -4.381  0.00  0.00    +0.000 C 
ATOM     25  C   UNL     1     -13.632  -8.719   7.154  0.00  0.00    +0.000 C 
ATOM     26  C   UNL     1     -14.514 -10.359  -4.735  0.00  0.00    +0.000 C 
ATOM     27  C   UNL     1     -16.529  -9.002  -4.079  0.00  0.00    +0.000 C 
ATOM     28  C   UNL     1     -14.639  -7.947  -5.443  0.00  0.00    +0.000 C 
ENDROOT
BRANCH  17  29
ATOM     29  O   UNL     1     -14.720  -6.118   7.105  0.00  0.00    +0.000 OA
ATOM     30  H   UNL     1     -15.554  -6.413   7.528  0.00  0.00    +0.000 HD
ENDBRANCH  17  29
BRANCH  14  32
ATOM     31  O   UNL     1     -10.232 -10.555  -2.356  0.00  0.00    +0.000 OA
ATOM     32  C   UNL     1     -11.172 -10.640  -3.135  0.00  0.00    +0.000 C 
BRANCH  32  33
ATOM     33  O   UNL     1     -10.960 -10.437  -4.454  0.00  0.00    +0.000 OA
ATOM     34  H   UNL     1     -11.636 -10.984  -4.909  0.00  0.00    +0.000 HD
ENDBRANCH  32  33
ENDBRANCH  14  32
BRANCH   9  35
ATOM     35  C   UNL     1     -15.608  -8.902   5.638  0.00  0.00    +0.000 C 
BRANCH  35  36
ATOM     36  O   UNL     1     -16.810  -9.471   5.513  0.00  0.00    +0.000 OA
ATOM     37  H   UNL     1     -16.740 -10.354   5.106  0.00  0.00    +0.000 HD
ENDBRANCH  35  36
ENDBRANCH   9  35
TORSDOF 5
ENDMDL
MODEL 3
REMARK VINA RESULT:      -6.1      9.602     14.614
REMARK  Name = 73299_Hederagenin.pdbqt.pdb
REMARK  5 active torsions:
REMARK  status: ('A' for Active; 'I' for Inactive)
REMARK    1  A    between atoms: C_9  and  C_35
REMARK    2  A    between atoms: C_14  and  C_32
REMARK    3  A    between atoms: C_17  and  O_29
REMARK    4  A    between atoms: C_32  and  O_33
REMARK    5  A    between atoms: C_35  and  O_36
REMARK                            x       y       z     vdW  Elec       q    Type
REMARK                         _______ _______ _______ _____ _____    ______ ____
ROOT
ATOM      1  C   UNL     1       7.243  -9.580  13.694  0.00  0.00    +0.000 C 
ATOM      2  C   UNL     1       5.728 -10.007  13.890  0.00  0.00    +0.000 C 
ATOM      3  C   UNL     1       5.294 -11.427  14.269  0.00  0.00    +0.000 C 
ATOM      4  C   UNL     1       7.443  -8.559  12.406  0.00  0.00    +0.000 C 
ATOM      5  C   UNL     1       6.158 -12.601  13.723  0.00  0.00    +0.000 C 
ATOM      6  C   UNL     1       7.978 -10.835  13.495  0.00  0.00    +0.000 C 
ATOM      7  C   UNL     1       7.519 -12.255  13.497  0.00  0.00    +0.000 C 
ATOM      8  C   UNL     1       6.377  -7.333  12.423  0.00  0.00    +0.000 C 
ATOM      9  C   UNL     1       5.556 -13.922  13.215  0.00  0.00    +0.000 C 
ATOM     10  C   UNL     1       6.701  -5.928  12.094  0.00  0.00    +0.000 C 
ATOM     11  C   UNL     1       4.822  -8.941  13.591  0.00  0.00    +0.000 C 
ATOM     12  C   UNL     1       3.947 -11.681  13.768  0.00  0.00    +0.000 C 
ATOM     13  C   UNL     1       8.752  -7.878  12.392  0.00  0.00    +0.000 C 
ATOM     14  C   UNL     1       8.187  -5.260  12.360  0.00  0.00    +0.000 C 
ATOM     15  C   UNL     1       7.701  -8.895  15.046  0.00  0.00    +0.000 C 
ATOM     16  C   UNL     1       9.094  -6.408  12.340  0.00  0.00    +0.000 C 
ATOM     17  C   UNL     1       4.010 -14.057  13.178  0.00  0.00    +0.000 C 
ATOM     18  C   UNL     1       5.212  -7.665  12.899  0.00  0.00    +0.000 C 
ATOM     19  C   UNL     1       5.308 -11.524  15.816  0.00  0.00    +0.000 C 
ATOM     20  C   UNL     1       3.236 -12.885  13.246  0.00  0.00    +0.000 C 
ATOM     21  C   UNL     1       7.209  -9.293  11.015  0.00  0.00    +0.000 C 
ATOM     22  C   UNL     1       5.916  -5.268  11.050  0.00  0.00    +0.000 C 
ATOM     23  C   UNL     1       8.350  -4.287  11.246  0.00  0.00    +0.000 C 
ATOM     24  C   UNL     1       5.951  -4.237   9.945  0.00  0.00    +0.000 C 
ATOM     25  C   UNL     1       6.119 -15.096  14.082  0.00  0.00    +0.000 C 
ATOM     26  C   UNL     1       7.365  -3.789  10.157  0.00  0.00    +0.000 C 
ATOM     27  C   UNL     1       5.759  -4.893   8.566  0.00  0.00    +0.000 C 
ATOM     28  C   UNL     1       4.943  -3.103  10.201  0.00  0.00    +0.000 C 
ENDROOT
BRANCH  17  29
ATOM     29  O   UNL     1       3.393 -15.279  13.385  0.00  0.00    +0.000 OA
ATOM     30  H   UNL     1       3.383 -15.809  12.560  0.00  0.00    +0.000 HD
ENDBRANCH  17  29
BRANCH  14  32
ATOM     31  O   UNL     1       9.097  -4.225  14.401  0.00  0.00    +0.000 OA
ATOM     32  C   UNL     1       8.135  -4.542  13.713  0.00  0.00    +0.000 C 
BRANCH  32  33
ATOM     33  O   UNL     1       6.886  -4.319  14.179  0.00  0.00    +0.000 OA
ATOM     34  H   UNL     1       6.817  -3.345  14.269  0.00  0.00    +0.000 HD
ENDBRANCH  32  33
ENDBRANCH  14  32
BRANCH   9  35
ATOM     35  C   UNL     1       5.996 -14.102  11.795  0.00  0.00    +0.000 C 
BRANCH  35  36
ATOM     36  O   UNL     1       6.399 -14.272  10.533  0.00  0.00    +0.000 OA
ATOM     37  H   UNL     1       7.213 -14.808  10.494  0.00  0.00    +0.000 HD
ENDBRANCH  35  36
ENDBRANCH   9  35
TORSDOF 5
ENDMDL
MODEL 4
REMARK VINA RESULT:      -6.1     13.703     16.365
REMARK  Name = 73299_Hederagenin.pdbqt.pdb
REMARK  5 active torsions:
REMARK  status: ('A' for Active; 'I' for Inactive)
REMARK    1  A    between atoms: C_9  and  C_35
REMARK    2  A    between atoms: C_14  and  C_32
REMARK    3  A    between atoms: C_17  and  O_29
REMARK    4  A    between atoms: C_32  and  O_33
REMARK    5  A    between atoms: C_35  and  O_36
REMARK                            x       y       z     vdW  Elec       q    Type
REMARK                         _______ _______ _______ _____ _____    ______ ____
ROOT
ATOM      1  C   UNL     1     -13.917 -15.925  11.817  0.00  0.00    +0.000 C 
ATOM      2  C   UNL     1     -15.199 -16.857  11.767  0.00  0.00    +0.000 C 
ATOM      3  C   UNL     1     -16.477 -16.580  12.566  0.00  0.00    +0.000 C 
ATOM      4  C   UNL     1     -12.510 -16.797  11.838  0.00  0.00    +0.000 C 
ATOM      5  C   UNL     1     -16.308 -15.905  13.958  0.00  0.00    +0.000 C 
ATOM      6  C   UNL     1     -14.064 -15.127  13.040  0.00  0.00    +0.000 C 
ATOM      7  C   UNL     1     -15.150 -15.085  14.063  0.00  0.00    +0.000 C 
ATOM      8  C   UNL     1     -12.483 -17.946  10.689  0.00  0.00    +0.000 C 
ATOM      9  C   UNL     1     -17.146 -16.295  15.188  0.00  0.00    +0.000 C 
ATOM     10  C   UNL     1     -11.309 -18.276   9.852  0.00  0.00    +0.000 C 
ATOM     11  C   UNL     1     -14.990 -18.022  10.962  0.00  0.00    +0.000 C 
ATOM     12  C   UNL     1     -17.175 -17.833  12.833  0.00  0.00    +0.000 C 
ATOM     13  C   UNL     1     -11.312 -15.988  11.544  0.00  0.00    +0.000 C 
ATOM     14  C   UNL     1     -10.162 -17.166   9.431  0.00  0.00    +0.000 C 
ATOM     15  C   UNL     1     -13.990 -14.983  10.547  0.00  0.00    +0.000 C 
ATOM     16  C   UNL     1     -10.242 -16.162  10.492  0.00  0.00    +0.000 C 
ATOM     17  C   UNL     1     -18.154 -17.466  15.047  0.00  0.00    +0.000 C 
ATOM     18  C   UNL     1     -13.649 -18.475  10.457  0.00  0.00    +0.000 C 
ATOM     19  C   UNL     1     -17.372 -15.649  11.708  0.00  0.00    +0.000 C 
ATOM     20  C   UNL     1     -18.006 -18.347  13.961  0.00  0.00    +0.000 C 
ATOM     21  C   UNL     1     -12.305 -17.576  13.209  0.00  0.00    +0.000 C 
ATOM     22  C   UNL     1     -10.846 -19.664   9.835  0.00  0.00    +0.000 C 
ATOM     23  C   UNL     1      -8.901 -17.952   9.377  0.00  0.00    +0.000 C 
ATOM     24  C   UNL     1      -9.636 -20.560   9.708  0.00  0.00    +0.000 C 
ATOM     25  C   UNL     1     -17.939 -15.037  15.674  0.00  0.00    +0.000 C 
ATOM     26  C   UNL     1      -8.628 -19.476   9.477  0.00  0.00    +0.000 C 
ATOM     27  C   UNL     1      -9.367 -21.322  11.019  0.00  0.00    +0.000 C 
ATOM     28  C   UNL     1      -9.756 -21.501   8.496  0.00  0.00    +0.000 C 
ENDROOT
BRANCH  17  29
ATOM     29  O   UNL     1     -19.338 -17.483  15.765  0.00  0.00    +0.000 OA
ATOM     30  H   UNL     1     -19.400 -16.702  16.353  0.00  0.00    +0.000 HD
ENDBRANCH  17  29
BRANCH  14  32
ATOM     31  O   UNL     1     -11.115 -17.237   7.160  0.00  0.00    +0.000 OA
ATOM     32  C   UNL     1     -10.532 -16.624   8.045  0.00  0.00    +0.000 C 
BRANCH  32  33
ATOM     33  O   UNL     1     -10.092 -15.370   7.801  0.00  0.00    +0.000 OA
ATOM     34  H   UNL     1     -10.516 -14.812   8.488  0.00  0.00    +0.000 HD
ENDBRANCH  32  33
ENDBRANCH  14  32
BRANCH   9  35
ATOM     35  C   UNL     1     -16.197 -16.725  16.263  0.00  0.00    +0.000 C 
BRANCH  35  36
ATOM     36  O   UNL     1     -15.355 -17.098  17.231  0.00  0.00    +0.000 OA
ATOM     37  H   UNL     1     -14.948 -17.960  17.029  0.00  0.00    +0.000 HD
ENDBRANCH  35  36
ENDBRANCH   9  35
TORSDOF 5
ENDMDL
MODEL 5
REMARK VINA RESULT:      -5.7     13.566     15.988
REMARK  Name = 73299_Hederagenin.pdbqt.pdb
REMARK  5 active torsions:
REMARK  status: ('A' for Active; 'I' for Inactive)
REMARK    1  A    between atoms: C_9  and  C_35
REMARK    2  A    between atoms: C_14  and  C_32
REMARK    3  A    between atoms: C_17  and  O_29
REMARK    4  A    between atoms: C_32  and  O_33
REMARK    5  A    between atoms: C_35  and  O_36
REMARK                            x       y       z     vdW  Elec       q    Type
REMARK                         _______ _______ _______ _____ _____    ______ ____
ROOT
ATOM      1  C   UNL     1     -13.133 -16.901   9.598  0.00  0.00    +0.000 C 
ATOM      2  C   UNL     1     -11.566 -16.678   9.691  0.00  0.00    +0.000 C 
ATOM      3  C   UNL     1     -10.618 -16.837   8.497  0.00  0.00    +0.000 C 
ATOM      4  C   UNL     1     -13.732 -17.693  10.923  0.00  0.00    +0.000 C 
ATOM      5  C   UNL     1     -10.985 -17.919   7.441  0.00  0.00    +0.000 C 
ATOM      6  C   UNL     1     -13.342 -17.682   8.373  0.00  0.00    +0.000 C 
ATOM      7  C   UNL     1     -12.380 -18.179   7.346  0.00  0.00    +0.000 C 
ATOM      8  C   UNL     1     -13.209 -17.041  12.316  0.00  0.00    +0.000 C 
ATOM      9  C   UNL     1      -9.939 -18.819   6.761  0.00  0.00    +0.000 C 
ATOM     10  C   UNL     1     -14.048 -16.828  13.515  0.00  0.00    +0.000 C 
ATOM     11  C   UNL     1     -11.137 -16.400  11.028  0.00  0.00    +0.000 C 
ATOM     12  C   UNL     1      -9.286 -17.202   8.969  0.00  0.00    +0.000 C 
ATOM     13  C   UNL     1     -15.201 -17.621  11.037  0.00  0.00    +0.000 C 
ATOM     14  C   UNL     1     -15.670 -16.532  13.440  0.00  0.00    +0.000 C 
ATOM     15  C   UNL     1     -13.787 -15.468   9.442  0.00  0.00    +0.000 C 
ATOM     16  C   UNL     1     -16.075 -17.132  12.169  0.00  0.00    +0.000 C 
ATOM     17  C   UNL     1      -8.458 -18.688   7.207  0.00  0.00    +0.000 C 
ATOM     18  C   UNL     1     -11.995 -16.577  12.248  0.00  0.00    +0.000 C 
ATOM     19  C   UNL     1     -10.561 -15.474   7.761  0.00  0.00    +0.000 C 
ATOM     20  C   UNL     1      -8.184 -18.053   8.431  0.00  0.00    +0.000 C 
ATOM     21  C   UNL     1     -13.268 -19.213  10.976  0.00  0.00    +0.000 C 
ATOM     22  C   UNL     1     -13.594 -17.403  14.782  0.00  0.00    +0.000 C 
ATOM     23  C   UNL     1     -16.213 -17.180  14.664  0.00  0.00    +0.000 C 
ATOM     24  C   UNL     1     -14.040 -18.002  16.096  0.00  0.00    +0.000 C 
ATOM     25  C   UNL     1      -9.997 -18.577   5.216  0.00  0.00    +0.000 C 
ATOM     26  C   UNL     1     -15.514 -17.831  15.885  0.00  0.00    +0.000 C 
ATOM     27  C   UNL     1     -13.643 -19.486  16.195  0.00  0.00    +0.000 C 
ATOM     28  C   UNL     1     -13.531 -17.177  17.292  0.00  0.00    +0.000 C 
ENDROOT
BRANCH  17  29
ATOM     29  O   UNL     1      -7.420 -18.898   6.315  0.00  0.00    +0.000 OA
ATOM     30  H   UNL     1      -7.760 -19.006   5.403  0.00  0.00    +0.000 HD
ENDBRANCH  17  29
BRANCH  14  32
ATOM     31  O   UNL     1     -16.931 -14.416  13.399  0.00  0.00    +0.000 OA
ATOM     32  C   UNL     1     -15.865 -15.012  13.490  0.00  0.00    +0.000 C 
BRANCH  32  33
ATOM     33  O   UNL     1     -14.716 -14.305  13.576  0.00  0.00    +0.000 OA
ATOM     34  H   UNL     1     -14.019 -14.908  13.239  0.00  0.00    +0.000 HD
ENDBRANCH  32  33
ENDBRANCH  14  32
BRANCH   9  35
ATOM     35  C   UNL     1     -10.309 -20.240   7.052  0.00  0.00    +0.000 C 
BRANCH  35  36
ATOM     36  O   UNL     1     -10.630 -21.508   7.324  0.00  0.00    +0.000 OA
ATOM     37  H   UNL     1      -9.971 -22.124   6.953  0.00  0.00    +0.000 HD
ENDBRANCH  35  36
ENDBRANCH   9  35
TORSDOF 5
ENDMDL
MODEL 6
REMARK VINA RESULT:      -5.5     14.102     16.681
REMARK  Name = 73299_Hederagenin.pdbqt.pdb
REMARK  5 active torsions:
REMARK  status: ('A' for Active; 'I' for Inactive)
REMARK    1  A    between atoms: C_9  and  C_35
REMARK    2  A    between atoms: C_14  and  C_32
REMARK    3  A    between atoms: C_17  and  O_29
REMARK    4  A    between atoms: C_32  and  O_33
REMARK    5  A    between atoms: C_35  and  O_36
REMARK                            x       y       z     vdW  Elec       q    Type
REMARK                         _______ _______ _______ _____ _____    ______ ____
ROOT
ATOM      1  C   UNL     1     -12.711 -17.137  11.609  0.00  0.00    +0.000 C 
ATOM      2  C   UNL     1     -12.833 -18.291  10.528  0.00  0.00    +0.000 C 
ATOM      3  C   UNL     1     -11.631 -18.878   9.780  0.00  0.00    +0.000 C 
ATOM      4  C   UNL     1     -13.932 -16.027  11.481  0.00  0.00    +0.000 C 
ATOM      5  C   UNL     1     -10.454 -17.911   9.461  0.00  0.00    +0.000 C 
ATOM      6  C   UNL     1     -11.403 -16.517  11.369  0.00  0.00    +0.000 C 
ATOM      7  C   UNL     1     -10.327 -16.837  10.386  0.00  0.00    +0.000 C 
ATOM      8  C   UNL     1     -15.394 -16.731  11.384  0.00  0.00    +0.000 C 
ATOM      9  C   UNL     1      -9.677 -17.942   8.135  0.00  0.00    +0.000 C 
ATOM     10  C   UNL     1     -16.608 -16.254  12.081  0.00  0.00    +0.000 C 
ATOM     11  C   UNL     1     -14.194 -18.653  10.274  0.00  0.00    +0.000 C 
ATOM     12  C   UNL     1     -12.060 -19.395   8.484  0.00  0.00    +0.000 C 
ATOM     13  C   UNL     1     -14.052 -15.144  12.656  0.00  0.00    +0.000 C 
ATOM     14  C   UNL     1     -16.564 -15.464  13.530  0.00  0.00    +0.000 C 
ATOM     15  C   UNL     1     -12.722 -17.841  13.027  0.00  0.00    +0.000 C 
ATOM     16  C   UNL     1     -15.230 -14.863  13.559  0.00  0.00    +0.000 C 
ATOM     17  C   UNL     1     -10.138 -18.937   7.037  0.00  0.00    +0.000 C 
ATOM     18  C   UNL     1     -15.383 -17.862  10.740  0.00  0.00    +0.000 C 
ATOM     19  C   UNL     1     -11.059 -20.030  10.645  0.00  0.00    +0.000 C 
ATOM     20  C   UNL     1     -11.429 -19.486   7.135  0.00  0.00    +0.000 C 
ATOM     21  C   UNL     1     -13.808 -15.146  10.163  0.00  0.00    +0.000 C 
ATOM     22  C   UNL     1     -17.800 -15.982  11.277  0.00  0.00    +0.000 C 
ATOM     23  C   UNL     1     -17.702 -14.509  13.456  0.00  0.00    +0.000 C 
ATOM     24  C   UNL     1     -19.034 -15.118  11.152  0.00  0.00    +0.000 C 
ATOM     25  C   UNL     1      -8.171 -18.234   8.443  0.00  0.00    +0.000 C 
ATOM     26  C   UNL     1     -18.841 -14.338  12.416  0.00  0.00    +0.000 C 
ATOM     27  C   UNL     1     -18.959 -14.218   9.906  0.00  0.00    +0.000 C 
ATOM     28  C   UNL     1     -20.319 -15.964  11.189  0.00  0.00    +0.000 C 
ENDROOT
BRANCH  17  29
ATOM     29  O   UNL     1      -9.230 -19.514   6.165  0.00  0.00    +0.000 OA
ATOM     30  H   UNL     1      -9.650 -20.236   5.652  0.00  0.00    +0.000 HD
ENDBRANCH  17  29
BRANCH  14  32
ATOM     31  O   UNL     1     -17.865 -16.794  15.144  0.00  0.00    +0.000 OA
ATOM     32  C   UNL     1     -16.791 -16.506  14.632  0.00  0.00    +0.000 C 
BRANCH  32  33
ATOM     33  O   UNL     1     -15.660 -17.085  15.093  0.00  0.00    +0.000 OA
ATOM     34  H   UNL     1     -15.959 -17.714  15.785  0.00  0.00    +0.000 HD
ENDBRANCH  32  33
ENDBRANCH  14  32
BRANCH   9  35
ATOM     35  C   UNL     1      -9.798 -16.587   7.508  0.00  0.00    +0.000 C 
BRANCH  35  36
ATOM     36  O   UNL     1      -9.912 -15.374   6.961  0.00  0.00    +0.000 OA
ATOM     37  H   UNL     1     -10.426 -14.777   7.536  0.00  0.00    +0.000 HD
ENDBRANCH  35  36
ENDBRANCH   9  35
TORSDOF 5
ENDMDL
MODEL 7
REMARK VINA RESULT:      -5.4     13.941     16.431
REMARK  Name = 73299_Hederagenin.pdbqt.pdb
REMARK  5 active torsions:
REMARK  status: ('A' for Active; 'I' for Inactive)
REMARK    1  A    between atoms: C_9  and  C_35
REMARK    2  A    between atoms: C_14  and  C_32
REMARK    3  A    between atoms: C_17  and  O_29
REMARK    4  A    between atoms: C_32  and  O_33
REMARK    5  A    between atoms: C_35  and  O_36
REMARK                            x       y       z     vdW  Elec       q    Type
REMARK                         _______ _______ _______ _____ _____    ______ ____
ROOT
ATOM      1  C   UNL     1     -11.346 -18.075   9.907  0.00  0.00    +0.000 C 
ATOM      2  C   UNL     1     -12.055 -18.464   8.542  0.00  0.00    +0.000 C 
ATOM      3  C   UNL     1     -11.289 -18.777   7.252  0.00  0.00    +0.000 C 
ATOM      4  C   UNL     1     -12.149 -16.868  10.707  0.00  0.00    +0.000 C 
ATOM      5  C   UNL     1      -9.961 -18.001   7.012  0.00  0.00    +0.000 C 
ATOM      6  C   UNL     1      -9.991 -17.654   9.534  0.00  0.00    +0.000 C 
ATOM      7  C   UNL     1      -9.306 -17.599   8.210  0.00  0.00    +0.000 C 
ATOM      8  C   UNL     1     -13.744 -17.159  10.816  0.00  0.00    +0.000 C 
ATOM      9  C   UNL     1      -9.532 -17.476   5.632  0.00  0.00    +0.000 C 
ATOM     10  C   UNL     1     -14.567 -16.912  12.019  0.00  0.00    +0.000 C 
ATOM     11  C   UNL     1     -13.481 -18.404   8.637  0.00  0.00    +0.000 C 
ATOM     12  C   UNL     1     -12.123 -18.468   6.095  0.00  0.00    +0.000 C 
ATOM     13  C   UNL     1     -11.730 -16.714  12.112  0.00  0.00    +0.000 C 
ATOM     14  C   UNL     1     -13.969 -17.004  13.555  0.00  0.00    +0.000 C 
ATOM     15  C   UNL     1     -11.281 -19.396  10.777  0.00  0.00    +0.000 C 
ATOM     16  C   UNL     1     -12.539 -16.742  13.388  0.00  0.00    +0.000 C 
ATOM     17  C   UNL     1     -10.508 -17.666   4.439  0.00  0.00    +0.000 C 
ATOM     18  C   UNL     1     -14.230 -17.778   9.779  0.00  0.00    +0.000 C 
ATOM     19  C   UNL     1     -10.944 -20.288   7.267  0.00  0.00    +0.000 C 
ATOM     20  C   UNL     1     -11.855 -17.957   4.719  0.00  0.00    +0.000 C 
ATOM     21  C   UNL     1     -12.033 -15.470   9.959  0.00  0.00    +0.000 C 
ATOM     22  C   UNL     1     -15.752 -16.065  11.879  0.00  0.00    +0.000 C 
ATOM     23  C   UNL     1     -14.733 -15.970  14.303  0.00  0.00    +0.000 C 
ATOM     24  C   UNL     1     -16.644 -15.065  12.577  0.00  0.00    +0.000 C 
ATOM     25  C   UNL     1      -8.168 -18.137   5.244  0.00  0.00    +0.000 C 
ATOM     26  C   UNL     1     -15.950 -15.095  13.905  0.00  0.00    +0.000 C 
ATOM     27  C   UNL     1     -16.552 -13.678  11.914  0.00  0.00    +0.000 C 
ATOM     28  C   UNL     1     -18.093 -15.574  12.674  0.00  0.00    +0.000 C 
ENDROOT
BRANCH  17  29
ATOM     29  O   UNL     1     -10.036 -17.855   3.151  0.00  0.00    +0.000 OA
ATOM     30  H   UNL     1     -10.653 -17.468   2.494  0.00  0.00    +0.000 HD
ENDBRANCH  17  29
BRANCH  14  32
ATOM     31  O   UNL     1     -15.262 -18.735  14.737  0.00  0.00    +0.000 OA
ATOM     32  C   UNL     1     -14.277 -18.408  14.088  0.00  0.00    +0.000 C 
BRANCH  32  33
ATOM     33  O   UNL     1     -13.309 -19.320  13.850  0.00  0.00    +0.000 OA
ATOM     34  H   UNL     1     -12.499 -18.946  14.260  0.00  0.00    +0.000 HD
ENDBRANCH  32  33
ENDBRANCH  14  32
BRANCH   9  35
ATOM     35  C   UNL     1      -9.346 -15.995   5.750  0.00  0.00    +0.000 C 
BRANCH  35  36
ATOM     36  O   UNL     1      -9.174 -14.675   5.868  0.00  0.00    +0.000 OA
ATOM     37  H   UNL     1      -9.865 -14.280   6.430  0.00  0.00    +0.000 HD
ENDBRANCH  35  36
ENDBRANCH   9  35
TORSDOF 5
ENDMDL
MODEL 8
REMARK VINA RESULT:      -5.3     21.457     24.968
REMARK  Name = 73299_Hederagenin.pdbqt.pdb
REMARK  5 active torsions:
REMARK  status: ('A' for Active; 'I' for Inactive)
REMARK    1  A    between atoms: C_9  and  C_35
REMARK    2  A    between atoms: C_14  and  C_32
REMARK    3  A    between atoms: C_17  and  O_29
REMARK    4  A    between atoms: C_32  and  O_33
REMARK    5  A    between atoms: C_35  and  O_36
REMARK                            x       y       z     vdW  Elec       q    Type
REMARK                         _______ _______ _______ _____ _____    ______ ____
ROOT
ATOM      1  C   UNL     1     -21.202  -3.653  22.041  0.00  0.00    +0.000 C 
ATOM      2  C   UNL     1     -22.060  -3.178  20.796  0.00  0.00    +0.000 C 
ATOM      3  C   UNL     1     -22.335  -4.060  19.573  0.00  0.00    +0.000 C 
ATOM      4  C   UNL     1     -20.209  -2.456  22.610  0.00  0.00    +0.000 C 
ATOM      5  C   UNL     1     -21.216  -5.058  19.155  0.00  0.00    +0.000 C 
ATOM      6  C   UNL     1     -20.425  -4.802  21.562  0.00  0.00    +0.000 C 
ATOM      7  C   UNL     1     -20.395  -5.486  20.236  0.00  0.00    +0.000 C 
ATOM      8  C   UNL     1     -20.997  -1.050  22.811  0.00  0.00    +0.000 C 
ATOM      9  C   UNL     1     -20.850  -5.345  17.689  0.00  0.00    +0.000 C 
ATOM     10  C   UNL     1     -20.818  -0.139  23.963  0.00  0.00    +0.000 C 
ATOM     11  C   UNL     1     -22.471  -1.812  20.911  0.00  0.00    +0.000 C 
ATOM     12  C   UNL     1     -22.555  -3.223  18.398  0.00  0.00    +0.000 C 
ATOM     13  C   UNL     1     -19.656  -2.736  23.949  0.00  0.00    +0.000 C 
ATOM     14  C   UNL     1     -20.407  -0.665  25.473  0.00  0.00    +0.000 C 
ATOM     15  C   UNL     1     -22.230  -4.122  23.150  0.00  0.00    +0.000 C 
ATOM     16  C   UNL     1     -19.713  -1.929  25.224  0.00  0.00    +0.000 C 
ATOM     17  C   UNL     1     -21.584  -4.544  16.580  0.00  0.00    +0.000 C 
ATOM     18  C   UNL     1     -21.930  -0.846  21.927  0.00  0.00    +0.000 C 
ATOM     19  C   UNL     1     -23.607  -4.893  19.873  0.00  0.00    +0.000 C 
ATOM     20  C   UNL     1     -22.255  -3.363  16.943  0.00  0.00    +0.000 C 
ATOM     21  C   UNL     1     -19.024  -2.127  21.602  0.00  0.00    +0.000 C 
ATOM     22  C   UNL     1     -20.467   1.255  23.689  0.00  0.00    +0.000 C 
ATOM     23  C   UNL     1     -19.571   0.435  26.023  0.00  0.00    +0.000 C 
ATOM     24  C   UNL     1     -19.714   2.461  24.201  0.00  0.00    +0.000 C 
ATOM     25  C   UNL     1     -21.071  -6.868  17.405  0.00  0.00    +0.000 C 
ATOM     26  C   UNL     1     -19.254   1.857  25.492  0.00  0.00    +0.000 C 
ATOM     27  C   UNL     1     -18.533   2.813  23.279  0.00  0.00    +0.000 C 
ATOM     28  C   UNL     1     -20.656   3.657  24.430  0.00  0.00    +0.000 C 
ENDROOT
BRANCH  17  29
ATOM     29  O   UNL     1     -21.844  -5.108  15.342  0.00  0.00    +0.000 OA
ATOM     30  H   UNL     1     -22.210  -6.012  15.441  0.00  0.00    +0.000 HD
ENDBRANCH  17  29
BRANCH  14  32
ATOM     31  O   UNL     1     -22.252  -1.882  26.561  0.00  0.00    +0.000 OA
ATOM     32  C   UNL     1     -21.704  -0.825  26.276  0.00  0.00    +0.000 C 
BRANCH  32  33
ATOM     33  O   UNL     1     -22.293   0.341  26.620  0.00  0.00    +0.000 OA
ATOM     34  H   UNL     1     -22.284   0.884  25.802  0.00  0.00    +0.000 HD
ENDBRANCH  32  33
ENDBRANCH  14  32
BRANCH   9  35
ATOM     35  C   UNL     1     -19.400  -5.015  17.513  0.00  0.00    +0.000 C 
BRANCH  35  36
ATOM     36  O   UNL     1     -18.103  -4.734  17.362  0.00  0.00    +0.000 OA
ATOM     37  H   UNL     1     -17.545  -5.442  17.734  0.00  0.00    +0.000 HD
ENDBRANCH  35  36
ENDBRANCH   9  35
TORSDOF 5
ENDMDL
MODEL 9
REMARK VINA RESULT:      -5.1     21.775     24.469
REMARK  Name = 73299_Hederagenin.pdbqt.pdb
REMARK  5 active torsions:
REMARK  status: ('A' for Active; 'I' for Inactive)
REMARK    1  A    between atoms: C_9  and  C_35
REMARK    2  A    between atoms: C_14  and  C_32
REMARK    3  A    between atoms: C_17  and  O_29
REMARK    4  A    between atoms: C_32  and  O_33
REMARK    5  A    between atoms: C_35  and  O_36
REMARK                            x       y       z     vdW  Elec       q    Type
REMARK                         _______ _______ _______ _____ _____    ______ ____
ROOT
ATOM      1  C   UNL     1     -22.432  -5.956  18.580  0.00  0.00    +0.000 C 
ATOM      2  C   UNL     1     -22.998  -5.102  17.370  0.00  0.00    +0.000 C 
ATOM      3  C   UNL     1     -23.341  -5.700  16.002  0.00  0.00    +0.000 C 
ATOM      4  C   UNL     1     -21.245  -5.155  19.411  0.00  0.00    +0.000 C 
ATOM      5  C   UNL     1     -22.466  -6.888  15.509  0.00  0.00    +0.000 C 
ATOM      6  C   UNL     1     -21.915  -7.190  17.977  0.00  0.00    +0.000 C 
ATOM      7  C   UNL     1     -21.906  -7.664  16.562  0.00  0.00    +0.000 C 
ATOM      8  C   UNL     1     -21.676  -3.633  19.783  0.00  0.00    +0.000 C 
ATOM      9  C   UNL     1     -22.018  -7.053  14.047  0.00  0.00    +0.000 C 
ATOM     10  C   UNL     1     -21.409  -2.973  21.079  0.00  0.00    +0.000 C 
ATOM     11  C   UNL     1     -23.066  -3.706  17.679  0.00  0.00    +0.000 C 
ATOM     12  C   UNL     1     -23.211  -4.678  14.969  0.00  0.00    +0.000 C 
ATOM     13  C   UNL     1     -20.935  -5.756  20.722  0.00  0.00    +0.000 C 
ATOM     14  C   UNL     1     -21.317  -3.795  22.507  0.00  0.00    +0.000 C 
ATOM     15  C   UNL     1     -23.664  -6.288  19.517  0.00  0.00    +0.000 C 
ATOM     16  C   UNL     1     -20.935  -5.149  22.106  0.00  0.00    +0.000 C 
ATOM     17  C   UNL     1     -22.398  -5.940  13.034  0.00  0.00    +0.000 C 
ATOM     18  C   UNL     1     -22.422  -3.069  18.877  0.00  0.00    +0.000 C 
ATOM     19  C   UNL     1     -24.807  -6.202  16.065  0.00  0.00    +0.000 C 
ATOM     20  C   UNL     1     -22.791  -4.687  13.537  0.00  0.00    +0.000 C 
ATOM     21  C   UNL     1     -19.908  -5.011  18.561  0.00  0.00    +0.000 C 
ATOM     22  C   UNL     1     -20.693  -1.697  21.065  0.00  0.00    +0.000 C 
ATOM     23  C   UNL     1     -20.302  -3.043  23.292  0.00  0.00    +0.000 C 
ATOM     24  C   UNL     1     -19.728  -0.815  21.824  0.00  0.00    +0.000 C 
ATOM     25  C   UNL     1     -22.576  -8.408  13.500  0.00  0.00    +0.000 C 
ATOM     26  C   UNL     1     -19.583  -1.694  23.028  0.00  0.00    +0.000 C 
ATOM     27  C   UNL     1     -18.399  -0.661  21.062  0.00  0.00    +0.000 C 
ATOM     28  C   UNL     1     -20.363   0.542  22.176  0.00  0.00    +0.000 C 
ENDROOT
BRANCH  17  29
ATOM     29  O   UNL     1     -22.647  -6.235  11.704  0.00  0.00    +0.000 OA
ATOM     30  H   UNL     1     -21.828  -6.160  11.171  0.00  0.00    +0.000 HD
ENDBRANCH  17  29
BRANCH  14  32
ATOM     31  O   UNL     1     -23.709  -4.299  22.808  0.00  0.00    +0.000 OA
ATOM     32  C   UNL     1     -22.695  -3.719  23.175  0.00  0.00    +0.000 C 
BRANCH  32  33
ATOM     33  O   UNL     1     -22.761  -2.867  24.221  0.00  0.00    +0.000 OA
ATOM     34  H   UNL     1     -22.801  -3.441  25.016  0.00  0.00    +0.000 HD
ENDBRANCH  32  33
ENDBRANCH  14  32
BRANCH   9  35
ATOM     35  C   UNL     1     -20.521  -7.095  14.035  0.00  0.00    +0.000 C 
BRANCH  35  36
ATOM     36  O   UNL     1     -19.186  -7.142  14.013  0.00  0.00    +0.000 OA
ATOM     37  H   UNL     1     -18.857  -7.361  13.122  0.00  0.00    +0.000 HD
ENDBRANCH  35  36
ENDBRANCH   9  35
TORSDOF 5
ENDMDL
