MODEL 1
REMARK VINA RESULT:      -6.9      0.000      0.000
REMARK  Name = 73659_MaslinicAcid.pdbqt.pdb
REMARK  4 active torsions:
REMARK  status: ('A' for Active; 'I' for Inactive)
REMARK    1  A    between atoms: C_14  and  C_35
REMARK    2  A    between atoms: C_17  and  O_30
REMARK    3  A    between atoms: C_19  and  O_32
REMARK    4  A    between atoms: C_35  and  O_36
REMARK                            x       y       z     vdW  Elec       q    Type
REMARK                         _______ _______ _______ _____ _____    ______ ____
ROOT
ATOM      1  C   UNL     1       6.424  -8.622  11.385  0.00  0.00    +0.000 C 
ATOM      2  C   UNL     1       6.921  -7.422  12.299  0.00  0.00    +0.000 C 
ATOM      3  C   UNL     1       6.454  -5.974  12.117  0.00  0.00    +0.000 C 
ATOM      4  C   UNL     1       7.644  -9.678  11.019  0.00  0.00    +0.000 C 
ATOM      5  C   UNL     1       6.127  -5.513  10.693  0.00  0.00    +0.000 C 
ATOM      6  C   UNL     1       5.886  -7.987  10.177  0.00  0.00    +0.000 C 
ATOM      7  C   UNL     1       5.726  -6.549   9.807  0.00  0.00    +0.000 C 
ATOM      8  C   UNL     1       8.487 -10.119  12.337  0.00  0.00    +0.000 C 
ATOM      9  C   UNL     1       6.383  -4.071  10.282  0.00  0.00    +0.000 C 
ATOM     10  C   UNL     1       8.939 -11.497  12.630  0.00  0.00    +0.000 C 
ATOM     11  C   UNL     1       7.906  -7.838  13.249  0.00  0.00    +0.000 C 
ATOM     12  C   UNL     1       7.498  -5.059  12.550  0.00  0.00    +0.000 C 
ATOM     13  C   UNL     1       7.166 -10.960  10.469  0.00  0.00    +0.000 C 
ATOM     14  C   UNL     1       8.126 -12.840  12.119  0.00  0.00    +0.000 C 
ATOM     15  C   UNL     1       5.257  -9.340  12.179  0.00  0.00    +0.000 C 
ATOM     16  C   UNL     1       7.400 -12.379  10.935  0.00  0.00    +0.000 C 
ATOM     17  C   UNL     1       7.339  -3.210  11.146  0.00  0.00    +0.000 C 
ATOM     18  C   UNL     1       5.183  -5.782  12.978  0.00  0.00    +0.000 C 
ATOM     19  C   UNL     1       8.023  -3.809  12.243  0.00  0.00    +0.000 C 
ATOM     20  C   UNL     1       8.605  -9.167  13.219  0.00  0.00    +0.000 C 
ATOM     21  C   UNL     1       8.715  -9.037  10.036  0.00  0.00    +0.000 C 
ATOM     22  C   UNL     1      10.359 -11.713  12.900  0.00  0.00    +0.000 C 
ATOM     23  C   UNL     1       9.199 -13.840  11.874  0.00  0.00    +0.000 C 
ATOM     24  C   UNL     1      11.505 -12.693  12.777  0.00  0.00    +0.000 C 
ATOM     25  C   UNL     1       7.046  -4.070   8.860  0.00  0.00    +0.000 C 
ATOM     26  C   UNL     1       5.028  -3.313  10.192  0.00  0.00    +0.000 C 
ATOM     27  C   UNL     1      10.720 -13.818  12.174  0.00  0.00    +0.000 C 
ATOM     28  C   UNL     1      12.078 -13.066  14.156  0.00  0.00    +0.000 C 
ATOM     29  C   UNL     1      12.584 -12.167  11.813  0.00  0.00    +0.000 C 
ENDROOT
BRANCH  17  30
ATOM     30  O   UNL     1       7.562  -1.852  10.931  0.00  0.00    +0.000 OA
ATOM     31  H   UNL     1       6.877  -1.471  10.344  0.00  0.00    +0.000 HD
ENDBRANCH  17  30
BRANCH  19  32
ATOM     32  O   UNL     1       8.721  -3.046  13.130  0.00  0.00    +0.000 OA
ATOM     33  H   UNL     1       9.187  -2.317  12.675  0.00  0.00    +0.000 HD
ENDBRANCH  19  32
BRANCH  14  35
ATOM     34  O   UNL     1       7.438 -14.172  14.074  0.00  0.00    +0.000 OA
ATOM     35  C   UNL     1       7.205 -13.288  13.261  0.00  0.00    +0.000 C 
BRANCH  35  36
ATOM     36  O   UNL     1       6.008 -12.661  13.287  0.00  0.00    +0.000 OA
ATOM     37  H   UNL     1       6.222 -11.706  13.376  0.00  0.00    +0.000 HD
ENDBRANCH  35  36
ENDBRANCH  14  35
TORSDOF 4
ENDMDL
MODEL 2
REMARK VINA RESULT:      -6.4      5.311      8.444
REMARK  Name = 73659_MaslinicAcid.pdbqt.pdb
REMARK  4 active torsions:
REMARK  status: ('A' for Active; 'I' for Inactive)
REMARK    1  A    between atoms: C_14  and  C_35
REMARK    2  A    between atoms: C_17  and  O_30
REMARK    3  A    between atoms: C_19  and  O_32
REMARK    4  A    between atoms: C_35  and  O_36
REMARK                            x       y       z     vdW  Elec       q    Type
REMARK                         _______ _______ _______ _____ _____    ______ ____
ROOT
ATOM      1  C   UNL     1       3.259 -12.789  15.286  0.00  0.00    +0.000 C 
ATOM      2  C   UNL     1       3.762 -13.410  16.659  0.00  0.00    +0.000 C 
ATOM      3  C   UNL     1       2.894 -13.487  17.918  0.00  0.00    +0.000 C 
ATOM      4  C   UNL     1       4.432 -11.896  14.535  0.00  0.00    +0.000 C 
ATOM      5  C   UNL     1       1.869 -12.367  18.137  0.00  0.00    +0.000 C 
ATOM      6  C   UNL     1       2.101 -11.961  15.641  0.00  0.00    +0.000 C 
ATOM      7  C   UNL     1       1.418 -11.732  16.949  0.00  0.00    +0.000 C 
ATOM      8  C   UNL     1       5.848 -12.690  14.454  0.00  0.00    +0.000 C 
ATOM      9  C   UNL     1       1.525 -11.915  19.548  0.00  0.00    +0.000 C 
ATOM     10  C   UNL     1       6.733 -12.722  13.269  0.00  0.00    +0.000 C 
ATOM     11  C   UNL     1       5.133 -13.813  16.600  0.00  0.00    +0.000 C 
ATOM     12  C   UNL     1       3.734 -13.428  19.103  0.00  0.00    +0.000 C 
ATOM     13  C   UNL     1       4.125 -11.590  13.126  0.00  0.00    +0.000 C 
ATOM     14  C   UNL     1       6.171 -12.599  11.722  0.00  0.00    +0.000 C 
ATOM     15  C   UNL     1       2.793 -14.004  14.385  0.00  0.00    +0.000 C 
ATOM     16  C   UNL     1       4.909 -11.872  11.865  0.00  0.00    +0.000 C 
ATOM     17  C   UNL     1       2.492 -12.281  20.702  0.00  0.00    +0.000 C 
ATOM     18  C   UNL     1       2.123 -14.827  17.874  0.00  0.00    +0.000 C 
ATOM     19  C   UNL     1       3.717 -12.945  20.407  0.00  0.00    +0.000 C 
ATOM     20  C   UNL     1       6.077 -13.447  15.490  0.00  0.00    +0.000 C 
ATOM     21  C   UNL     1       4.754 -10.552  15.320  0.00  0.00    +0.000 C 
ATOM     22  C   UNL     1       8.129 -12.326  13.442  0.00  0.00    +0.000 C 
ATOM     23  C   UNL     1       7.256 -11.880  11.001  0.00  0.00    +0.000 C 
ATOM     24  C   UNL     1       9.323 -11.685  12.771  0.00  0.00    +0.000 C 
ATOM     25  C   UNL     1       1.477 -10.347  19.570  0.00  0.00    +0.000 C 
ATOM     26  C   UNL     1       0.118 -12.455  19.931  0.00  0.00    +0.000 C 
ATOM     27  C   UNL     1       8.688 -11.471  11.431  0.00  0.00    +0.000 C 
ATOM     28  C   UNL     1      10.515 -12.655  12.694  0.00  0.00    +0.000 C 
ATOM     29  C   UNL     1       9.692 -10.352  13.448  0.00  0.00    +0.000 C 
ENDROOT
BRANCH  17  30
ATOM     30  O   UNL     1       2.227 -12.018  22.044  0.00  0.00    +0.000 OA
ATOM     31  H   UNL     1       2.807 -11.306  22.386  0.00  0.00    +0.000 HD
ENDBRANCH  17  30
BRANCH  19  32
ATOM     32  O   UNL     1       4.498 -13.444  21.406  0.00  0.00    +0.000 OA
ATOM     33  H   UNL     1       4.715 -12.752  22.060  0.00  0.00    +0.000 HD
ENDBRANCH  19  32
BRANCH  14  35
ATOM     34  O   UNL     1       6.807 -14.646  10.506  0.00  0.00    +0.000 OA
ATOM     35  C   UNL     1       5.996 -14.021  11.177  0.00  0.00    +0.000 C 
BRANCH  35  36
ATOM     36  O   UNL     1       4.786 -14.569  11.432  0.00  0.00    +0.000 OA
ATOM     37  H   UNL     1       4.510 -14.186  12.294  0.00  0.00    +0.000 HD
ENDBRANCH  35  36
ENDBRANCH  14  35
TORSDOF 4
ENDMDL
MODEL 3
REMARK VINA RESULT:      -6.3     20.967     23.816
REMARK  Name = 73659_MaslinicAcid.pdbqt.pdb
REMARK  4 active torsions:
REMARK  status: ('A' for Active; 'I' for Inactive)
REMARK    1  A    between atoms: C_14  and  C_35
REMARK    2  A    between atoms: C_17  and  O_30
REMARK    3  A    between atoms: C_19  and  O_32
REMARK    4  A    between atoms: C_35  and  O_36
REMARK                            x       y       z     vdW  Elec       q    Type
REMARK                         _______ _______ _______ _____ _____    ______ ____
ROOT
ATOM      1  C   UNL     1     -13.932 -15.920  11.772  0.00  0.00    +0.000 C 
ATOM      2  C   UNL     1     -15.216 -16.855  11.734  0.00  0.00    +0.000 C 
ATOM      3  C   UNL     1     -16.504 -16.550  12.505  0.00  0.00    +0.000 C 
ATOM      4  C   UNL     1     -12.525 -16.790  11.830  0.00  0.00    +0.000 C 
ATOM      5  C   UNL     1     -16.367 -15.820  13.845  0.00  0.00    +0.000 C 
ATOM      6  C   UNL     1     -14.097 -15.091  12.971  0.00  0.00    +0.000 C 
ATOM      7  C   UNL     1     -15.208 -15.006  13.965  0.00  0.00    +0.000 C 
ATOM      8  C   UNL     1     -12.488 -17.967  10.710  0.00  0.00    +0.000 C 
ATOM      9  C   UNL     1     -17.345 -16.109  14.974  0.00  0.00    +0.000 C 
ATOM     10  C   UNL     1     -11.312 -18.304   9.877  0.00  0.00    +0.000 C 
ATOM     11  C   UNL     1     -14.998 -18.041  10.965  0.00  0.00    +0.000 C 
ATOM     12  C   UNL     1     -17.179 -17.791  12.850  0.00  0.00    +0.000 C 
ATOM     13  C   UNL     1     -11.326 -15.987  11.529  0.00  0.00    +0.000 C 
ATOM     14  C   UNL     1     -10.173 -17.195   9.435  0.00  0.00    +0.000 C 
ATOM     15  C   UNL     1     -13.997 -15.012  10.478  0.00  0.00    +0.000 C 
ATOM     16  C   UNL     1     -10.253 -16.176  10.482  0.00  0.00    +0.000 C 
ATOM     17  C   UNL     1     -18.188 -17.408  14.912  0.00  0.00    +0.000 C 
ATOM     18  C   UNL     1     -17.404 -15.688  11.589  0.00  0.00    +0.000 C 
ATOM     19  C   UNL     1     -17.964 -18.340  13.858  0.00  0.00    +0.000 C 
ATOM     20  C   UNL     1     -13.653 -18.504  10.483  0.00  0.00    +0.000 C 
ATOM     21  C   UNL     1     -12.339 -17.535  13.221  0.00  0.00    +0.000 C 
ATOM     22  C   UNL     1     -10.844 -19.689   9.876  0.00  0.00    +0.000 C 
ATOM     23  C   UNL     1      -8.908 -17.977   9.386  0.00  0.00    +0.000 C 
ATOM     24  C   UNL     1      -9.631 -20.583   9.753  0.00  0.00    +0.000 C 
ATOM     25  C   UNL     1     -16.536 -16.239  16.312  0.00  0.00    +0.000 C 
ATOM     26  C   UNL     1     -18.336 -14.918  15.113  0.00  0.00    +0.000 C 
ATOM     27  C   UNL     1      -8.628 -19.497   9.504  0.00  0.00    +0.000 C 
ATOM     28  C   UNL     1      -9.754 -21.538   8.552  0.00  0.00    +0.000 C 
ATOM     29  C   UNL     1      -9.352 -21.327  11.071  0.00  0.00    +0.000 C 
ENDROOT
BRANCH  17  30
ATOM     30  O   UNL     1     -19.190 -17.722  15.827  0.00  0.00    +0.000 OA
ATOM     31  H   UNL     1     -18.918 -18.463  16.408  0.00  0.00    +0.000 HD
ENDBRANCH  17  30
BRANCH  19  32
ATOM     32  O   UNL     1     -18.806 -19.394  13.669  0.00  0.00    +0.000 OA
ATOM     33  H   UNL     1     -19.736 -19.098  13.635  0.00  0.00    +0.000 HD
ENDBRANCH  19  32
BRANCH  14  35
ATOM     34  O   UNL     1     -11.108 -17.302   7.158  0.00  0.00    +0.000 OA
ATOM     35  C   UNL     1     -10.550 -16.670   8.045  0.00  0.00    +0.000 C 
BRANCH  35  36
ATOM     36  O   UNL     1     -10.146 -15.403   7.801  0.00  0.00    +0.000 OA
ATOM     37  H   UNL     1     -10.569 -15.160   6.948  0.00  0.00    +0.000 HD
ENDBRANCH  35  36
ENDBRANCH  14  35
TORSDOF 4
ENDMDL
MODEL 4
REMARK VINA RESULT:      -6.1     11.498     14.754
REMARK  Name = 73659_MaslinicAcid.pdbqt.pdb
REMARK  4 active torsions:
REMARK  status: ('A' for Active; 'I' for Inactive)
REMARK    1  A    between atoms: C_14  and  C_35
REMARK    2  A    between atoms: C_17  and  O_30
REMARK    3  A    between atoms: C_19  and  O_32
REMARK    4  A    between atoms: C_35  and  O_36
REMARK                            x       y       z     vdW  Elec       q    Type
REMARK                         _______ _______ _______ _____ _____    ______ ____
ROOT
ATOM      1  C   UNL     1       0.394 -15.985  19.622  0.00  0.00    +0.000 C 
ATOM      2  C   UNL     1       0.277 -14.414  19.420  0.00  0.00    +0.000 C 
ATOM      3  C   UNL     1       1.432 -13.442  19.679  0.00  0.00    +0.000 C 
ATOM      4  C   UNL     1      -0.971 -16.633  20.297  0.00  0.00    +0.000 C 
ATOM      5  C   UNL     1       2.422 -13.805  20.791  0.00  0.00    +0.000 C 
ATOM      6  C   UNL     1       1.561 -16.174  20.490  0.00  0.00    +0.000 C 
ATOM      7  C   UNL     1       2.535 -15.195  21.060  0.00  0.00    +0.000 C 
ATOM      8  C   UNL     1      -2.322 -16.134  19.544  0.00  0.00    +0.000 C 
ATOM      9  C   UNL     1       3.082 -12.706  21.611  0.00  0.00    +0.000 C 
ATOM     10  C   UNL     1      -3.470 -17.002  19.201  0.00  0.00    +0.000 C 
ATOM     11  C   UNL     1      -1.045 -14.013  19.048  0.00  0.00    +0.000 C 
ATOM     12  C   UNL     1       0.909 -12.147  20.085  0.00  0.00    +0.000 C 
ATOM     13  C   UNL     1      -1.038 -18.102  20.190  0.00  0.00    +0.000 C 
ATOM     14  C   UNL     1      -3.315 -18.613  18.875  0.00  0.00    +0.000 C 
ATOM     15  C   UNL     1       0.682 -16.603  18.194  0.00  0.00    +0.000 C 
ATOM     16  C   UNL     1      -2.095 -18.997  19.585  0.00  0.00    +0.000 C 
ATOM     17  C   UNL     1       2.450 -11.291  21.604  0.00  0.00    +0.000 C 
ATOM     18  C   UNL     1       2.233 -13.307  18.362  0.00  0.00    +0.000 C 
ATOM     19  C   UNL     1       1.224 -11.074  20.911  0.00  0.00    +0.000 C 
ATOM     20  C   UNL     1      -2.250 -14.907  19.111  0.00  0.00    +0.000 C 
ATOM     21  C   UNL     1      -1.155 -16.195  21.813  0.00  0.00    +0.000 C 
ATOM     22  C   UNL     1      -4.798 -16.601  19.661  0.00  0.00    +0.000 C 
ATOM     23  C   UNL     1      -4.578 -19.208  19.389  0.00  0.00    +0.000 C 
ATOM     24  C   UNL     1      -6.151 -17.100  20.117  0.00  0.00    +0.000 C 
ATOM     25  C   UNL     1       3.057 -13.130  23.122  0.00  0.00    +0.000 C 
ATOM     26  C   UNL     1       4.566 -12.555  21.168  0.00  0.00    +0.000 C 
ATOM     27  C   UNL     1      -5.878 -18.562  19.934  0.00  0.00    +0.000 C 
ATOM     28  C   UNL     1      -7.276 -16.605  19.190  0.00  0.00    +0.000 C 
ATOM     29  C   UNL     1      -6.406 -16.746  21.593  0.00  0.00    +0.000 C 
ENDROOT
BRANCH  17  30
ATOM     30  O   UNL     1       3.025 -10.186  22.225  0.00  0.00    +0.000 OA
ATOM     31  H   UNL     1       3.151 -10.345  23.184  0.00  0.00    +0.000 HD
ENDBRANCH  17  30
BRANCH  19  32
ATOM     32  O   UNL     1       0.740  -9.815  20.729  0.00  0.00    +0.000 OA
ATOM     33  H   UNL     1       0.868  -9.270  21.530  0.00  0.00    +0.000 HD
ENDBRANCH  19  32
BRANCH  14  35
ATOM     34  O   UNL     1      -4.107 -18.584  16.542  0.00  0.00    +0.000 OA
ATOM     35  C   UNL     1      -3.210 -18.771  17.354  0.00  0.00    +0.000 C 
BRANCH  35  36
ATOM     36  O   UNL     1      -2.011 -19.225  16.924  0.00  0.00    +0.000 OA
ATOM     37  H   UNL     1      -1.976 -20.163  17.214  0.00  0.00    +0.000 HD
ENDBRANCH  35  36
ENDBRANCH  14  35
TORSDOF 4
ENDMDL
MODEL 5
REMARK VINA RESULT:      -6.1     23.260     26.012
REMARK  Name = 73659_MaslinicAcid.pdbqt.pdb
REMARK  4 active torsions:
REMARK  status: ('A' for Active; 'I' for Inactive)
REMARK    1  A    between atoms: C_14  and  C_35
REMARK    2  A    between atoms: C_17  and  O_30
REMARK    3  A    between atoms: C_19  and  O_32
REMARK    4  A    between atoms: C_35  and  O_36
REMARK                            x       y       z     vdW  Elec       q    Type
REMARK                         _______ _______ _______ _____ _____    ______ ____
ROOT
ATOM      1  C   UNL     1     -10.430  -8.947  27.686  0.00  0.00    +0.000 C 
ATOM      2  C   UNL     1     -10.270  -7.390  27.419  0.00  0.00    +0.000 C 
ATOM      3  C   UNL     1      -8.918  -6.669  27.412  0.00  0.00    +0.000 C 
ATOM      4  C   UNL     1     -11.747  -9.289  28.628  0.00  0.00    +0.000 C 
ATOM      5  C   UNL     1      -7.831  -7.205  28.350  0.00  0.00    +0.000 C 
ATOM      6  C   UNL     1      -9.182  -9.354  28.342  0.00  0.00    +0.000 C 
ATOM      7  C   UNL     1      -7.947  -8.583  28.673  0.00  0.00    +0.000 C 
ATOM      8  C   UNL     1     -13.088  -8.540  28.099  0.00  0.00    +0.000 C 
ATOM      9  C   UNL     1      -6.827  -6.248  28.976  0.00  0.00    +0.000 C 
ATOM     10  C   UNL     1     -14.428  -9.163  28.016  0.00  0.00    +0.000 C 
ATOM     11  C   UNL     1     -11.533  -6.735  27.265  0.00  0.00    +0.000 C 
ATOM     12  C   UNL     1      -9.092  -5.287  27.830  0.00  0.00    +0.000 C 
ATOM     13  C   UNL     1     -12.120 -10.716  28.619  0.00  0.00    +0.000 C 
ATOM     14  C   UNL     1     -14.657 -10.777  27.760  0.00  0.00    +0.000 C 
ATOM     15  C   UNL     1     -10.539  -9.639  26.266  0.00  0.00    +0.000 C 
ATOM     16  C   UNL     1     -13.426 -11.388  28.262  0.00  0.00    +0.000 C 
ATOM     17  C   UNL     1      -7.158  -4.734  29.001  0.00  0.00    +0.000 C 
ATOM     18  C   UNL     1      -8.365  -6.727  25.969  0.00  0.00    +0.000 C 
ATOM     19  C   UNL     1      -8.424  -4.285  28.525  0.00  0.00    +0.000 C 
ATOM     20  C   UNL     1     -12.858  -7.362  27.592  0.00  0.00    +0.000 C 
ATOM     21  C   UNL     1     -11.556  -8.793  30.125  0.00  0.00    +0.000 C 
ATOM     22  C   UNL     1     -15.542  -8.489  28.681  0.00  0.00    +0.000 C 
ATOM     23  C   UNL     1     -15.895 -11.091  28.522  0.00  0.00    +0.000 C 
ATOM     24  C   UNL     1     -16.859  -8.693  29.397  0.00  0.00    +0.000 C 
ATOM     25  C   UNL     1      -6.655  -6.627  30.489  0.00  0.00    +0.000 C 
ATOM     26  C   UNL     1      -5.451  -6.412  28.269  0.00  0.00    +0.000 C 
ATOM     27  C   UNL     1     -16.918 -10.183  29.252  0.00  0.00    +0.000 C 
ATOM     28  C   UNL     1     -18.016  -7.997  28.658  0.00  0.00    +0.000 C 
ATOM     29  C   UNL     1     -16.761  -8.265  30.873  0.00  0.00    +0.000 C 
ENDROOT
BRANCH  17  30
ATOM     30  O   UNL     1      -6.271  -3.757  29.446  0.00  0.00    +0.000 OA
ATOM     31  H   UNL     1      -5.423  -3.801  28.957  0.00  0.00    +0.000 HD
ENDBRANCH  17  30
BRANCH  19  32
ATOM     32  O   UNL     1      -8.676  -2.957  28.361  0.00  0.00    +0.000 OA
ATOM     33  H   UNL     1      -9.359  -2.649  28.987  0.00  0.00    +0.000 HD
ENDBRANCH  19  32
BRANCH  14  35
ATOM     34  O   UNL     1     -13.998 -10.991  25.395  0.00  0.00    +0.000 OA
ATOM     35  C   UNL     1     -14.869 -10.983  26.255  0.00  0.00    +0.000 C 
BRANCH  35  36
ATOM     36  O   UNL     1     -16.165 -11.096  25.888  0.00  0.00    +0.000 OA
ATOM     37  H   UNL     1     -16.511 -11.856  26.404  0.00  0.00    +0.000 HD
ENDBRANCH  35  36
ENDBRANCH  14  35
TORSDOF 4
ENDMDL
MODEL 6
REMARK VINA RESULT:      -5.9     23.146     25.633
REMARK  Name = 73659_MaslinicAcid.pdbqt.pdb
REMARK  4 active torsions:
REMARK  status: ('A' for Active; 'I' for Inactive)
REMARK    1  A    between atoms: C_14  and  C_35
REMARK    2  A    between atoms: C_17  and  O_30
REMARK    3  A    between atoms: C_19  and  O_32
REMARK    4  A    between atoms: C_35  and  O_36
REMARK                            x       y       z     vdW  Elec       q    Type
REMARK                         _______ _______ _______ _____ _____    ______ ____
ROOT
ATOM      1  C   UNL     1     -11.748  -7.863  28.154  0.00  0.00    +0.000 C 
ATOM      2  C   UNL     1     -10.411  -8.139  28.965  0.00  0.00    +0.000 C 
ATOM      3  C   UNL     1      -9.232  -7.162  29.005  0.00  0.00    +0.000 C 
ATOM      4  C   UNL     1     -12.319  -9.224  27.405  0.00  0.00    +0.000 C 
ATOM      5  C   UNL     1      -8.978  -6.312  27.755  0.00  0.00    +0.000 C 
ATOM      6  C   UNL     1     -11.397  -6.824  27.179  0.00  0.00    +0.000 C 
ATOM      7  C   UNL     1     -10.127  -6.073  26.954  0.00  0.00    +0.000 C 
ATOM      8  C   UNL     1     -12.375 -10.498  28.412  0.00  0.00    +0.000 C 
ATOM      9  C   UNL     1      -7.558  -5.921  27.376  0.00  0.00    +0.000 C 
ATOM     10  C   UNL     1     -13.490 -11.467  28.489  0.00  0.00    +0.000 C 
ATOM     11  C   UNL     1     -10.410  -9.429  29.583  0.00  0.00    +0.000 C 
ATOM     12  C   UNL     1      -7.989  -7.894  29.189  0.00  0.00    +0.000 C 
ATOM     13  C   UNL     1     -13.709  -9.095  26.932  0.00  0.00    +0.000 C 
ATOM     14  C   UNL     1     -15.055 -11.070  28.141  0.00  0.00    +0.000 C 
ATOM     15  C   UNL     1     -12.797  -7.292  29.193  0.00  0.00    +0.000 C 
ATOM     16  C   UNL     1     -14.932  -9.932  27.231  0.00  0.00    +0.000 C 
ATOM     17  C   UNL     1      -6.378  -6.713  27.995  0.00  0.00    +0.000 C 
ATOM     18  C   UNL     1      -9.465  -6.197  30.191  0.00  0.00    +0.000 C 
ATOM     19  C   UNL     1      -6.648  -7.839  28.825  0.00  0.00    +0.000 C 
ATOM     20  C   UNL     1     -11.406 -10.513  29.283  0.00  0.00    +0.000 C 
ATOM     21  C   UNL     1     -11.384  -9.683  26.206  0.00  0.00    +0.000 C 
ATOM     22  C   UNL     1     -13.178 -12.888  28.345  0.00  0.00    +0.000 C 
ATOM     23  C   UNL     1     -15.620 -12.314  27.552  0.00  0.00    +0.000 C 
ATOM     24  C   UNL     1     -13.693 -14.223  27.855  0.00  0.00    +0.000 C 
ATOM     25  C   UNL     1      -7.384  -6.120  25.829  0.00  0.00    +0.000 C 
ATOM     26  C   UNL     1      -7.334  -4.418  27.707  0.00  0.00    +0.000 C 
ATOM     27  C   UNL     1     -15.048 -13.750  27.424  0.00  0.00    +0.000 C 
ATOM     28  C   UNL     1     -13.780 -15.249  28.999  0.00  0.00    +0.000 C 
ATOM     29  C   UNL     1     -12.862 -14.737  26.665  0.00  0.00    +0.000 C 
ENDROOT
BRANCH  17  30
ATOM     30  O   UNL     1      -5.040  -6.376  27.808  0.00  0.00    +0.000 OA
ATOM     31  H   UNL     1      -4.952  -5.482  27.415  0.00  0.00    +0.000 HD
ENDBRANCH  17  30
BRANCH  19  32
ATOM     32  O   UNL     1      -5.650  -8.441  29.530  0.00  0.00    +0.000 OA
ATOM     33  H   UNL     1      -4.772  -8.170  29.197  0.00  0.00    +0.000 HD
ENDBRANCH  19  32
BRANCH  14  35
ATOM     34  O   UNL     1     -16.535 -11.430  30.078  0.00  0.00    +0.000 OA
ATOM     35  C   UNL     1     -15.750 -10.721  29.463  0.00  0.00    +0.000 C 
BRANCH  35  36
ATOM     36  O   UNL     1     -15.488  -9.474  29.915  0.00  0.00    +0.000 OA
ATOM     37  H   UNL     1     -14.625  -9.233  29.513  0.00  0.00    +0.000 HD
ENDBRANCH  35  36
ENDBRANCH  14  35
TORSDOF 4
ENDMDL
MODEL 7
REMARK VINA RESULT:      -5.9     22.977     26.061
REMARK  Name = 73659_MaslinicAcid.pdbqt.pdb
REMARK  4 active torsions:
REMARK  status: ('A' for Active; 'I' for Inactive)
REMARK    1  A    between atoms: C_14  and  C_35
REMARK    2  A    between atoms: C_17  and  O_30
REMARK    3  A    between atoms: C_19  and  O_32
REMARK    4  A    between atoms: C_35  and  O_36
REMARK                            x       y       z     vdW  Elec       q    Type
REMARK                         _______ _______ _______ _____ _____    ______ ____
ROOT
ATOM      1  C   UNL     1     -10.864  -9.493  27.643  0.00  0.00    +0.000 C 
ATOM      2  C   UNL     1     -11.720  -9.566  28.980  0.00  0.00    +0.000 C 
ATOM      3  C   UNL     1     -12.837 -10.587  29.211  0.00  0.00    +0.000 C 
ATOM      4  C   UNL     1     -10.567  -7.934  27.174  0.00  0.00    +0.000 C 
ATOM      5  C   UNL     1     -13.645 -11.036  27.988  0.00  0.00    +0.000 C 
ATOM      6  C   UNL     1     -11.658 -10.212  26.640  0.00  0.00    +0.000 C 
ATOM      7  C   UNL     1     -12.954 -10.945  26.750  0.00  0.00    +0.000 C 
ATOM      8  C   UNL     1     -10.011  -7.022  28.398  0.00  0.00    +0.000 C 
ATOM      9  C   UNL     1     -15.117 -11.391  28.136  0.00  0.00    +0.000 C 
ATOM     10  C   UNL     1      -8.903  -6.047  28.291  0.00  0.00    +0.000 C 
ATOM     11  C   UNL     1     -11.377  -8.525  29.899  0.00  0.00    +0.000 C 
ATOM     12  C   UNL     1     -13.838 -10.031  30.107  0.00  0.00    +0.000 C 
ATOM     13  C   UNL     1      -9.512  -7.820  26.150  0.00  0.00    +0.000 C 
ATOM     14  C   UNL     1      -7.657  -6.213  27.222  0.00  0.00    +0.000 C 
ATOM     15  C   UNL     1      -9.519 -10.277  27.926  0.00  0.00    +0.000 C 
ATOM     16  C   UNL     1      -8.223  -7.030  26.150  0.00  0.00    +0.000 C 
ATOM     17  C   UNL     1     -15.875 -10.905  29.397  0.00  0.00    +0.000 C 
ATOM     18  C   UNL     1     -12.196 -11.847  29.840  0.00  0.00    +0.000 C 
ATOM     19  C   UNL     1     -15.210 -10.066  30.336  0.00  0.00    +0.000 C 
ATOM     20  C   UNL     1     -10.526  -7.336  29.554  0.00  0.00    +0.000 C 
ATOM     21  C   UNL     1     -11.884  -7.200  26.673  0.00  0.00    +0.000 C 
ATOM     22  C   UNL     1      -9.151  -4.674  28.727  0.00  0.00    +0.000 C 
ATOM     23  C   UNL     1      -7.307  -4.815  26.857  0.00  0.00    +0.000 C 
ATOM     24  C   UNL     1      -8.799  -3.222  28.494  0.00  0.00    +0.000 C 
ATOM     25  C   UNL     1     -15.906 -10.748  26.942  0.00  0.00    +0.000 C 
ATOM     26  C   UNL     1     -15.283 -12.936  28.060  0.00  0.00    +0.000 C 
ATOM     27  C   UNL     1      -7.782  -3.450  27.417  0.00  0.00    +0.000 C 
ATOM     28  C   UNL     1      -8.175  -2.584  29.749  0.00  0.00    +0.000 C 
ATOM     29  C   UNL     1     -10.014  -2.431  27.975  0.00  0.00    +0.000 C 
ENDROOT
BRANCH  17  30
ATOM     30  O   UNL     1     -17.189 -11.260  29.693  0.00  0.00    +0.000 OA
ATOM     31  H   UNL     1     -17.418 -11.031  30.618  0.00  0.00    +0.000 HD
ENDBRANCH  17  30
BRANCH  19  32
ATOM     32  O   UNL     1     -15.780  -9.773  31.538  0.00  0.00    +0.000 OA
ATOM     33  H   UNL     1     -15.298 -10.205  32.270  0.00  0.00    +0.000 HD
ENDBRANCH  19  32
BRANCH  14  35
ATOM     34  O   UNL     1      -6.594  -7.815  28.764  0.00  0.00    +0.000 OA
ATOM     35  C   UNL     1      -6.499  -6.896  27.961  0.00  0.00    +0.000 C 
BRANCH  35  36
ATOM     36  O   UNL     1      -5.287  -6.350  27.718  0.00  0.00    +0.000 OA
ATOM     37  H   UNL     1      -5.290  -5.496  28.204  0.00  0.00    +0.000 HD
ENDBRANCH  35  36
ENDBRANCH  14  35
TORSDOF 4
ENDMDL
MODEL 8
REMARK VINA RESULT:      -5.9     26.730     30.883
REMARK  Name = 73659_MaslinicAcid.pdbqt.pdb
REMARK  4 active torsions:
REMARK  status: ('A' for Active; 'I' for Inactive)
REMARK    1  A    between atoms: C_14  and  C_35
REMARK    2  A    between atoms: C_17  and  O_30
REMARK    3  A    between atoms: C_19  and  O_32
REMARK    4  A    between atoms: C_35  and  O_36
REMARK                            x       y       z     vdW  Elec       q    Type
REMARK                         _______ _______ _______ _____ _____    ______ ____
ROOT
ATOM      1  C   UNL     1     -19.825   4.585  14.994  0.00  0.00    +0.000 C 
ATOM      2  C   UNL     1     -18.367   4.016  14.724  0.00  0.00    +0.000 C 
ATOM      3  C   UNL     1     -17.120   4.502  15.470  0.00  0.00    +0.000 C 
ATOM      4  C   UNL     1     -20.693   4.772  13.597  0.00  0.00    +0.000 C 
ATOM      5  C   UNL     1     -17.089   5.970  15.909  0.00  0.00    +0.000 C 
ATOM      6  C   UNL     1     -19.615   5.871  15.670  0.00  0.00    +0.000 C 
ATOM      7  C   UNL     1     -18.367   6.557  16.116  0.00  0.00    +0.000 C 
ATOM      8  C   UNL     1     -20.634   3.447  12.659  0.00  0.00    +0.000 C 
ATOM      9  C   UNL     1     -15.770   6.726  15.948  0.00  0.00    +0.000 C 
ATOM     10  C   UNL     1     -21.790   2.867  11.940  0.00  0.00    +0.000 C 
ATOM     11  C   UNL     1     -18.348   3.061  13.659  0.00  0.00    +0.000 C 
ATOM     12  C   UNL     1     -15.950   4.367  14.618  0.00  0.00    +0.000 C 
ATOM     13  C   UNL     1     -22.135   4.971  13.825  0.00  0.00    +0.000 C 
ATOM     14  C   UNL     1     -23.344   2.992  12.484  0.00  0.00    +0.000 C 
ATOM     15  C   UNL     1     -20.530   3.569  15.981  0.00  0.00    +0.000 C 
ATOM     16  C   UNL     1     -23.329   4.200  13.308  0.00  0.00    +0.000 C 
ATOM     17  C   UNL     1     -14.562   6.154  15.163  0.00  0.00    +0.000 C 
ATOM     18  C   UNL     1     -16.963   3.628  16.737  0.00  0.00    +0.000 C 
ATOM     19  C   UNL     1     -14.737   4.994  14.355  0.00  0.00    +0.000 C 
ATOM     20  C   UNL     1     -19.490   2.824  12.714  0.00  0.00    +0.000 C 
ATOM     21  C   UNL     1     -20.124   5.948  12.693  0.00  0.00    +0.000 C 
ATOM     22  C   UNL     1     -21.666   2.649  10.500  0.00  0.00    +0.000 C 
ATOM     23  C   UNL     1     -24.156   3.065  11.240  0.00  0.00    +0.000 C 
ATOM     24  C   UNL     1     -22.415   2.613   9.187  0.00  0.00    +0.000 C 
ATOM     25  C   UNL     1     -15.992   8.148  15.326  0.00  0.00    +0.000 C 
ATOM     26  C   UNL     1     -15.322   6.901  17.428  0.00  0.00    +0.000 C 
ATOM     27  C   UNL     1     -23.779   2.881   9.747  0.00  0.00    +0.000 C 
ATOM     28  C   UNL     1     -22.328   1.226   8.525  0.00  0.00    +0.000 C 
ATOM     29  C   UNL     1     -21.950   3.743   8.250  0.00  0.00    +0.000 C 
ENDROOT
BRANCH  17  30
ATOM     30  O   UNL     1     -13.281   6.697  15.215  0.00  0.00    +0.000 OA
ATOM     31  H   UNL     1     -12.734   6.384  14.465  0.00  0.00    +0.000 HD
ENDBRANCH  17  30
BRANCH  19  32
ATOM     32  O   UNL     1     -13.665   4.361  13.803  0.00  0.00    +0.000 OA
ATOM     33  H   UNL     1     -13.873   3.428  13.602  0.00  0.00    +0.000 HD
ENDBRANCH  19  32
BRANCH  14  35
ATOM     34  O   UNL     1     -23.202   1.410  14.367  0.00  0.00    +0.000 OA
ATOM     35  C   UNL     1     -23.662   1.719  13.276  0.00  0.00    +0.000 C 
BRANCH  35  36
ATOM     36  O   UNL     1     -24.483   0.856  12.635  0.00  0.00    +0.000 OA
ATOM     37  H   UNL     1     -25.038   0.459  13.341  0.00  0.00    +0.000 HD
ENDBRANCH  35  36
ENDBRANCH  14  35
TORSDOF 4
ENDMDL
MODEL 9
REMARK VINA RESULT:      -5.9     20.575     23.292
REMARK  Name = 73659_MaslinicAcid.pdbqt.pdb
REMARK  4 active torsions:
REMARK  status: ('A' for Active; 'I' for Inactive)
REMARK    1  A    between atoms: C_14  and  C_35
REMARK    2  A    between atoms: C_17  and  O_30
REMARK    3  A    between atoms: C_19  and  O_32
REMARK    4  A    between atoms: C_35  and  O_36
REMARK                            x       y       z     vdW  Elec       q    Type
REMARK                         _______ _______ _______ _____ _____    ______ ____
ROOT
ATOM      1  C   UNL     1     -14.026 -18.171  12.127  0.00  0.00    +0.000 C 
ATOM      2  C   UNL     1     -12.855 -17.173  11.732  0.00  0.00    +0.000 C 
ATOM      3  C   UNL     1     -12.505 -16.814  10.285  0.00  0.00    +0.000 C 
ATOM      4  C   UNL     1     -13.609 -19.159  13.388  0.00  0.00    +0.000 C 
ATOM      5  C   UNL     1     -12.720 -17.894   9.220  0.00  0.00    +0.000 C 
ATOM      6  C   UNL     1     -14.298 -18.943  10.909  0.00  0.00    +0.000 C 
ATOM      7  C   UNL     1     -13.720 -18.853   9.536  0.00  0.00    +0.000 C 
ATOM      8  C   UNL     1     -12.964 -18.330  14.627  0.00  0.00    +0.000 C 
ATOM      9  C   UNL     1     -11.795 -17.970   8.014  0.00  0.00    +0.000 C 
ATOM     10  C   UNL     1     -13.277 -18.563  16.054  0.00  0.00    +0.000 C 
ATOM     11  C   UNL     1     -12.126 -16.717  12.876  0.00  0.00    +0.000 C 
ATOM     12  C   UNL     1     -11.089 -16.499  10.183  0.00  0.00    +0.000 C 
ATOM     13  C   UNL     1     -14.760 -19.852  13.995  0.00  0.00    +0.000 C 
ATOM     14  C   UNL     1     -14.735 -19.134  16.576  0.00  0.00    +0.000 C 
ATOM     15  C   UNL     1     -15.281 -17.276  12.486  0.00  0.00    +0.000 C 
ATOM     16  C   UNL     1     -15.254 -19.872  15.424  0.00  0.00    +0.000 C 
ATOM     17  C   UNL     1     -10.426 -17.247   8.081  0.00  0.00    +0.000 C 
ATOM     18  C   UNL     1     -13.357 -15.586   9.889  0.00  0.00    +0.000 C 
ATOM     19  C   UNL     1     -10.027 -16.612   9.292  0.00  0.00    +0.000 C 
ATOM     20  C   UNL     1     -12.247 -17.309  14.250  0.00  0.00    +0.000 C 
ATOM     21  C   UNL     1     -12.500 -20.219  12.974  0.00  0.00    +0.000 C 
ATOM     22  C   UNL     1     -12.165 -18.811  16.971  0.00  0.00    +0.000 C 
ATOM     23  C   UNL     1     -14.396 -19.952  17.771  0.00  0.00    +0.000 C 
ATOM     24  C   UNL     1     -11.739 -19.534  18.229  0.00  0.00    +0.000 C 
ATOM     25  C   UNL     1     -11.423 -19.473   7.766  0.00  0.00    +0.000 C 
ATOM     26  C   UNL     1     -12.543 -17.435   6.759  0.00  0.00    +0.000 C 
ATOM     27  C   UNL     1     -13.070 -20.140  18.552  0.00  0.00    +0.000 C 
ATOM     28  C   UNL     1     -11.276 -18.547  19.316  0.00  0.00    +0.000 C 
ATOM     29  C   UNL     1     -10.680 -20.609  17.921  0.00  0.00    +0.000 C 
ENDROOT
BRANCH  17  30
ATOM     30  O   UNL     1      -9.549 -17.154   7.004  0.00  0.00    +0.000 OA
ATOM     31  H   UNL     1      -8.629 -17.352   7.279  0.00  0.00    +0.000 HD
ENDBRANCH  17  30
BRANCH  19  32
ATOM     32  O   UNL     1      -8.923 -15.815   9.331  0.00  0.00    +0.000 OA
ATOM     33  H   UNL     1      -8.130 -16.298   9.027  0.00  0.00    +0.000 HD
ENDBRANCH  19  32
BRANCH  14  35
ATOM     34  O   UNL     1     -16.464 -17.404  16.273  0.00  0.00    +0.000 OA
ATOM     35  C   UNL     1     -15.596 -17.925  16.961  0.00  0.00    +0.000 C 
BRANCH  35  36
ATOM     36  O   UNL     1     -15.281 -17.378  18.157  0.00  0.00    +0.000 OA
ATOM     37  H   UNL     1     -15.099 -16.432  17.965  0.00  0.00    +0.000 HD
ENDBRANCH  35  36
ENDBRANCH  14  35
TORSDOF 4
ENDMDL
