MODEL 1
REMARK VINA RESULT:      -3.7      0.000      0.000
REMARK  Name = 76617_Cardol.pdbqt.pdb
REMARK  10 active torsions:
REMARK  status: ('A' for Active; 'I' for Inactive)
REMARK    1  A    between atoms: C_1  and  C_2
REMARK    2  A    between atoms: C_3  and  C_4
REMARK    3  A    between atoms: C_5  and  C_6
REMARK    4  A    between atoms: C_7  and  C_8
REMARK    5  A    between atoms: C_8  and  C_9
REMARK    6  A    between atoms: C_10  and  C_11
REMARK    7  A    between atoms: C_14  and  C_15
REMARK    8  A    between atoms: C_15  and  C_16
REMARK    9  A    between atoms: C_19  and  O_24
REMARK   10  A    between atoms: C_20  and  O_22
REMARK                            x       y       z     vdW  Elec       q    Type
REMARK                         _______ _______ _______ _____ _____    ______ ____
ROOT
ATOM      1  C   UNL     1     -12.442 -17.057  11.947  0.00  0.00    +0.000 C 
ATOM      2  C   UNL     1     -11.697 -17.435  11.086  0.00  0.00    +0.000 C 
ENDROOT
BRANCH   1   3
ATOM      3  C   UNL     1     -13.393 -16.576  13.047  0.00  0.00    +0.000 C 
ATOM      4  C   UNL     1     -14.345 -16.096  14.147  0.00  0.00    +0.000 C 
BRANCH   4   5
ATOM      5  C   UNL     1     -15.297 -15.616  15.247  0.00  0.00    +0.000 C 
ATOM      6  C   UNL     1     -16.248 -15.137  16.347  0.00  0.00    +0.000 C 
BRANCH   6   7
ATOM      7  C   UNL     1     -17.199 -14.658  17.449  0.00  0.00    +0.000 C 
ATOM      8  C   UNL     1     -18.149 -14.178  18.549  0.00  0.00    +0.000 C 
BRANCH   8   9
ATOM      9  C   UNL     1     -19.099 -13.698  19.650  0.00  0.00    +0.000 C 
BRANCH   9  10
ATOM     10  C   UNL     1     -20.049 -13.217  20.752  0.00  0.00    +0.000 C 
ATOM     11  C   UNL     1     -20.998 -12.738  21.854  0.00  0.00    +0.000 C 
BRANCH  11  12
ATOM     12  C   UNL     1     -21.948 -12.258  22.956  0.00  0.00    +0.000 C 
ATOM     13  C   UNL     1     -22.898 -11.779  24.057  0.00  0.00    +0.000 C 
ATOM     14  C   UNL     1     -23.848 -11.299  25.159  0.00  0.00    +0.000 C 
ENDBRANCH  11  12
ENDBRANCH   9  10
ENDBRANCH   8   9
ENDBRANCH   6   7
ENDBRANCH   4   5
ENDBRANCH   1   3
BRANCH   2  15
ATOM     15  C   UNL     1     -10.745 -17.916   9.985  0.00  0.00    +0.000 C 
BRANCH  15  16
ATOM     16  C   UNL     1      -9.861 -18.361   8.962  0.00  0.00    +0.000 A 
ATOM     17  C   UNL     1     -10.368 -18.731   7.718  0.00  0.00    +0.000 A 
ATOM     18  C   UNL     1      -8.491 -18.425   9.210  0.00  0.00    +0.000 A 
ATOM     19  C   UNL     1      -7.634 -18.862   8.202  0.00  0.00    +0.000 A 
ATOM     20  C   UNL     1      -9.494 -19.165   6.724  0.00  0.00    +0.000 A 
ATOM     21  C   UNL     1      -8.125 -19.235   6.955  0.00  0.00    +0.000 A 
BRANCH  20  22
ATOM     22  O   UNL     1      -9.967 -19.533   5.497  0.00  0.00    +0.000 OA
ATOM     23  H   UNL     1      -9.210 -19.645   4.897  0.00  0.00    +0.000 HD
ENDBRANCH  20  22
BRANCH  19  24
ATOM     24  O   UNL     1      -6.287 -18.934   8.419  0.00  0.00    +0.000 OA
ATOM     25  H   UNL     1      -5.844 -18.342   7.787  0.00  0.00    +0.000 HD
ENDBRANCH  19  24
ENDBRANCH  15  16
ENDBRANCH   2  15
TORSDOF 10
ENDMDL
MODEL 2
REMARK VINA RESULT:      -3.6      4.462      6.635
REMARK  Name = 76617_Cardol.pdbqt.pdb
REMARK  10 active torsions:
REMARK  status: ('A' for Active; 'I' for Inactive)
REMARK    1  A    between atoms: C_1  and  C_2
REMARK    2  A    between atoms: C_3  and  C_4
REMARK    3  A    between atoms: C_5  and  C_6
REMARK    4  A    between atoms: C_7  and  C_8
REMARK    5  A    between atoms: C_8  and  C_9
REMARK    6  A    between atoms: C_10  and  C_11
REMARK    7  A    between atoms: C_14  and  C_15
REMARK    8  A    between atoms: C_15  and  C_16
REMARK    9  A    between atoms: C_19  and  O_24
REMARK   10  A    between atoms: C_20  and  O_22
REMARK                            x       y       z     vdW  Elec       q    Type
REMARK                         _______ _______ _______ _____ _____    ______ ____
ROOT
ATOM      1  C   UNL     1      -9.797 -15.785   6.383  0.00  0.00    +0.000 C 
ATOM      2  C   UNL     1      -9.174 -15.796   5.358  0.00  0.00    +0.000 C 
ENDROOT
BRANCH   1   3
ATOM      3  C   UNL     1     -10.593 -15.771   7.692  0.00  0.00    +0.000 C 
ATOM      4  C   UNL     1     -11.389 -15.757   9.001  0.00  0.00    +0.000 C 
BRANCH   4   5
ATOM      5  C   UNL     1     -12.183 -15.743  10.310  0.00  0.00    +0.000 C 
ATOM      6  C   UNL     1     -12.978 -15.729  11.619  0.00  0.00    +0.000 C 
BRANCH   6   7
ATOM      7  C   UNL     1     -13.774 -15.715  12.928  0.00  0.00    +0.000 C 
ATOM      8  C   UNL     1     -14.568 -15.701  14.237  0.00  0.00    +0.000 C 
BRANCH   8   9
ATOM      9  C   UNL     1     -15.363 -15.687  15.546  0.00  0.00    +0.000 C 
BRANCH   9  10
ATOM     10  C   UNL     1     -16.159 -15.672  16.855  0.00  0.00    +0.000 C 
ATOM     11  C   UNL     1     -16.954 -15.660  18.163  0.00  0.00    +0.000 C 
BRANCH  11  12
ATOM     12  C   UNL     1     -17.750 -15.646  19.472  0.00  0.00    +0.000 C 
ATOM     13  C   UNL     1     -18.546 -15.633  20.781  0.00  0.00    +0.000 C 
ATOM     14  C   UNL     1     -19.342 -15.620  22.089  0.00  0.00    +0.000 C 
ENDBRANCH  11  12
ENDBRANCH   9  10
ENDBRANCH   8   9
ENDBRANCH   6   7
ENDBRANCH   4   5
ENDBRANCH   1   3
BRANCH   2  15
ATOM     15  C   UNL     1      -8.377 -15.812   4.049  0.00  0.00    +0.000 C 
BRANCH  15  16
ATOM     16  C   UNL     1      -7.636 -15.826   2.833  0.00  0.00    +0.000 A 
ATOM     17  C   UNL     1      -8.234 -16.282   1.660  0.00  0.00    +0.000 A 
ATOM     18  C   UNL     1      -6.315 -15.382   2.822  0.00  0.00    +0.000 A 
ATOM     19  C   UNL     1      -5.598 -15.399   1.628  0.00  0.00    +0.000 A 
ATOM     20  C   UNL     1      -7.501 -16.291   0.477  0.00  0.00    +0.000 A 
ATOM     21  C   UNL     1      -6.181 -15.852   0.449  0.00  0.00    +0.000 A 
BRANCH  20  22
ATOM     22  O   UNL     1      -8.065 -16.733  -0.685  0.00  0.00    +0.000 OA
ATOM     23  H   UNL     1      -8.056 -17.706  -0.681  0.00  0.00    +0.000 HD
ENDBRANCH  20  22
BRANCH  19  24
ATOM     24  O   UNL     1      -4.302 -14.971   1.589  0.00  0.00    +0.000 OA
ATOM     25  H   UNL     1      -3.721 -15.743   1.704  0.00  0.00    +0.000 HD
ENDBRANCH  19  24
ENDBRANCH  15  16
ENDBRANCH   2  15
TORSDOF 10
ENDMDL
MODEL 3
REMARK VINA RESULT:      -3.4     12.101     14.402
REMARK  Name = 76617_Cardol.pdbqt.pdb
REMARK  10 active torsions:
REMARK  status: ('A' for Active; 'I' for Inactive)
REMARK    1  A    between atoms: C_1  and  C_2
REMARK    2  A    between atoms: C_3  and  C_4
REMARK    3  A    between atoms: C_5  and  C_6
REMARK    4  A    between atoms: C_7  and  C_8
REMARK    5  A    between atoms: C_8  and  C_9
REMARK    6  A    between atoms: C_10  and  C_11
REMARK    7  A    between atoms: C_14  and  C_15
REMARK    8  A    between atoms: C_15  and  C_16
REMARK    9  A    between atoms: C_19  and  O_24
REMARK   10  A    between atoms: C_20  and  O_22
REMARK                            x       y       z     vdW  Elec       q    Type
REMARK                         _______ _______ _______ _____ _____    ______ ____
ROOT
ATOM      1  C   UNL     1      -9.863 -13.167   4.070  0.00  0.00    +0.000 C 
ATOM      2  C   UNL     1      -9.994 -12.259   3.297  0.00  0.00    +0.000 C 
ENDROOT
BRANCH   1   3
ATOM      3  C   UNL     1      -9.697 -14.327   5.056  0.00  0.00    +0.000 C 
ATOM      4  C   UNL     1      -9.532 -15.487   6.043  0.00  0.00    +0.000 C 
BRANCH   4   5
ATOM      5  C   UNL     1      -9.368 -16.647   7.030  0.00  0.00    +0.000 C 
ATOM      6  C   UNL     1      -9.204 -17.807   8.015  0.00  0.00    +0.000 C 
BRANCH   6   7
ATOM      7  C   UNL     1      -9.040 -18.968   9.002  0.00  0.00    +0.000 C 
ATOM      8  C   UNL     1      -8.875 -20.129   9.987  0.00  0.00    +0.000 C 
BRANCH   8   9
ATOM      9  C   UNL     1      -8.710 -21.289  10.972  0.00  0.00    +0.000 C 
BRANCH   9  10
ATOM     10  C   UNL     1      -8.544 -22.449  11.960  0.00  0.00    +0.000 C 
ATOM     11  C   UNL     1      -8.379 -23.607  12.947  0.00  0.00    +0.000 C 
BRANCH  11  12
ATOM     12  C   UNL     1      -8.212 -24.767  13.935  0.00  0.00    +0.000 C 
ATOM     13  C   UNL     1      -8.047 -25.926  14.921  0.00  0.00    +0.000 C 
ATOM     14  C   UNL     1      -7.880 -27.086  15.909  0.00  0.00    +0.000 C 
ENDBRANCH  11  12
ENDBRANCH   9  10
ENDBRANCH   8   9
ENDBRANCH   6   7
ENDBRANCH   4   5
ENDBRANCH   1   3
BRANCH   2  15
ATOM     15  C   UNL     1     -10.159 -11.098   2.310  0.00  0.00    +0.000 C 
BRANCH  15  16
ATOM     16  C   UNL     1     -10.313 -10.019   1.393  0.00  0.00    +0.000 A 
ATOM     17  C   UNL     1     -11.586  -9.529   1.106  0.00  0.00    +0.000 A 
ATOM     18  C   UNL     1      -9.190  -9.458   0.789  0.00  0.00    +0.000 A 
ATOM     19  C   UNL     1      -9.351  -8.403  -0.107  0.00  0.00    +0.000 A 
ATOM     20  C   UNL     1     -11.725  -8.474   0.208  0.00  0.00    +0.000 A 
ATOM     21  C   UNL     1     -10.615  -7.903  -0.405  0.00  0.00    +0.000 A 
BRANCH  20  22
ATOM     22  O   UNL     1     -12.961  -7.976  -0.090  0.00  0.00    +0.000 OA
ATOM     23  H   UNL     1     -13.146  -8.154  -1.029  0.00  0.00    +0.000 HD
ENDBRANCH  20  22
BRANCH  19  24
ATOM     24  O   UNL     1      -8.268  -7.836  -0.714  0.00  0.00    +0.000 OA
ATOM     25  H   UNL     1      -7.848  -7.225  -0.083  0.00  0.00    +0.000 HD
ENDBRANCH  19  24
ENDBRANCH  15  16
ENDBRANCH   2  15
TORSDOF 10
ENDMDL
MODEL 4
REMARK VINA RESULT:      -3.3      1.510      3.053
REMARK  Name = 76617_Cardol.pdbqt.pdb
REMARK  10 active torsions:
REMARK  status: ('A' for Active; 'I' for Inactive)
REMARK    1  A    between atoms: C_1  and  C_2
REMARK    2  A    between atoms: C_3  and  C_4
REMARK    3  A    between atoms: C_5  and  C_6
REMARK    4  A    between atoms: C_7  and  C_8
REMARK    5  A    between atoms: C_8  and  C_9
REMARK    6  A    between atoms: C_10  and  C_11
REMARK    7  A    between atoms: C_14  and  C_15
REMARK    8  A    between atoms: C_15  and  C_16
REMARK    9  A    between atoms: C_19  and  O_24
REMARK   10  A    between atoms: C_20  and  O_22
REMARK                            x       y       z     vdW  Elec       q    Type
REMARK                         _______ _______ _______ _____ _____    ______ ____
ROOT
ATOM      1  C   UNL     1     -10.305 -17.857  10.001  0.00  0.00    +0.000 C 
ATOM      2  C   UNL     1      -9.521 -18.223   9.170  0.00  0.00    +0.000 C 
ENDROOT
BRANCH   1   3
ATOM      3  C   UNL     1     -11.307 -17.390  11.061  0.00  0.00    +0.000 C 
ATOM      4  C   UNL     1     -12.310 -16.924  12.121  0.00  0.00    +0.000 C 
BRANCH   4   5
ATOM      5  C   UNL     1     -13.313 -16.459  13.181  0.00  0.00    +0.000 C 
ATOM      6  C   UNL     1     -14.316 -15.994  14.240  0.00  0.00    +0.000 C 
BRANCH   6   7
ATOM      7  C   UNL     1     -15.320 -15.528  15.300  0.00  0.00    +0.000 C 
ATOM      8  C   UNL     1     -16.324 -15.063  16.359  0.00  0.00    +0.000 C 
BRANCH   8   9
ATOM      9  C   UNL     1     -17.327 -14.597  17.417  0.00  0.00    +0.000 C 
BRANCH   9  10
ATOM     10  C   UNL     1     -18.331 -14.130  18.476  0.00  0.00    +0.000 C 
ATOM     11  C   UNL     1     -19.335 -13.662  19.533  0.00  0.00    +0.000 C 
BRANCH  11  12
ATOM     12  C   UNL     1     -20.338 -13.194  20.592  0.00  0.00    +0.000 C 
ATOM     13  C   UNL     1     -21.341 -12.727  21.651  0.00  0.00    +0.000 C 
ATOM     14  C   UNL     1     -22.345 -12.259  22.710  0.00  0.00    +0.000 C 
ENDBRANCH  11  12
ENDBRANCH   9  10
ENDBRANCH   8   9
ENDBRANCH   6   7
ENDBRANCH   4   5
ENDBRANCH   1   3
BRANCH   2  15
ATOM     15  C   UNL     1      -8.518 -18.690   8.110  0.00  0.00    +0.000 C 
BRANCH  15  16
ATOM     16  C   UNL     1      -7.585 -19.123   7.125  0.00  0.00    +0.000 A 
ATOM     17  C   UNL     1      -7.815 -18.842   5.779  0.00  0.00    +0.000 A 
ATOM     18  C   UNL     1      -6.445 -19.826   7.511  0.00  0.00    +0.000 A 
ATOM     19  C   UNL     1      -5.538 -20.245   6.541  0.00  0.00    +0.000 A 
ATOM     20  C   UNL     1      -6.895 -19.270   4.824  0.00  0.00    +0.000 A 
ATOM     21  C   UNL     1      -5.754 -19.973   5.193  0.00  0.00    +0.000 A 
BRANCH  20  22
ATOM     22  O   UNL     1      -7.098 -19.007   3.500  0.00  0.00    +0.000 OA
ATOM     23  H   UNL     1      -7.942 -19.411   3.232  0.00  0.00    +0.000 HD
ENDBRANCH  20  22
BRANCH  19  24
ATOM     24  O   UNL     1      -4.414 -20.936   6.892  0.00  0.00    +0.000 OA
ATOM     25  H   UNL     1      -3.658 -20.555   6.413  0.00  0.00    +0.000 HD
ENDBRANCH  19  24
ENDBRANCH  15  16
ENDBRANCH   2  15
TORSDOF 10
ENDMDL
MODEL 5
REMARK VINA RESULT:      -3.3     27.728     31.229
REMARK  Name = 76617_Cardol.pdbqt.pdb
REMARK  10 active torsions:
REMARK  status: ('A' for Active; 'I' for Inactive)
REMARK    1  A    between atoms: C_1  and  C_2
REMARK    2  A    between atoms: C_3  and  C_4
REMARK    3  A    between atoms: C_5  and  C_6
REMARK    4  A    between atoms: C_7  and  C_8
REMARK    5  A    between atoms: C_8  and  C_9
REMARK    6  A    between atoms: C_10  and  C_11
REMARK    7  A    between atoms: C_14  and  C_15
REMARK    8  A    between atoms: C_15  and  C_16
REMARK    9  A    between atoms: C_19  and  O_24
REMARK   10  A    between atoms: C_20  and  O_22
REMARK                            x       y       z     vdW  Elec       q    Type
REMARK                         _______ _______ _______ _____ _____    ______ ____
ROOT
ATOM      1  C   UNL     1       4.766   1.889  15.239  0.00  0.00    +0.000 C 
ATOM      2  C   UNL     1       4.610   1.069  16.101  0.00  0.00    +0.000 C 
ENDROOT
BRANCH   1   3
ATOM      3  C   UNL     1       4.964   2.937  14.140  0.00  0.00    +0.000 C 
ATOM      4  C   UNL     1       5.161   3.985  13.040  0.00  0.00    +0.000 C 
BRANCH   4   5
ATOM      5  C   UNL     1       5.359   5.034  11.942  0.00  0.00    +0.000 C 
ATOM      6  C   UNL     1       5.557   6.083  10.844  0.00  0.00    +0.000 C 
BRANCH   6   7
ATOM      7  C   UNL     1       5.756   7.132   9.745  0.00  0.00    +0.000 C 
ATOM      8  C   UNL     1       5.954   8.180   8.646  0.00  0.00    +0.000 C 
BRANCH   8   9
ATOM      9  C   UNL     1       6.152   9.228   7.548  0.00  0.00    +0.000 C 
BRANCH   9  10
ATOM     10  C   UNL     1       6.350  10.275   6.447  0.00  0.00    +0.000 C 
ATOM     11  C   UNL     1       6.550  11.322   5.348  0.00  0.00    +0.000 C 
BRANCH  11  12
ATOM     12  C   UNL     1       6.749  12.370   4.248  0.00  0.00    +0.000 C 
ATOM     13  C   UNL     1       6.948  13.418   3.149  0.00  0.00    +0.000 C 
ATOM     14  C   UNL     1       7.147  14.466   2.050  0.00  0.00    +0.000 C 
ENDBRANCH  11  12
ENDBRANCH   9  10
ENDBRANCH   8   9
ENDBRANCH   6   7
ENDBRANCH   4   5
ENDBRANCH   1   3
BRANCH   2  15
ATOM     15  C   UNL     1       4.413   0.021  17.201  0.00  0.00    +0.000 C 
BRANCH  15  16
ATOM     16  C   UNL     1       4.231  -0.953  18.224  0.00  0.00    +0.000 A 
ATOM     17  C   UNL     1       3.268  -1.949  18.071  0.00  0.00    +0.000 A 
ATOM     18  C   UNL     1       5.017  -0.906  19.374  0.00  0.00    +0.000 A 
ATOM     19  C   UNL     1       4.831  -1.863  20.369  0.00  0.00    +0.000 A 
ATOM     20  C   UNL     1       3.099  -2.897  19.077  0.00  0.00    +0.000 A 
ATOM     21  C   UNL     1       3.874  -2.864  20.231  0.00  0.00    +0.000 A 
BRANCH  20  22
ATOM     22  O   UNL     1       2.163  -3.883  18.950  0.00  0.00    +0.000 OA
ATOM     23  H   UNL     1       1.281  -3.470  18.938  0.00  0.00    +0.000 HD
ENDBRANCH  20  22
BRANCH  19  24
ATOM     24  O   UNL     1       5.587  -1.840  21.506  0.00  0.00    +0.000 OA
ATOM     25  H   UNL     1       6.434  -1.406  21.301  0.00  0.00    +0.000 HD
ENDBRANCH  19  24
ENDBRANCH  15  16
ENDBRANCH   2  15
TORSDOF 10
ENDMDL
MODEL 6
REMARK VINA RESULT:      -3.2     24.226     26.965
REMARK  Name = 76617_Cardol.pdbqt.pdb
REMARK  10 active torsions:
REMARK  status: ('A' for Active; 'I' for Inactive)
REMARK    1  A    between atoms: C_1  and  C_2
REMARK    2  A    between atoms: C_3  and  C_4
REMARK    3  A    between atoms: C_5  and  C_6
REMARK    4  A    between atoms: C_7  and  C_8
REMARK    5  A    between atoms: C_8  and  C_9
REMARK    6  A    between atoms: C_10  and  C_11
REMARK    7  A    between atoms: C_14  and  C_15
REMARK    8  A    between atoms: C_15  and  C_16
REMARK    9  A    between atoms: C_19  and  O_24
REMARK   10  A    between atoms: C_20  and  O_22
REMARK                            x       y       z     vdW  Elec       q    Type
REMARK                         _______ _______ _______ _____ _____    ______ ____
ROOT
ATOM      1  C   UNL     1       7.831  -6.581  14.800  0.00  0.00    +0.000 C 
ATOM      2  C   UNL     1       7.369  -6.299  13.729  0.00  0.00    +0.000 C 
ENDROOT
BRANCH   1   3
ATOM      3  C   UNL     1       8.421  -6.941  16.167  0.00  0.00    +0.000 C 
ATOM      4  C   UNL     1       9.013  -7.301  17.534  0.00  0.00    +0.000 C 
BRANCH   4   5
ATOM      5  C   UNL     1       9.604  -7.660  18.900  0.00  0.00    +0.000 C 
ATOM      6  C   UNL     1      10.195  -8.018  20.266  0.00  0.00    +0.000 C 
BRANCH   6   7
ATOM      7  C   UNL     1      10.787  -8.377  21.633  0.00  0.00    +0.000 C 
ATOM      8  C   UNL     1      11.378  -8.734  23.000  0.00  0.00    +0.000 C 
BRANCH   8   9
ATOM      9  C   UNL     1      11.969  -9.091  24.366  0.00  0.00    +0.000 C 
BRANCH   9  10
ATOM     10  C   UNL     1      12.560  -9.449  25.734  0.00  0.00    +0.000 C 
ATOM     11  C   UNL     1      13.149  -9.808  27.101  0.00  0.00    +0.000 C 
BRANCH  11  12
ATOM     12  C   UNL     1      13.738 -10.166  28.469  0.00  0.00    +0.000 C 
ATOM     13  C   UNL     1      14.327 -10.523  29.837  0.00  0.00    +0.000 C 
ATOM     14  C   UNL     1      14.917 -10.881  31.205  0.00  0.00    +0.000 C 
ENDBRANCH  11  12
ENDBRANCH   9  10
ENDBRANCH   8   9
ENDBRANCH   6   7
ENDBRANCH   4   5
ENDBRANCH   1   3
BRANCH   2  15
ATOM     15  C   UNL     1       6.779  -5.940  12.361  0.00  0.00    +0.000 C 
BRANCH  15  16
ATOM     16  C   UNL     1       6.230  -5.606  11.090  0.00  0.00    +0.000 A 
ATOM     17  C   UNL     1       5.723  -4.328  10.867  0.00  0.00    +0.000 A 
ATOM     18  C   UNL     1       6.204  -6.560  10.075  0.00  0.00    +0.000 A 
ATOM     19  C   UNL     1       5.665  -6.224   8.835  0.00  0.00    +0.000 A 
ATOM     20  C   UNL     1       5.189  -4.012   9.620  0.00  0.00    +0.000 A 
ATOM     21  C   UNL     1       5.154  -4.952   8.597  0.00  0.00    +0.000 A 
BRANCH  20  22
ATOM     22  O   UNL     1       4.686  -2.766   9.377  0.00  0.00    +0.000 OA
ATOM     23  H   UNL     1       5.352  -2.109   9.640  0.00  0.00    +0.000 HD
ENDBRANCH  20  22
BRANCH  19  24
ATOM     24  O   UNL     1       5.626  -7.140   7.823  0.00  0.00    +0.000 OA
ATOM     25  H   UNL     1       4.695  -7.346   7.632  0.00  0.00    +0.000 HD
ENDBRANCH  19  24
ENDBRANCH  15  16
ENDBRANCH   2  15
TORSDOF 10
ENDMDL
MODEL 7
REMARK VINA RESULT:      -3.2     29.063     29.921
REMARK  Name = 76617_Cardol.pdbqt.pdb
REMARK  10 active torsions:
REMARK  status: ('A' for Active; 'I' for Inactive)
REMARK    1  A    between atoms: C_1  and  C_2
REMARK    2  A    between atoms: C_3  and  C_4
REMARK    3  A    between atoms: C_5  and  C_6
REMARK    4  A    between atoms: C_7  and  C_8
REMARK    5  A    between atoms: C_8  and  C_9
REMARK    6  A    between atoms: C_10  and  C_11
REMARK    7  A    between atoms: C_14  and  C_15
REMARK    8  A    between atoms: C_15  and  C_16
REMARK    9  A    between atoms: C_19  and  O_24
REMARK   10  A    between atoms: C_20  and  O_22
REMARK                            x       y       z     vdW  Elec       q    Type
REMARK                         _______ _______ _______ _____ _____    ______ ____
ROOT
ATOM      1  C   UNL     1      -4.762   8.528  -2.358  0.00  0.00    +0.000 C 
ATOM      2  C   UNL     1      -4.514   8.526  -3.532  0.00  0.00    +0.000 C 
ENDROOT
BRANCH   1   3
ATOM      3  C   UNL     1      -5.079   8.530  -0.860  0.00  0.00    +0.000 C 
ATOM      4  C   UNL     1      -5.395   8.530   0.639  0.00  0.00    +0.000 C 
BRANCH   4   5
ATOM      5  C   UNL     1      -5.710   8.530   2.138  0.00  0.00    +0.000 C 
ATOM      6  C   UNL     1      -6.026   8.530   3.636  0.00  0.00    +0.000 C 
BRANCH   6   7
ATOM      7  C   UNL     1      -6.342   8.529   5.136  0.00  0.00    +0.000 C 
ATOM      8  C   UNL     1      -6.657   8.529   6.634  0.00  0.00    +0.000 C 
BRANCH   8   9
ATOM      9  C   UNL     1      -6.973   8.530   8.132  0.00  0.00    +0.000 C 
BRANCH   9  10
ATOM     10  C   UNL     1      -7.290   8.531   9.631  0.00  0.00    +0.000 C 
ATOM     11  C   UNL     1      -7.607   8.534  11.129  0.00  0.00    +0.000 C 
BRANCH  11  12
ATOM     12  C   UNL     1      -7.923   8.537  12.629  0.00  0.00    +0.000 C 
ATOM     13  C   UNL     1      -8.239   8.538  14.127  0.00  0.00    +0.000 C 
ATOM     14  C   UNL     1      -8.556   8.541  15.626  0.00  0.00    +0.000 C 
ENDBRANCH  11  12
ENDBRANCH   9  10
ENDBRANCH   8   9
ENDBRANCH   6   7
ENDBRANCH   4   5
ENDBRANCH   1   3
BRANCH   2  15
ATOM     15  C   UNL     1      -4.198   8.525  -5.031  0.00  0.00    +0.000 C 
BRANCH  15  16
ATOM     16  C   UNL     1      -3.904   8.526  -6.425  0.00  0.00    +0.000 A 
ATOM     17  C   UNL     1      -3.982   7.339  -7.151  0.00  0.00    +0.000 A 
ATOM     18  C   UNL     1      -3.541   9.713  -7.056  0.00  0.00    +0.000 A 
ATOM     19  C   UNL     1      -3.256   9.704  -8.420  0.00  0.00    +0.000 A 
ATOM     20  C   UNL     1      -3.694   7.350  -8.514  0.00  0.00    +0.000 A 
ATOM     21  C   UNL     1      -3.329   8.527  -9.159  0.00  0.00    +0.000 A 
BRANCH  20  22
ATOM     22  O   UNL     1      -3.764   6.201  -9.247  0.00  0.00    +0.000 OA
ATOM     23  H   UNL     1      -3.164   6.285 -10.008  0.00  0.00    +0.000 HD
ENDBRANCH  20  22
BRANCH  19  24
ATOM     24  O   UNL     1      -2.896  10.853  -9.063  0.00  0.00    +0.000 OA
ATOM     25  H   UNL     1      -2.740  11.542  -8.394  0.00  0.00    +0.000 HD
ENDBRANCH  19  24
ENDBRANCH  15  16
ENDBRANCH   2  15
TORSDOF 10
ENDMDL
MODEL 8
REMARK VINA RESULT:      -3.2     17.640     26.181
REMARK  Name = 76617_Cardol.pdbqt.pdb
REMARK  10 active torsions:
REMARK  status: ('A' for Active; 'I' for Inactive)
REMARK    1  A    between atoms: C_1  and  C_2
REMARK    2  A    between atoms: C_3  and  C_4
REMARK    3  A    between atoms: C_5  and  C_6
REMARK    4  A    between atoms: C_7  and  C_8
REMARK    5  A    between atoms: C_8  and  C_9
REMARK    6  A    between atoms: C_10  and  C_11
REMARK    7  A    between atoms: C_14  and  C_15
REMARK    8  A    between atoms: C_15  and  C_16
REMARK    9  A    between atoms: C_19  and  O_24
REMARK   10  A    between atoms: C_20  and  O_22
REMARK                            x       y       z     vdW  Elec       q    Type
REMARK                         _______ _______ _______ _____ _____    ______ ____
ROOT
ATOM      1  C   UNL     1       4.042 -14.091  16.026  0.00  0.00    +0.000 C 
ATOM      2  C   UNL     1       3.339 -13.682  16.909  0.00  0.00    +0.000 C 
ENDROOT
BRANCH   1   3
ATOM      3  C   UNL     1       4.938 -14.612  14.899  0.00  0.00    +0.000 C 
ATOM      4  C   UNL     1       5.834 -15.134  13.771  0.00  0.00    +0.000 C 
BRANCH   4   5
ATOM      5  C   UNL     1       6.729 -15.656  12.643  0.00  0.00    +0.000 C 
ATOM      6  C   UNL     1       7.624 -16.177  11.516  0.00  0.00    +0.000 C 
BRANCH   6   7
ATOM      7  C   UNL     1       8.520 -16.699  10.387  0.00  0.00    +0.000 C 
ATOM      8  C   UNL     1       9.415 -17.220   9.259  0.00  0.00    +0.000 C 
BRANCH   8   9
ATOM      9  C   UNL     1      10.310 -17.740   8.131  0.00  0.00    +0.000 C 
BRANCH   9  10
ATOM     10  C   UNL     1      11.206 -18.261   7.003  0.00  0.00    +0.000 C 
ATOM     11  C   UNL     1      12.102 -18.779   5.874  0.00  0.00    +0.000 C 
BRANCH  11  12
ATOM     12  C   UNL     1      12.998 -19.299   4.745  0.00  0.00    +0.000 C 
ATOM     13  C   UNL     1      13.894 -19.817   3.617  0.00  0.00    +0.000 C 
ATOM     14  C   UNL     1      14.790 -20.336   2.488  0.00  0.00    +0.000 C 
ENDBRANCH  11  12
ENDBRANCH   9  10
ENDBRANCH   8   9
ENDBRANCH   6   7
ENDBRANCH   4   5
ENDBRANCH   1   3
BRANCH   2  15
ATOM     15  C   UNL     1       2.443 -13.162  18.038  0.00  0.00    +0.000 C 
BRANCH  15  16
ATOM     16  C   UNL     1       1.610 -12.677  19.086  0.00  0.00    +0.000 A 
ATOM     17  C   UNL     1       0.483 -13.401  19.468  0.00  0.00    +0.000 A 
ATOM     18  C   UNL     1       1.928 -11.481  19.726  0.00  0.00    +0.000 A 
ATOM     19  C   UNL     1       1.107 -11.015  20.751  0.00  0.00    +0.000 A 
ATOM     20  C   UNL     1      -0.325 -12.918  20.495  0.00  0.00    +0.000 A 
ATOM     21  C   UNL     1      -0.022 -11.726  21.144  0.00  0.00    +0.000 A 
BRANCH  20  22
ATOM     22  O   UNL     1      -1.435 -13.609  20.888  0.00  0.00    +0.000 OA
ATOM     23  H   UNL     1      -1.151 -14.467  21.251  0.00  0.00    +0.000 HD
ENDBRANCH  20  22
BRANCH  19  24
ATOM     24  O   UNL     1       1.395  -9.845  21.394  0.00  0.00    +0.000 OA
ATOM     25  H   UNL     1       2.290  -9.914  21.769  0.00  0.00    +0.000 HD
ENDBRANCH  19  24
ENDBRANCH  15  16
ENDBRANCH   2  15
TORSDOF 10
ENDMDL
MODEL 9
REMARK VINA RESULT:      -3.1     13.752     19.998
REMARK  Name = 76617_Cardol.pdbqt.pdb
REMARK  10 active torsions:
REMARK  status: ('A' for Active; 'I' for Inactive)
REMARK    1  A    between atoms: C_1  and  C_2
REMARK    2  A    between atoms: C_3  and  C_4
REMARK    3  A    between atoms: C_5  and  C_6
REMARK    4  A    between atoms: C_7  and  C_8
REMARK    5  A    between atoms: C_8  and  C_9
REMARK    6  A    between atoms: C_10  and  C_11
REMARK    7  A    between atoms: C_14  and  C_15
REMARK    8  A    between atoms: C_15  and  C_16
REMARK    9  A    between atoms: C_19  and  O_24
REMARK   10  A    between atoms: C_20  and  O_22
REMARK                            x       y       z     vdW  Elec       q    Type
REMARK                         _______ _______ _______ _____ _____    ______ ____
ROOT
ATOM      1  C   UNL     1      -9.421 -12.707   3.272  0.00  0.00    +0.000 C 
ATOM      2  C   UNL     1     -10.219 -11.811   3.284  0.00  0.00    +0.000 C 
ENDROOT
BRANCH   1   3
ATOM      3  C   UNL     1      -8.402 -13.850   3.256  0.00  0.00    +0.000 C 
ATOM      4  C   UNL     1      -7.381 -14.992   3.241  0.00  0.00    +0.000 C 
BRANCH   4   5
ATOM      5  C   UNL     1      -6.361 -16.134   3.226  0.00  0.00    +0.000 C 
ATOM      6  C   UNL     1      -5.341 -17.276   3.213  0.00  0.00    +0.000 C 
BRANCH   6   7
ATOM      7  C   UNL     1      -4.320 -18.419   3.200  0.00  0.00    +0.000 C 
ATOM      8  C   UNL     1      -3.301 -19.562   3.186  0.00  0.00    +0.000 C 
BRANCH   8   9
ATOM      9  C   UNL     1      -2.282 -20.704   3.172  0.00  0.00    +0.000 C 
BRANCH   9  10
ATOM     10  C   UNL     1      -1.261 -21.847   3.157  0.00  0.00    +0.000 C 
ATOM     11  C   UNL     1      -0.240 -22.988   3.141  0.00  0.00    +0.000 C 
BRANCH  11  12
ATOM     12  C   UNL     1       0.780 -24.131   3.125  0.00  0.00    +0.000 C 
ATOM     13  C   UNL     1       1.801 -25.272   3.108  0.00  0.00    +0.000 C 
ATOM     14  C   UNL     1       2.821 -26.415   3.092  0.00  0.00    +0.000 C 
ENDBRANCH  11  12
ENDBRANCH   9  10
ENDBRANCH   8   9
ENDBRANCH   6   7
ENDBRANCH   4   5
ENDBRANCH   1   3
BRANCH   2  15
ATOM     15  C   UNL     1     -11.239 -10.668   3.300  0.00  0.00    +0.000 C 
BRANCH  15  16
ATOM     16  C   UNL     1     -12.187  -9.604   3.316  0.00  0.00    +0.000 A 
ATOM     17  C   UNL     1     -13.276  -9.658   4.183  0.00  0.00    +0.000 A 
ATOM     18  C   UNL     1     -12.019  -8.514   2.464  0.00  0.00    +0.000 A 
ATOM     19  C   UNL     1     -12.950  -7.479   2.487  0.00  0.00    +0.000 A 
ATOM     20  C   UNL     1     -14.196  -8.612   4.190  0.00  0.00    +0.000 A 
ATOM     21  C   UNL     1     -14.044  -7.518   3.346  0.00  0.00    +0.000 A 
BRANCH  20  22
ATOM     22  O   UNL     1     -15.272  -8.641   5.031  0.00  0.00    +0.000 OA
ATOM     23  H   UNL     1     -15.215  -9.446   5.575  0.00  0.00    +0.000 HD
ENDBRANCH  20  22
BRANCH  19  24
ATOM     24  O   UNL     1     -12.810  -6.400   1.662  0.00  0.00    +0.000 OA
ATOM     25  H   UNL     1     -12.986  -5.595   2.179  0.00  0.00    +0.000 HD
ENDBRANCH  19  24
ENDBRANCH  15  16
ENDBRANCH   2  15
TORSDOF 10
ENDMDL
