MODEL 1
REMARK VINA RESULT:      -4.9      0.000      0.000
REMARK  Name = 85668777_Hyaluronidase.pdbqt.pdb
REMARK  5 active torsions:
REMARK  status: ('A' for Active; 'I' for Inactive)
REMARK    1  A    between atoms: N_1  and  C_13
REMARK    2  A    between atoms: C_14  and  C_15
REMARK    3  A    between atoms: C_15  and  C_16
REMARK    4  A    between atoms: C_17  and  C_19
REMARK    5  A    between atoms: C_19  and  O_20
REMARK                            x       y       z     vdW  Elec       q    Type
REMARK                         _______ _______ _______ _____ _____    ______ ____
ROOT
ATOM      1  N   UNL     1     -11.991 -15.490   7.713  0.00  0.00    +0.000 N 
ATOM      2  C   UNL     1     -14.121 -15.674   8.846  0.00  0.00    +0.000 C 
ATOM      3  C   UNL     1     -12.936 -15.856   9.794  0.00  0.00    +0.000 A 
ATOM      4  C   UNL     1     -13.366 -15.434   7.481  0.00  0.00    +0.000 C 
ATOM      5  C   UNL     1     -11.731 -15.738   9.071  0.00  0.00    +0.000 A 
ATOM      6  C   UNL     1     -14.973 -16.983   8.833  0.00  0.00    +0.000 C 
ATOM      7  C   UNL     1     -14.947 -14.426   9.295  0.00  0.00    +0.000 C 
ATOM      8  C   UNL     1     -12.929 -16.104  11.160  0.00  0.00    +0.000 A 
ATOM      9  C   UNL     1     -10.507 -15.864   9.703  0.00  0.00    +0.000 A 
ATOM     10  C   UNL     1     -13.861 -15.206   6.247  0.00  0.00    +0.000 C 
ATOM     11  C   UNL     1     -11.694 -16.231  11.796  0.00  0.00    +0.000 A 
ATOM     12  C   UNL     1     -10.498 -16.112  11.076  0.00  0.00    +0.000 A 
ENDROOT
BRANCH   1  13
ATOM     13  C   UNL     1     -10.957 -15.320   6.721  0.00  0.00    +0.000 C 
ATOM     14  C   UNL     1      -9.863 -15.139   5.664  0.00  0.00    +0.000 C 
BRANCH  14  15
ATOM     15  C   UNL     1      -8.769 -14.959   4.606  0.00  0.00    +0.000 C 
BRANCH  15  16
ATOM     16  C   UNL     1      -7.676 -14.779   3.550  0.00  0.00    +0.000 C 
ATOM     17  C   UNL     1      -6.582 -14.600   2.492  0.00  0.00    +0.000 C 
BRANCH  17  19
ATOM     18  O   UNL     1      -5.795 -14.193   0.330  0.00  0.00    +0.000 OA
ATOM     19  C   UNL     1      -5.561 -14.430   1.503  0.00  0.00    +0.000 C 
BRANCH  19  20
ATOM     20  O   UNL     1      -4.310 -14.555   1.980  0.00  0.00    +0.000 OA
ATOM     21  H   UNL     1      -4.268 -15.487   2.277  0.00  0.00    +0.000 HD
ENDBRANCH  19  20
ENDBRANCH  17  19
ENDBRANCH  15  16
ENDBRANCH  14  15
ENDBRANCH   1  13
TORSDOF 5
ENDMDL
MODEL 2
REMARK VINA RESULT:      -4.4     21.420     24.453
REMARK  Name = 85668777_Hyaluronidase.pdbqt.pdb
REMARK  5 active torsions:
REMARK  status: ('A' for Active; 'I' for Inactive)
REMARK    1  A    between atoms: N_1  and  C_13
REMARK    2  A    between atoms: C_14  and  C_15
REMARK    3  A    between atoms: C_15  and  C_16
REMARK    4  A    between atoms: C_17  and  C_19
REMARK    5  A    between atoms: C_19  and  O_20
REMARK                            x       y       z     vdW  Elec       q    Type
REMARK                         _______ _______ _______ _____ _____    ______ ____
ROOT
ATOM      1  N   UNL     1       7.103   1.466  10.595  0.00  0.00    +0.000 N 
ATOM      2  C   UNL     1       7.969   3.526  11.525  0.00  0.00    +0.000 C 
ATOM      3  C   UNL     1       6.938   3.769  10.423  0.00  0.00    +0.000 A 
ATOM      4  C   UNL     1       7.997   1.948  11.553  0.00  0.00    +0.000 C 
ATOM      5  C   UNL     1       6.477   2.532   9.927  0.00  0.00    +0.000 A 
ATOM      6  C   UNL     1       9.338   4.137  11.089  0.00  0.00    +0.000 C 
ATOM      7  C   UNL     1       7.440   4.134  12.863  0.00  0.00    +0.000 C 
ATOM      8  C   UNL     1       6.459   4.967   9.911  0.00  0.00    +0.000 A 
ATOM      9  C   UNL     1       5.533   2.478   8.917  0.00  0.00    +0.000 A 
ATOM     10  C   UNL     1       8.718   1.110  12.325  0.00  0.00    +0.000 C 
ATOM     11  C   UNL     1       5.508   4.911   8.894  0.00  0.00    +0.000 A 
ATOM     12  C   UNL     1       5.050   3.681   8.403  0.00  0.00    +0.000 A 
ENDROOT
BRANCH   1  13
ATOM     13  C   UNL     1       6.835   0.077  10.309  0.00  0.00    +0.000 C 
ATOM     14  C   UNL     1       6.556  -1.398  10.005  0.00  0.00    +0.000 C 
BRANCH  14  15
ATOM     15  C   UNL     1       6.278  -2.874   9.702  0.00  0.00    +0.000 C 
BRANCH  15  16
ATOM     16  C   UNL     1       6.000  -4.348   9.399  0.00  0.00    +0.000 C 
ATOM     17  C   UNL     1       5.721  -5.823   9.094  0.00  0.00    +0.000 C 
BRANCH  17  19
ATOM     18  O   UNL     1       5.453  -7.665   7.682  0.00  0.00    +0.000 OA
ATOM     19  C   UNL     1       5.463  -7.202   8.810  0.00  0.00    +0.000 C 
BRANCH  19  20
ATOM     20  O   UNL     1       5.228  -7.952   9.901  0.00  0.00    +0.000 OA
ATOM     21  H   UNL     1       4.735  -7.350  10.494  0.00  0.00    +0.000 HD
ENDBRANCH  19  20
ENDBRANCH  17  19
ENDBRANCH  15  16
ENDBRANCH  14  15
ENDBRANCH   1  13
TORSDOF 5
ENDMDL
MODEL 3
REMARK VINA RESULT:      -4.4     20.381     21.342
REMARK  Name = 85668777_Hyaluronidase.pdbqt.pdb
REMARK  5 active torsions:
REMARK  status: ('A' for Active; 'I' for Inactive)
REMARK    1  A    between atoms: N_1  and  C_13
REMARK    2  A    between atoms: C_14  and  C_15
REMARK    3  A    between atoms: C_15  and  C_16
REMARK    4  A    between atoms: C_17  and  C_19
REMARK    5  A    between atoms: C_19  and  O_20
REMARK                            x       y       z     vdW  Elec       q    Type
REMARK                         _______ _______ _______ _____ _____    ______ ____
ROOT
ATOM      1  N   UNL     1     -11.573 -11.388  27.326  0.00  0.00    +0.000 N 
ATOM      2  C   UNL     1     -12.126 -13.626  28.062  0.00  0.00    +0.000 C 
ATOM      3  C   UNL     1     -13.269 -12.964  27.293  0.00  0.00    +0.000 A 
ATOM      4  C   UNL     1     -11.045 -12.478  28.020  0.00  0.00    +0.000 C 
ATOM      5  C   UNL     1     -12.881 -11.668  26.896  0.00  0.00    +0.000 A 
ATOM      6  C   UNL     1     -12.603 -13.942  29.515  0.00  0.00    +0.000 C 
ATOM      7  C   UNL     1     -11.665 -14.905  27.291  0.00  0.00    +0.000 C 
ATOM      8  C   UNL     1     -14.526 -13.461  26.979  0.00  0.00    +0.000 A 
ATOM      9  C   UNL     1     -13.743 -10.855  26.180  0.00  0.00    +0.000 A 
ATOM     10  C   UNL     1      -9.797 -12.446  28.531  0.00  0.00    +0.000 C 
ATOM     11  C   UNL     1     -15.394 -12.641  26.258  0.00  0.00    +0.000 A 
ATOM     12  C   UNL     1     -15.006 -11.354  25.863  0.00  0.00    +0.000 A 
ENDROOT
BRANCH   1  13
ATOM     13  C   UNL     1     -10.898 -10.139  27.068  0.00  0.00    +0.000 C 
ATOM     14  C   UNL     1     -10.177  -8.815  26.797  0.00  0.00    +0.000 C 
BRANCH  14  15
ATOM     15  C   UNL     1      -9.455  -7.492  26.526  0.00  0.00    +0.000 C 
BRANCH  15  16
ATOM     16  C   UNL     1      -8.734  -6.168  26.255  0.00  0.00    +0.000 C 
ATOM     17  C   UNL     1      -8.013  -4.844  25.983  0.00  0.00    +0.000 C 
BRANCH  17  19
ATOM     18  O   UNL     1      -7.298  -3.080  24.630  0.00  0.00    +0.000 OA
ATOM     19  C   UNL     1      -7.339  -3.607  25.728  0.00  0.00    +0.000 C 
BRANCH  19  20
ATOM     20  O   UNL     1      -6.748  -3.071  26.810  0.00  0.00    +0.000 OA
ATOM     21  H   UNL     1      -5.993  -2.572  26.438  0.00  0.00    +0.000 HD
ENDBRANCH  19  20
ENDBRANCH  17  19
ENDBRANCH  15  16
ENDBRANCH  14  15
ENDBRANCH   1  13
TORSDOF 5
ENDMDL
MODEL 4
REMARK VINA RESULT:      -4.4     23.761     26.201
REMARK  Name = 85668777_Hyaluronidase.pdbqt.pdb
REMARK  5 active torsions:
REMARK  status: ('A' for Active; 'I' for Inactive)
REMARK    1  A    between atoms: N_1  and  C_13
REMARK    2  A    between atoms: C_14  and  C_15
REMARK    3  A    between atoms: C_15  and  C_16
REMARK    4  A    between atoms: C_17  and  C_19
REMARK    5  A    between atoms: C_19  and  O_20
REMARK                            x       y       z     vdW  Elec       q    Type
REMARK                         _______ _______ _______ _____ _____    ______ ____
ROOT
ATOM      1  N   UNL     1       5.291   3.665  13.089  0.00  0.00    +0.000 N 
ATOM      2  C   UNL     1       5.788   5.648  11.794  0.00  0.00    +0.000 C 
ATOM      3  C   UNL     1       5.415   4.455  10.915  0.00  0.00    +0.000 A 
ATOM      4  C   UNL     1       5.670   5.001  13.228  0.00  0.00    +0.000 C 
ATOM      5  C   UNL     1       5.139   3.337  11.731  0.00  0.00    +0.000 A 
ATOM      6  C   UNL     1       7.247   6.094  11.460  0.00  0.00    +0.000 C 
ATOM      7  C   UNL     1       4.747   6.792  11.572  0.00  0.00    +0.000 C 
ATOM      8  C   UNL     1       5.330   4.369   9.533  0.00  0.00    +0.000 A 
ATOM      9  C   UNL     1       4.776   2.124  11.174  0.00  0.00    +0.000 A 
ATOM     10  C   UNL     1       5.876   5.548  14.444  0.00  0.00    +0.000 C 
ATOM     11  C   UNL     1       4.963   3.145   8.974  0.00  0.00    +0.000 A 
ATOM     12  C   UNL     1       4.689   2.036   9.785  0.00  0.00    +0.000 A 
ENDROOT
BRANCH   1  13
ATOM     13  C   UNL     1       5.076   2.728  14.165  0.00  0.00    +0.000 C 
ATOM     14  C   UNL     1       4.852   1.735  15.309  0.00  0.00    +0.000 C 
BRANCH  14  15
ATOM     15  C   UNL     1       4.628   0.742  16.454  0.00  0.00    +0.000 C 
BRANCH  15  16
ATOM     16  C   UNL     1       4.405  -0.251  17.598  0.00  0.00    +0.000 C 
ATOM     17  C   UNL     1       4.183  -1.245  18.742  0.00  0.00    +0.000 C 
BRANCH  17  19
ATOM     18  O   UNL     1       3.741  -1.833  20.960  0.00  0.00    +0.000 OA
ATOM     19  C   UNL     1       3.976  -2.173  19.813  0.00  0.00    +0.000 C 
BRANCH  19  20
ATOM     20  O   UNL     1       4.065  -3.463  19.444  0.00  0.00    +0.000 OA
ATOM     21  H   UNL     1       3.133  -3.729  19.308  0.00  0.00    +0.000 HD
ENDBRANCH  19  20
ENDBRANCH  17  19
ENDBRANCH  15  16
ENDBRANCH  14  15
ENDBRANCH   1  13
TORSDOF 5
ENDMDL
MODEL 5
REMARK VINA RESULT:      -4.3     13.998     14.648
REMARK  Name = 85668777_Hyaluronidase.pdbqt.pdb
REMARK  5 active torsions:
REMARK  status: ('A' for Active; 'I' for Inactive)
REMARK    1  A    between atoms: N_1  and  C_13
REMARK    2  A    between atoms: C_14  and  C_15
REMARK    3  A    between atoms: C_15  and  C_16
REMARK    4  A    between atoms: C_17  and  C_19
REMARK    5  A    between atoms: C_19  and  O_20
REMARK                            x       y       z     vdW  Elec       q    Type
REMARK                         _______ _______ _______ _____ _____    ______ ____
ROOT
ATOM      1  N   UNL     1      -5.066 -17.711  19.533  0.00  0.00    +0.000 N 
ATOM      2  C   UNL     1      -6.128 -19.872  19.770  0.00  0.00    +0.000 C 
ATOM      3  C   UNL     1      -7.061 -18.719  20.137  0.00  0.00    +0.000 A 
ATOM      4  C   UNL     1      -4.822 -19.077  19.380  0.00  0.00    +0.000 C 
ATOM      5  C   UNL     1      -6.381 -17.494  19.978  0.00  0.00    +0.000 A 
ATOM      6  C   UNL     1      -5.919 -20.781  21.023  0.00  0.00    +0.000 C 
ATOM      7  C   UNL     1      -6.732 -20.652  18.558  0.00  0.00    +0.000 C 
ATOM      8  C   UNL     1      -8.379 -18.753  20.571  0.00  0.00    +0.000 A 
ATOM      9  C   UNL     1      -7.010 -16.291  20.248  0.00  0.00    +0.000 A 
ATOM     10  C   UNL     1      -3.624 -19.533  18.961  0.00  0.00    +0.000 C 
ATOM     11  C   UNL     1      -9.011 -17.541  20.843  0.00  0.00    +0.000 A 
ATOM     12  C   UNL     1      -8.335 -16.324  20.682  0.00  0.00    +0.000 A 
ENDROOT
BRANCH   1  13
ATOM     13  C   UNL     1      -4.124 -16.648  19.277  0.00  0.00    +0.000 C 
ATOM     14  C   UNL     1      -3.127 -15.519  18.999  0.00  0.00    +0.000 C 
BRANCH  14  15
ATOM     15  C   UNL     1      -2.129 -14.390  18.721  0.00  0.00    +0.000 C 
BRANCH  15  16
ATOM     16  C   UNL     1      -1.132 -13.262  18.444  0.00  0.00    +0.000 C 
ATOM     17  C   UNL     1      -0.134 -12.133  18.168  0.00  0.00    +0.000 C 
BRANCH  17  19
ATOM     18  O   UNL     1       1.963 -11.109  18.272  0.00  0.00    +0.000 OA
ATOM     19  C   UNL     1       0.800 -11.079  17.910  0.00  0.00    +0.000 C 
BRANCH  19  20
ATOM     20  O   UNL     1       0.281 -10.042  17.229  0.00  0.00    +0.000 OA
ATOM     21  H   UNL     1       0.990  -9.801  16.599  0.00  0.00    +0.000 HD
ENDBRANCH  19  20
ENDBRANCH  17  19
ENDBRANCH  15  16
ENDBRANCH  14  15
ENDBRANCH   1  13
TORSDOF 5
ENDMDL
MODEL 6
REMARK VINA RESULT:      -4.2      2.786      3.352
REMARK  Name = 85668777_Hyaluronidase.pdbqt.pdb
REMARK  5 active torsions:
REMARK  status: ('A' for Active; 'I' for Inactive)
REMARK    1  A    between atoms: N_1  and  C_13
REMARK    2  A    between atoms: C_14  and  C_15
REMARK    3  A    between atoms: C_15  and  C_16
REMARK    4  A    between atoms: C_17  and  C_19
REMARK    5  A    between atoms: C_19  and  O_20
REMARK                            x       y       z     vdW  Elec       q    Type
REMARK                         _______ _______ _______ _____ _____    ______ ____
ROOT
ATOM      1  N   UNL     1     -10.072 -16.959   6.858  0.00  0.00    +0.000 N 
ATOM      2  C   UNL     1     -11.017 -18.956   7.844  0.00  0.00    +0.000 C 
ATOM      3  C   UNL     1     -10.863 -17.821   8.856  0.00  0.00    +0.000 A 
ATOM      4  C   UNL     1     -10.456 -18.263   6.543  0.00  0.00    +0.000 C 
ATOM      5  C   UNL     1     -10.309 -16.692   8.217  0.00  0.00    +0.000 A 
ATOM      6  C   UNL     1     -10.142 -20.168   8.298  0.00  0.00    +0.000 C 
ATOM      7  C   UNL     1     -12.530 -19.324   7.716  0.00  0.00    +0.000 C 
ATOM      8  C   UNL     1     -11.182 -17.792  10.206  0.00  0.00    +0.000 A 
ATOM      9  C   UNL     1     -10.067 -15.525   8.919  0.00  0.00    +0.000 A 
ATOM     10  C   UNL     1     -10.324 -18.750   5.292  0.00  0.00    +0.000 C 
ATOM     11  C   UNL     1     -10.938 -16.615  10.913  0.00  0.00    +0.000 A 
ATOM     12  C   UNL     1     -10.388 -15.494  10.276  0.00  0.00    +0.000 A 
ENDROOT
BRANCH   1  13
ATOM     13  C   UNL     1      -9.510 -15.995   5.942  0.00  0.00    +0.000 C 
ATOM     14  C   UNL     1      -8.909 -14.975   4.971  0.00  0.00    +0.000 C 
BRANCH  14  15
ATOM     15  C   UNL     1      -8.306 -13.954   4.001  0.00  0.00    +0.000 C 
BRANCH  15  16
ATOM     16  C   UNL     1      -7.704 -12.934   3.031  0.00  0.00    +0.000 C 
ATOM     17  C   UNL     1      -7.100 -11.913   2.061  0.00  0.00    +0.000 C 
BRANCH  17  19
ATOM     18  O   UNL     1      -6.784 -10.936  -0.037  0.00  0.00    +0.000 OA
ATOM     19  C   UNL     1      -6.534 -10.959   1.156  0.00  0.00    +0.000 C 
BRANCH  19  20
ATOM     20  O   UNL     1      -5.696 -10.083   1.736  0.00  0.00    +0.000 OA
ATOM     21  H   UNL     1      -5.939  -9.226   1.331  0.00  0.00    +0.000 HD
ENDBRANCH  19  20
ENDBRANCH  17  19
ENDBRANCH  15  16
ENDBRANCH  14  15
ENDBRANCH   1  13
TORSDOF 5
ENDMDL
MODEL 7
REMARK VINA RESULT:      -4.1      5.806      7.714
REMARK  Name = 85668777_Hyaluronidase.pdbqt.pdb
REMARK  5 active torsions:
REMARK  status: ('A' for Active; 'I' for Inactive)
REMARK    1  A    between atoms: N_1  and  C_13
REMARK    2  A    between atoms: C_14  and  C_15
REMARK    3  A    between atoms: C_15  and  C_16
REMARK    4  A    between atoms: C_17  and  C_19
REMARK    5  A    between atoms: C_19  and  O_20
REMARK                            x       y       z     vdW  Elec       q    Type
REMARK                         _______ _______ _______ _____ _____    ______ ____
ROOT
ATOM      1  N   UNL     1     -13.139 -15.501   9.271  0.00  0.00    +0.000 N 
ATOM      2  C   UNL     1     -11.138 -16.633  10.026  0.00  0.00    +0.000 C 
ATOM      3  C   UNL     1     -12.116 -16.352  11.166  0.00  0.00    +0.000 A 
ATOM      4  C   UNL     1     -11.930 -16.020   8.807  0.00  0.00    +0.000 C 
ATOM      5  C   UNL     1     -13.255 -15.693  10.658  0.00  0.00    +0.000 A 
ATOM      6  C   UNL     1      -9.798 -15.881  10.304  0.00  0.00    +0.000 C 
ATOM      7  C   UNL     1     -10.942 -18.177   9.891  0.00  0.00    +0.000 C 
ATOM      8  C   UNL     1     -12.006 -16.649  12.517  0.00  0.00    +0.000 A 
ATOM      9  C   UNL     1     -14.295 -15.325  11.493  0.00  0.00    +0.000 A 
ATOM     10  C   UNL     1     -11.593 -15.954   7.502  0.00  0.00    +0.000 C 
ATOM     11  C   UNL     1     -13.055 -16.278  13.358  0.00  0.00    +0.000 A 
ATOM     12  C   UNL     1     -14.187 -15.625  12.851  0.00  0.00    +0.000 A 
ENDROOT
BRANCH   1  13
ATOM     13  C   UNL     1     -14.149 -14.855   8.468  0.00  0.00    +0.000 C 
ATOM     14  C   UNL     1     -15.218 -14.166   7.614  0.00  0.00    +0.000 C 
BRANCH  14  15
ATOM     15  C   UNL     1     -16.286 -13.475   6.760  0.00  0.00    +0.000 C 
BRANCH  15  16
ATOM     16  C   UNL     1     -17.354 -12.786   5.908  0.00  0.00    +0.000 C 
ATOM     17  C   UNL     1     -18.424 -12.096   5.055  0.00  0.00    +0.000 C 
BRANCH  17  19
ATOM     18  O   UNL     1     -19.950 -11.972   3.290  0.00  0.00    +0.000 OA
ATOM     19  C   UNL     1     -19.424 -11.452   4.259  0.00  0.00    +0.000 C 
BRANCH  19  20
ATOM     20  O   UNL     1     -19.738 -10.211   4.673  0.00  0.00    +0.000 OA
ATOM     21  H   UNL     1     -19.587  -9.658   3.880  0.00  0.00    +0.000 HD
ENDBRANCH  19  20
ENDBRANCH  17  19
ENDBRANCH  15  16
ENDBRANCH  14  15
ENDBRANCH   1  13
TORSDOF 5
ENDMDL
MODEL 8
REMARK VINA RESULT:      -4.1     14.058     17.853
REMARK  Name = 85668777_Hyaluronidase.pdbqt.pdb
REMARK  5 active torsions:
REMARK  status: ('A' for Active; 'I' for Inactive)
REMARK    1  A    between atoms: N_1  and  C_13
REMARK    2  A    between atoms: C_14  and  C_15
REMARK    3  A    between atoms: C_15  and  C_16
REMARK    4  A    between atoms: C_17  and  C_19
REMARK    5  A    between atoms: C_19  and  O_20
REMARK                            x       y       z     vdW  Elec       q    Type
REMARK                         _______ _______ _______ _____ _____    ______ ____
ROOT
ATOM      1  N   UNL     1      -5.806 -16.881  21.087  0.00  0.00    +0.000 N 
ATOM      2  C   UNL     1      -3.560 -17.284  20.281  0.00  0.00    +0.000 C 
ATOM      3  C   UNL     1      -4.502 -16.811  19.175  0.00  0.00    +0.000 A 
ATOM      4  C   UNL     1      -4.543 -17.292  21.516  0.00  0.00    +0.000 C 
ATOM      5  C   UNL     1      -5.789 -16.596  19.711  0.00  0.00    +0.000 A 
ATOM      6  C   UNL     1      -3.034 -18.712  19.930  0.00  0.00    +0.000 C 
ATOM      7  C   UNL     1      -2.406 -16.244  20.449  0.00  0.00    +0.000 C 
ATOM      8  C   UNL     1      -4.244 -16.594  17.829  0.00  0.00    +0.000 A 
ATOM      9  C   UNL     1      -6.830 -16.163  18.910  0.00  0.00    +0.000 A 
ATOM     10  C   UNL     1      -4.312 -17.621  22.803  0.00  0.00    +0.000 C 
ATOM     11  C   UNL     1      -5.294 -16.157  17.022  0.00  0.00    +0.000 A 
ATOM     12  C   UNL     1      -6.572 -15.944  17.557  0.00  0.00    +0.000 A 
ENDROOT
BRANCH   1  13
ATOM     13  C   UNL     1      -6.982 -16.754  21.914  0.00  0.00    +0.000 C 
ATOM     14  C   UNL     1      -8.227 -16.619  22.795  0.00  0.00    +0.000 C 
BRANCH  14  15
ATOM     15  C   UNL     1      -9.472 -16.484  23.678  0.00  0.00    +0.000 C 
BRANCH  15  16
ATOM     16  C   UNL     1     -10.716 -16.350  24.561  0.00  0.00    +0.000 C 
ATOM     17  C   UNL     1     -11.960 -16.216  25.444  0.00  0.00    +0.000 C 
BRANCH  17  19
ATOM     18  O   UNL     1     -14.245 -16.394  25.898  0.00  0.00    +0.000 OA
ATOM     19  C   UNL     1     -13.124 -16.092  26.269  0.00  0.00    +0.000 C 
BRANCH  19  20
ATOM     20  O   UNL     1     -12.874 -15.609  27.499  0.00  0.00    +0.000 OA
ATOM     21  H   UNL     1     -13.376 -14.770  27.524  0.00  0.00    +0.000 HD
ENDBRANCH  19  20
ENDBRANCH  17  19
ENDBRANCH  15  16
ENDBRANCH  14  15
ENDBRANCH   1  13
TORSDOF 5
ENDMDL
MODEL 9
REMARK VINA RESULT:      -4.0     24.443     26.421
REMARK  Name = 85668777_Hyaluronidase.pdbqt.pdb
REMARK  5 active torsions:
REMARK  status: ('A' for Active; 'I' for Inactive)
REMARK    1  A    between atoms: N_1  and  C_13
REMARK    2  A    between atoms: C_14  and  C_15
REMARK    3  A    between atoms: C_15  and  C_16
REMARK    4  A    between atoms: C_17  and  C_19
REMARK    5  A    between atoms: C_19  and  O_20
REMARK                            x       y       z     vdW  Elec       q    Type
REMARK                         _______ _______ _______ _____ _____    ______ ____
ROOT
ATOM      1  N   UNL     1       5.391   3.275  11.539  0.00  0.00    +0.000 N 
ATOM      2  C   UNL     1       5.845   3.543   9.177  0.00  0.00    +0.000 C 
ATOM      3  C   UNL     1       5.475   4.862   9.855  0.00  0.00    +0.000 A 
ATOM      4  C   UNL     1       5.757   2.552  10.402  0.00  0.00    +0.000 C 
ATOM      5  C   UNL     1       5.223   4.634  11.224  0.00  0.00    +0.000 A 
ATOM      6  C   UNL     1       4.789   3.220   8.073  0.00  0.00    +0.000 C 
ATOM      7  C   UNL     1       7.295   3.652   8.605  0.00  0.00    +0.000 C 
ATOM      8  C   UNL     1       5.370   6.135   9.311  0.00  0.00    +0.000 A 
ATOM      9  C   UNL     1       4.866   5.674  12.064  0.00  0.00    +0.000 A 
ATOM     10  C   UNL     1       5.975   1.223  10.456  0.00  0.00    +0.000 C 
ATOM     11  C   UNL     1       5.009   7.181  10.159  0.00  0.00    +0.000 A 
ATOM     12  C   UNL     1       4.761   6.953  11.519  0.00  0.00    +0.000 A 
ENDROOT
BRANCH   1  13
ATOM     13  C   UNL     1       5.205   2.734  12.864  0.00  0.00    +0.000 C 
ATOM     14  C   UNL     1       5.005   2.155  14.268  0.00  0.00    +0.000 C 
BRANCH  14  15
ATOM     15  C   UNL     1       4.805   1.576  15.672  0.00  0.00    +0.000 C 
BRANCH  15  16
ATOM     16  C   UNL     1       4.605   0.996  17.074  0.00  0.00    +0.000 C 
ATOM     17  C   UNL     1       4.403   0.417  18.478  0.00  0.00    +0.000 C 
BRANCH  17  19
ATOM     18  O   UNL     1       4.775   0.307  20.782  0.00  0.00    +0.000 OA
ATOM     19  C   UNL     1       4.213  -0.125  19.790  0.00  0.00    +0.000 C 
BRANCH  19  20
ATOM     20  O   UNL     1       3.357  -1.160  19.836  0.00  0.00    +0.000 OA
ATOM     21  H   UNL     1       2.559  -0.782  20.259  0.00  0.00    +0.000 HD
ENDBRANCH  19  20
ENDBRANCH  17  19
ENDBRANCH  15  16
ENDBRANCH  14  15
ENDBRANCH   1  13
TORSDOF 5
ENDMDL
