MODEL 1
REMARK VINA RESULT:      -4.1      0.000      0.000
REMARK  Name = 86311066_OplopantriolA.pdbqt.pdb
REMARK  12 active torsions:
REMARK  status: ('A' for Active; 'I' for Inactive)
REMARK    1  A    between atoms: C_1  and  C_3
REMARK    2  A    between atoms: C_2  and  C_13
REMARK    3  A    between atoms: C_4  and  C_5
REMARK    4  A    between atoms: C_6  and  C_7
REMARK    5  A    between atoms: C_8  and  C_9
REMARK    6  A    between atoms: C_10  and  O_11
REMARK    7  A    between atoms: C_13  and  O_14
REMARK    8  A    between atoms: C_13  and  C_16
REMARK    9  A    between atoms: C_17  and  C_18
REMARK   10  A    between atoms: C_19  and  C_20
REMARK   11  A    between atoms: C_20  and  C_21
REMARK   12  A    between atoms: C_20  and  O_23
REMARK                            x       y       z     vdW  Elec       q    Type
REMARK                         _______ _______ _______ _____ _____    ______ ____
ROOT
ATOM      1  C   UNL     1      -5.401   8.640   0.514  0.00  0.00    +0.000 C 
ATOM      2  C   UNL     1      -5.155   8.625  -0.662  0.00  0.00    +0.000 C 
ENDROOT
BRANCH   1   3
ATOM      3  C   UNL     1      -5.714   8.660   2.012  0.00  0.00    +0.000 C 
ATOM      4  C   UNL     1      -6.029   8.680   3.511  0.00  0.00    +0.000 C 
BRANCH   4   5
ATOM      5  C   UNL     1      -6.343   8.702   5.010  0.00  0.00    +0.000 C 
ATOM      6  C   UNL     1      -6.657   8.725   6.509  0.00  0.00    +0.000 C 
BRANCH   6   7
ATOM      7  C   UNL     1      -6.971   8.747   8.008  0.00  0.00    +0.000 C 
ATOM      8  C   UNL     1      -7.285   8.770   9.507  0.00  0.00    +0.000 C 
BRANCH   8   9
ATOM      9  C   UNL     1      -7.599   8.793  11.006  0.00  0.00    +0.000 C 
ATOM     10  C   UNL     1      -7.912   8.818  12.505  0.00  0.00    +0.000 C 
BRANCH  10  11
ATOM     11  O   UNL     1      -8.185   8.838  13.804  0.00  0.00    +0.000 OA
ATOM     12  H   UNL     1      -7.508   9.344  14.284  0.00  0.00    +0.000 HD
ENDBRANCH  10  11
ENDBRANCH   8   9
ENDBRANCH   6   7
ENDBRANCH   4   5
ENDBRANCH   1   3
BRANCH   2  13
ATOM     13  C   UNL     1      -4.863   8.606  -2.048  0.00  0.00    +0.000 C 
BRANCH  13  14
ATOM     14  O   UNL     1      -5.286   9.678  -2.801  0.00  0.00    +0.000 OA
ATOM     15  H   UNL     1      -5.583   9.400  -3.684  0.00  0.00    +0.000 HD
ENDBRANCH  13  14
BRANCH  13  16
ATOM     16  C   UNL     1      -4.166   7.551  -2.691  0.00  0.00    +0.000 C 
ATOM     17  C   UNL     1      -3.576   6.658  -3.235  0.00  0.00    +0.000 C 
BRANCH  17  18
ATOM     18  C   UNL     1      -2.822   5.519  -3.926  0.00  0.00    +0.000 C 
ATOM     19  C   UNL     1      -2.231   4.626  -4.468  0.00  0.00    +0.000 C 
BRANCH  19  20
ATOM     20  C   UNL     1      -1.533   3.568  -5.109  0.00  0.00    +0.000 C 
BRANCH  20  21
ATOM     21  C   UNL     1      -0.210   3.180  -4.759  0.00  0.00    +0.000 C 
ATOM     22  C   UNL     1       1.036   2.815  -4.446  0.00  0.00    +0.000 C 
ENDBRANCH  20  21
BRANCH  20  23
ATOM     23  O   UNL     1      -2.170   2.883  -6.124  0.00  0.00    +0.000 OA
ATOM     24  H   UNL     1      -1.939   3.236  -7.000  0.00  0.00    +0.000 HD
ENDBRANCH  20  23
ENDBRANCH  19  20
ENDBRANCH  17  18
ENDBRANCH  13  16
ENDBRANCH   2  13
TORSDOF 12
ENDMDL
MODEL 2
REMARK VINA RESULT:      -4.1     24.510     29.738
REMARK  Name = 86311066_OplopantriolA.pdbqt.pdb
REMARK  12 active torsions:
REMARK  status: ('A' for Active; 'I' for Inactive)
REMARK    1  A    between atoms: C_1  and  C_3
REMARK    2  A    between atoms: C_2  and  C_13
REMARK    3  A    between atoms: C_4  and  C_5
REMARK    4  A    between atoms: C_6  and  C_7
REMARK    5  A    between atoms: C_8  and  C_9
REMARK    6  A    between atoms: C_10  and  O_11
REMARK    7  A    between atoms: C_13  and  O_14
REMARK    8  A    between atoms: C_13  and  C_16
REMARK    9  A    between atoms: C_17  and  C_18
REMARK   10  A    between atoms: C_19  and  C_20
REMARK   11  A    between atoms: C_20  and  C_21
REMARK   12  A    between atoms: C_20  and  O_23
REMARK                            x       y       z     vdW  Elec       q    Type
REMARK                         _______ _______ _______ _____ _____    ______ ____
ROOT
ATOM      1  C   UNL     1     -12.817 -16.937  13.121  0.00  0.00    +0.000 C 
ATOM      2  C   UNL     1     -13.281 -17.224  14.191  0.00  0.00    +0.000 C 
ENDROOT
BRANCH   1   3
ATOM      3  C   UNL     1     -12.226 -16.569  11.757  0.00  0.00    +0.000 C 
ATOM      4  C   UNL     1     -11.633 -16.202  10.393  0.00  0.00    +0.000 C 
BRANCH   4   5
ATOM      5  C   UNL     1     -11.040 -15.834   9.030  0.00  0.00    +0.000 C 
ATOM      6  C   UNL     1     -10.448 -15.468   7.665  0.00  0.00    +0.000 C 
BRANCH   6   7
ATOM      7  C   UNL     1      -9.855 -15.102   6.301  0.00  0.00    +0.000 C 
ATOM      8  C   UNL     1      -9.262 -14.736   4.937  0.00  0.00    +0.000 C 
BRANCH   8   9
ATOM      9  C   UNL     1      -8.669 -14.371   3.573  0.00  0.00    +0.000 C 
ATOM     10  C   UNL     1      -8.077 -14.005   2.209  0.00  0.00    +0.000 C 
BRANCH  10  11
ATOM     11  O   UNL     1      -7.563 -13.689   1.027  0.00  0.00    +0.000 OA
ATOM     12  H   UNL     1      -6.700 -14.120   0.906  0.00  0.00    +0.000 HD
ENDBRANCH  10  11
ENDBRANCH   8   9
ENDBRANCH   6   7
ENDBRANCH   4   5
ENDBRANCH   1   3
BRANCH   2  13
ATOM     13  C   UNL     1     -13.830 -17.563  15.452  0.00  0.00    +0.000 C 
BRANCH  13  14
ATOM     14  O   UNL     1     -13.849 -18.894  15.800  0.00  0.00    +0.000 OA
ATOM     15  H   UNL     1     -13.593 -19.463  15.054  0.00  0.00    +0.000 HD
ENDBRANCH  13  14
BRANCH  13  16
ATOM     16  C   UNL     1     -14.354 -16.611  16.364  0.00  0.00    +0.000 C 
ATOM     17  C   UNL     1     -14.796 -15.805  17.136  0.00  0.00    +0.000 C 
BRANCH  17  18
ATOM     18  C   UNL     1     -15.358 -14.777  18.121  0.00  0.00    +0.000 C 
ATOM     19  C   UNL     1     -15.799 -13.970  18.894  0.00  0.00    +0.000 C 
BRANCH  19  20
ATOM     20  C   UNL     1     -16.320 -13.017  19.809  0.00  0.00    +0.000 C 
BRANCH  20  21
ATOM     21  C   UNL     1     -15.699 -11.764  20.069  0.00  0.00    +0.000 C 
ATOM     22  C   UNL     1     -15.105 -10.595  20.320  0.00  0.00    +0.000 C 
ENDBRANCH  20  21
BRANCH  20  23
ATOM     23  O   UNL     1     -17.486 -13.324  20.480  0.00  0.00    +0.000 OA
ATOM     24  H   UNL     1     -17.325 -13.911  21.237  0.00  0.00    +0.000 HD
ENDBRANCH  20  23
ENDBRANCH  19  20
ENDBRANCH  17  18
ENDBRANCH  13  16
ENDBRANCH   2  13
TORSDOF 12
ENDMDL
MODEL 3
REMARK VINA RESULT:      -3.8     26.803     30.370
REMARK  Name = 86311066_OplopantriolA.pdbqt.pdb
REMARK  12 active torsions:
REMARK  status: ('A' for Active; 'I' for Inactive)
REMARK    1  A    between atoms: C_1  and  C_3
REMARK    2  A    between atoms: C_2  and  C_13
REMARK    3  A    between atoms: C_4  and  C_5
REMARK    4  A    between atoms: C_6  and  C_7
REMARK    5  A    between atoms: C_8  and  C_9
REMARK    6  A    between atoms: C_10  and  O_11
REMARK    7  A    between atoms: C_13  and  O_14
REMARK    8  A    between atoms: C_13  and  C_16
REMARK    9  A    between atoms: C_17  and  C_18
REMARK   10  A    between atoms: C_19  and  C_20
REMARK   11  A    between atoms: C_20  and  C_21
REMARK   12  A    between atoms: C_20  and  O_23
REMARK                            x       y       z     vdW  Elec       q    Type
REMARK                         _______ _______ _______ _____ _____    ______ ____
ROOT
ATOM      1  C   UNL     1     -12.142 -16.329  10.561  0.00  0.00    +0.000 C 
ATOM      2  C   UNL     1     -13.108 -15.767  11.001  0.00  0.00    +0.000 C 
ENDROOT
BRANCH   1   3
ATOM      3  C   UNL     1     -10.910 -17.045  10.000  0.00  0.00    +0.000 C 
ATOM      4  C   UNL     1      -9.678 -17.762   9.440  0.00  0.00    +0.000 C 
BRANCH   4   5
ATOM      5  C   UNL     1      -8.446 -18.478   8.880  0.00  0.00    +0.000 C 
ATOM      6  C   UNL     1      -7.212 -19.192   8.320  0.00  0.00    +0.000 C 
BRANCH   6   7
ATOM      7  C   UNL     1      -5.979 -19.907   7.759  0.00  0.00    +0.000 C 
ATOM      8  C   UNL     1      -4.745 -20.622   7.199  0.00  0.00    +0.000 C 
BRANCH   8   9
ATOM      9  C   UNL     1      -3.511 -21.337   6.639  0.00  0.00    +0.000 C 
ATOM     10  C   UNL     1      -2.277 -22.050   6.080  0.00  0.00    +0.000 C 
BRANCH  10  11
ATOM     11  O   UNL     1      -1.207 -22.669   5.595  0.00  0.00    +0.000 OA
ATOM     12  H   UNL     1      -1.230 -23.614   5.824  0.00  0.00    +0.000 HD
ENDBRANCH  10  11
ENDBRANCH   8   9
ENDBRANCH   6   7
ENDBRANCH   4   5
ENDBRANCH   1   3
BRANCH   2  13
ATOM     13  C   UNL     1     -14.248 -15.106  11.520  0.00  0.00    +0.000 C 
BRANCH  13  14
ATOM     14  O   UNL     1     -15.018 -14.380  10.640  0.00  0.00    +0.000 OA
ATOM     15  H   UNL     1     -14.664 -13.485  10.507  0.00  0.00    +0.000 HD
ENDBRANCH  13  14
BRANCH  13  16
ATOM     16  C   UNL     1     -14.632 -15.153  12.885  0.00  0.00    +0.000 C 
ATOM     17  C   UNL     1     -14.956 -15.192  14.040  0.00  0.00    +0.000 C 
BRANCH  17  18
ATOM     18  C   UNL     1     -15.370 -15.240  15.513  0.00  0.00    +0.000 C 
ATOM     19  C   UNL     1     -15.696 -15.277  16.668  0.00  0.00    +0.000 C 
BRANCH  19  20
ATOM     20  C   UNL     1     -16.081 -15.321  18.034  0.00  0.00    +0.000 C 
BRANCH  20  21
ATOM     21  C   UNL     1     -16.123 -14.171  18.872  0.00  0.00    +0.000 C 
ATOM     22  C   UNL     1     -16.147 -13.093  19.659  0.00  0.00    +0.000 C 
ENDBRANCH  20  21
BRANCH  20  23
ATOM     23  O   UNL     1     -16.431 -16.540  18.577  0.00  0.00    +0.000 OA
ATOM     24  H   UNL     1     -15.680 -17.158  18.595  0.00  0.00    +0.000 HD
ENDBRANCH  20  23
ENDBRANCH  19  20
ENDBRANCH  17  18
ENDBRANCH  13  16
ENDBRANCH   2  13
TORSDOF 12
ENDMDL
MODEL 4
REMARK VINA RESULT:      -3.7     22.249     24.649
REMARK  Name = 86311066_OplopantriolA.pdbqt.pdb
REMARK  12 active torsions:
REMARK  status: ('A' for Active; 'I' for Inactive)
REMARK    1  A    between atoms: C_1  and  C_3
REMARK    2  A    between atoms: C_2  and  C_13
REMARK    3  A    between atoms: C_4  and  C_5
REMARK    4  A    between atoms: C_6  and  C_7
REMARK    5  A    between atoms: C_8  and  C_9
REMARK    6  A    between atoms: C_10  and  O_11
REMARK    7  A    between atoms: C_13  and  O_14
REMARK    8  A    between atoms: C_13  and  C_16
REMARK    9  A    between atoms: C_17  and  C_18
REMARK   10  A    between atoms: C_19  and  C_20
REMARK   11  A    between atoms: C_20  and  C_21
REMARK   12  A    between atoms: C_20  and  O_23
REMARK                            x       y       z     vdW  Elec       q    Type
REMARK                         _______ _______ _______ _____ _____    ______ ____
ROOT
ATOM      1  C   UNL     1     -20.292  -7.198  14.811  0.00  0.00    +0.000 C 
ATOM      2  C   UNL     1     -20.378  -7.704  13.725  0.00  0.00    +0.000 C 
ENDROOT
BRANCH   1   3
ATOM      3  C   UNL     1     -20.181  -6.553  16.195  0.00  0.00    +0.000 C 
ATOM      4  C   UNL     1     -20.070  -5.906  17.579  0.00  0.00    +0.000 C 
BRANCH   4   5
ATOM      5  C   UNL     1     -19.959  -5.260  18.963  0.00  0.00    +0.000 C 
ATOM      6  C   UNL     1     -19.846  -4.613  20.347  0.00  0.00    +0.000 C 
BRANCH   6   7
ATOM      7  C   UNL     1     -19.733  -3.967  21.731  0.00  0.00    +0.000 C 
ATOM      8  C   UNL     1     -19.621  -3.321  23.115  0.00  0.00    +0.000 C 
BRANCH   8   9
ATOM      9  C   UNL     1     -19.507  -2.675  24.499  0.00  0.00    +0.000 C 
ATOM     10  C   UNL     1     -19.394  -2.028  25.883  0.00  0.00    +0.000 C 
BRANCH  10  11
ATOM     11  O   UNL     1     -19.296  -1.468  27.083  0.00  0.00    +0.000 OA
ATOM     12  H   UNL     1     -20.010  -0.822  27.214  0.00  0.00    +0.000 HD
ENDBRANCH  10  11
ENDBRANCH   8   9
ENDBRANCH   6   7
ENDBRANCH   4   5
ENDBRANCH   1   3
BRANCH   2  13
ATOM     13  C   UNL     1     -20.480  -8.302  12.445  0.00  0.00    +0.000 C 
BRANCH  13  14
ATOM     14  O   UNL     1     -20.375  -9.673  12.373  0.00  0.00    +0.000 OA
ATOM     15  H   UNL     1     -20.965 -10.042  11.696  0.00  0.00    +0.000 HD
ENDBRANCH  13  14
BRANCH  13  16
ATOM     16  C   UNL     1     -20.683  -7.569  11.248  0.00  0.00    +0.000 C 
ATOM     17  C   UNL     1     -20.855  -6.948  10.235  0.00  0.00    +0.000 C 
BRANCH  17  18
ATOM     18  C   UNL     1     -21.075  -6.154   8.945  0.00  0.00    +0.000 C 
ATOM     19  C   UNL     1     -21.247  -5.531   7.933  0.00  0.00    +0.000 C 
BRANCH  19  20
ATOM     20  C   UNL     1     -21.449  -4.794   6.736  0.00  0.00    +0.000 C 
BRANCH  20  21
ATOM     21  C   UNL     1     -22.017  -5.356   5.558  0.00  0.00    +0.000 C 
ATOM     22  C   UNL     1     -22.563  -5.876   4.457  0.00  0.00    +0.000 C 
ENDBRANCH  20  21
BRANCH  20  23
ATOM     23  O   UNL     1     -21.074  -3.466   6.713  0.00  0.00    +0.000 OA
ATOM     24  H   UNL     1     -21.287  -3.015   7.548  0.00  0.00    +0.000 HD
ENDBRANCH  20  23
ENDBRANCH  19  20
ENDBRANCH  17  18
ENDBRANCH  13  16
ENDBRANCH   2  13
TORSDOF 12
ENDMDL
MODEL 5
REMARK VINA RESULT:      -3.5      3.810     14.330
REMARK  Name = 86311066_OplopantriolA.pdbqt.pdb
REMARK  12 active torsions:
REMARK  status: ('A' for Active; 'I' for Inactive)
REMARK    1  A    between atoms: C_1  and  C_3
REMARK    2  A    between atoms: C_2  and  C_13
REMARK    3  A    between atoms: C_4  and  C_5
REMARK    4  A    between atoms: C_6  and  C_7
REMARK    5  A    between atoms: C_8  and  C_9
REMARK    6  A    between atoms: C_10  and  O_11
REMARK    7  A    between atoms: C_13  and  O_14
REMARK    8  A    between atoms: C_13  and  C_16
REMARK    9  A    between atoms: C_17  and  C_18
REMARK   10  A    between atoms: C_19  and  C_20
REMARK   11  A    between atoms: C_20  and  C_21
REMARK   12  A    between atoms: C_20  and  O_23
REMARK                            x       y       z     vdW  Elec       q    Type
REMARK                         _______ _______ _______ _____ _____    ______ ____
ROOT
ATOM      1  C   UNL     1      -4.604   8.022  -1.861  0.00  0.00    +0.000 C 
ATOM      2  C   UNL     1      -4.998   8.575  -0.870  0.00  0.00    +0.000 C 
ENDROOT
BRANCH   1   3
ATOM      3  C   UNL     1      -4.102   7.317  -3.124  0.00  0.00    +0.000 C 
ATOM      4  C   UNL     1      -3.601   6.611  -4.388  0.00  0.00    +0.000 C 
BRANCH   4   5
ATOM      5  C   UNL     1      -3.099   5.905  -5.651  0.00  0.00    +0.000 C 
ATOM      6  C   UNL     1      -2.598   5.200  -6.915  0.00  0.00    +0.000 C 
BRANCH   6   7
ATOM      7  C   UNL     1      -2.097   4.495  -8.179  0.00  0.00    +0.000 C 
ATOM      8  C   UNL     1      -1.596   3.789  -9.442  0.00  0.00    +0.000 C 
BRANCH   8   9
ATOM      9  C   UNL     1      -1.096   3.083 -10.707  0.00  0.00    +0.000 C 
ATOM     10  C   UNL     1      -0.596   2.378 -11.971  0.00  0.00    +0.000 C 
BRANCH  10  11
ATOM     11  O   UNL     1      -0.163   1.766 -13.066  0.00  0.00    +0.000 OA
ATOM     12  H   UNL     1       0.055   0.839 -12.873  0.00  0.00    +0.000 HD
ENDBRANCH  10  11
ENDBRANCH   8   9
ENDBRANCH   6   7
ENDBRANCH   4   5
ENDBRANCH   1   3
BRANCH   2  13
ATOM     13  C   UNL     1      -5.464   9.226   0.298  0.00  0.00    +0.000 C 
BRANCH  13  14
ATOM     14  O   UNL     1      -5.579  10.597   0.259  0.00  0.00    +0.000 OA
ATOM     15  H   UNL     1      -4.908  11.029   0.813  0.00  0.00    +0.000 HD
ENDBRANCH  13  14
BRANCH  13  16
ATOM     16  C   UNL     1      -5.813   8.545   1.493  0.00  0.00    +0.000 C 
ATOM     17  C   UNL     1      -6.107   7.968   2.503  0.00  0.00    +0.000 C 
BRANCH  17  18
ATOM     18  C   UNL     1      -6.481   7.231   3.792  0.00  0.00    +0.000 C 
ATOM     19  C   UNL     1      -6.775   6.653   4.803  0.00  0.00    +0.000 C 
BRANCH  19  20
ATOM     20  C   UNL     1      -7.123   5.969   5.998  0.00  0.00    +0.000 C 
BRANCH  20  21
ATOM     21  C   UNL     1      -8.467   5.742   6.405  0.00  0.00    +0.000 C 
ATOM     22  C   UNL     1      -9.724   5.531   6.802  0.00  0.00    +0.000 C 
ENDBRANCH  20  21
BRANCH  20  23
ATOM     23  O   UNL     1      -6.105   5.502   6.805  0.00  0.00    +0.000 OA
ATOM     24  H   UNL     1      -6.446   4.984   7.554  0.00  0.00    +0.000 HD
ENDBRANCH  20  23
ENDBRANCH  19  20
ENDBRANCH  17  18
ENDBRANCH  13  16
ENDBRANCH   2  13
TORSDOF 12
ENDMDL
MODEL 6
REMARK VINA RESULT:      -3.5      4.435     16.208
REMARK  Name = 86311066_OplopantriolA.pdbqt.pdb
REMARK  12 active torsions:
REMARK  status: ('A' for Active; 'I' for Inactive)
REMARK    1  A    between atoms: C_1  and  C_3
REMARK    2  A    between atoms: C_2  and  C_13
REMARK    3  A    between atoms: C_4  and  C_5
REMARK    4  A    between atoms: C_6  and  C_7
REMARK    5  A    between atoms: C_8  and  C_9
REMARK    6  A    between atoms: C_10  and  O_11
REMARK    7  A    between atoms: C_13  and  O_14
REMARK    8  A    between atoms: C_13  and  C_16
REMARK    9  A    between atoms: C_17  and  C_18
REMARK   10  A    between atoms: C_19  and  C_20
REMARK   11  A    between atoms: C_20  and  C_21
REMARK   12  A    between atoms: C_20  and  O_23
REMARK                            x       y       z     vdW  Elec       q    Type
REMARK                         _______ _______ _______ _____ _____    ______ ____
ROOT
ATOM      1  C   UNL     1      -6.809   9.494  11.245  0.00  0.00    +0.000 C 
ATOM      2  C   UNL     1      -6.967   9.575  12.433  0.00  0.00    +0.000 C 
ENDROOT
BRANCH   1   3
ATOM      3  C   UNL     1      -6.609   9.389   9.731  0.00  0.00    +0.000 C 
ATOM      4  C   UNL     1      -6.409   9.283   8.216  0.00  0.00    +0.000 C 
BRANCH   4   5
ATOM      5  C   UNL     1      -6.210   9.177   6.701  0.00  0.00    +0.000 C 
ATOM      6  C   UNL     1      -6.010   9.069   5.186  0.00  0.00    +0.000 C 
BRANCH   6   7
ATOM      7  C   UNL     1      -5.810   8.961   3.671  0.00  0.00    +0.000 C 
ATOM      8  C   UNL     1      -5.610   8.854   2.157  0.00  0.00    +0.000 C 
BRANCH   8   9
ATOM      9  C   UNL     1      -5.411   8.745   0.642  0.00  0.00    +0.000 C 
ATOM     10  C   UNL     1      -5.211   8.636  -0.873  0.00  0.00    +0.000 C 
BRANCH  10  11
ATOM     11  O   UNL     1      -5.038   8.542  -2.186  0.00  0.00    +0.000 OA
ATOM     12  H   UNL     1      -4.838   9.414  -2.564  0.00  0.00    +0.000 HD
ENDBRANCH  10  11
ENDBRANCH   8   9
ENDBRANCH   6   7
ENDBRANCH   4   5
ENDBRANCH   1   3
BRANCH   2  13
ATOM     13  C   UNL     1      -7.152   9.671  13.834  0.00  0.00    +0.000 C 
BRANCH  13  14
ATOM     14  O   UNL     1      -8.330  10.224  14.284  0.00  0.00    +0.000 OA
ATOM     15  H   UNL     1      -8.501   9.995  15.213  0.00  0.00    +0.000 HD
ENDBRANCH  13  14
BRANCH  13  16
ATOM     16  C   UNL     1      -6.197   9.231  14.786  0.00  0.00    +0.000 C 
ATOM     17  C   UNL     1      -5.389   8.859  15.592  0.00  0.00    +0.000 C 
BRANCH  17  18
ATOM     18  C   UNL     1      -4.359   8.386  16.621  0.00  0.00    +0.000 C 
ATOM     19  C   UNL     1      -3.551   8.015  17.428  0.00  0.00    +0.000 C 
BRANCH  19  20
ATOM     20  C   UNL     1      -2.596   7.575  18.383  0.00  0.00    +0.000 C 
BRANCH  20  21
ATOM     21  C   UNL     1      -1.198   7.808  18.254  0.00  0.00    +0.000 C 
ATOM     22  C   UNL     1       0.115   8.019  18.147  0.00  0.00    +0.000 C 
ENDBRANCH  20  21
BRANCH  20  23
ATOM     23  O   UNL     1      -3.047   6.886  19.491  0.00  0.00    +0.000 OA
ATOM     24  H   UNL     1      -3.145   5.936  19.311  0.00  0.00    +0.000 HD
ENDBRANCH  20  23
ENDBRANCH  19  20
ENDBRANCH  17  18
ENDBRANCH  13  16
ENDBRANCH   2  13
TORSDOF 12
ENDMDL
MODEL 7
REMARK VINA RESULT:      -3.4     18.099     21.149
REMARK  Name = 86311066_OplopantriolA.pdbqt.pdb
REMARK  12 active torsions:
REMARK  status: ('A' for Active; 'I' for Inactive)
REMARK    1  A    between atoms: C_1  and  C_3
REMARK    2  A    between atoms: C_2  and  C_13
REMARK    3  A    between atoms: C_4  and  C_5
REMARK    4  A    between atoms: C_6  and  C_7
REMARK    5  A    between atoms: C_8  and  C_9
REMARK    6  A    between atoms: C_10  and  O_11
REMARK    7  A    between atoms: C_13  and  O_14
REMARK    8  A    between atoms: C_13  and  C_16
REMARK    9  A    between atoms: C_17  and  C_18
REMARK   10  A    between atoms: C_19  and  C_20
REMARK   11  A    between atoms: C_20  and  C_21
REMARK   12  A    between atoms: C_20  and  O_23
REMARK                            x       y       z     vdW  Elec       q    Type
REMARK                         _______ _______ _______ _____ _____    ______ ____
ROOT
ATOM      1  C   UNL     1     -13.575   4.728  16.616  0.00  0.00    +0.000 C 
ATOM      2  C   UNL     1     -14.294   4.836  15.660  0.00  0.00    +0.000 C 
ENDROOT
BRANCH   1   3
ATOM      3  C   UNL     1     -12.660   4.592  17.836  0.00  0.00    +0.000 C 
ATOM      4  C   UNL     1     -11.743   4.457  19.056  0.00  0.00    +0.000 C 
BRANCH   4   5
ATOM      5  C   UNL     1     -10.826   4.321  20.275  0.00  0.00    +0.000 C 
ATOM      6  C   UNL     1      -9.909   4.184  21.494  0.00  0.00    +0.000 C 
BRANCH   6   7
ATOM      7  C   UNL     1      -8.993   4.047  22.713  0.00  0.00    +0.000 C 
ATOM      8  C   UNL     1      -8.076   3.910  23.933  0.00  0.00    +0.000 C 
BRANCH   8   9
ATOM      9  C   UNL     1      -7.158   3.773  25.151  0.00  0.00    +0.000 C 
ATOM     10  C   UNL     1      -6.240   3.636  26.369  0.00  0.00    +0.000 C 
BRANCH  10  11
ATOM     11  O   UNL     1      -5.444   3.518  27.425  0.00  0.00    +0.000 OA
ATOM     12  H   UNL     1      -5.253   4.392  27.805  0.00  0.00    +0.000 HD
ENDBRANCH  10  11
ENDBRANCH   8   9
ENDBRANCH   6   7
ENDBRANCH   4   5
ENDBRANCH   1   3
BRANCH   2  13
ATOM     13  C   UNL     1     -15.140   4.963  14.531  0.00  0.00    +0.000 C 
BRANCH  13  14
ATOM     14  O   UNL     1     -14.585   5.455  13.372  0.00  0.00    +0.000 OA
ATOM     15  H   UNL     1     -14.042   4.785  12.923  0.00  0.00    +0.000 HD
ENDBRANCH  13  14
BRANCH  13  16
ATOM     16  C   UNL     1     -16.515   4.614  14.535  0.00  0.00    +0.000 C 
ATOM     17  C   UNL     1     -17.679   4.317  14.539  0.00  0.00    +0.000 C 
BRANCH  17  18
ATOM     18  C   UNL     1     -19.161   3.937  14.543  0.00  0.00    +0.000 C 
ATOM     19  C   UNL     1     -20.325   3.638  14.547  0.00  0.00    +0.000 C 
BRANCH  19  20
ATOM     20  C   UNL     1     -21.700   3.285  14.552  0.00  0.00    +0.000 C 
BRANCH  20  21
ATOM     21  C   UNL     1     -22.475   3.143  13.367  0.00  0.00    +0.000 C 
ATOM     22  C   UNL     1     -23.213   3.004  12.264  0.00  0.00    +0.000 C 
ENDBRANCH  20  21
BRANCH  20  23
ATOM     23  O   UNL     1     -22.316   3.068  15.769  0.00  0.00    +0.000 OA
ATOM     24  H   UNL     1     -21.740   2.583  16.384  0.00  0.00    +0.000 HD
ENDBRANCH  20  23
ENDBRANCH  19  20
ENDBRANCH  17  18
ENDBRANCH  13  16
ENDBRANCH   2  13
TORSDOF 12
ENDMDL
MODEL 8
REMARK VINA RESULT:      -3.2     19.328     20.779
REMARK  Name = 86311066_OplopantriolA.pdbqt.pdb
REMARK  12 active torsions:
REMARK  status: ('A' for Active; 'I' for Inactive)
REMARK    1  A    between atoms: C_1  and  C_3
REMARK    2  A    between atoms: C_2  and  C_13
REMARK    3  A    between atoms: C_4  and  C_5
REMARK    4  A    between atoms: C_6  and  C_7
REMARK    5  A    between atoms: C_8  and  C_9
REMARK    6  A    between atoms: C_10  and  O_11
REMARK    7  A    between atoms: C_13  and  O_14
REMARK    8  A    between atoms: C_13  and  C_16
REMARK    9  A    between atoms: C_17  and  C_18
REMARK   10  A    between atoms: C_19  and  C_20
REMARK   11  A    between atoms: C_20  and  C_21
REMARK   12  A    between atoms: C_20  and  O_23
REMARK                            x       y       z     vdW  Elec       q    Type
REMARK                         _______ _______ _______ _____ _____    ______ ____
ROOT
ATOM      1  C   UNL     1     -17.141   5.068  17.709  0.00  0.00    +0.000 C 
ATOM      2  C   UNL     1     -18.166   5.192  17.096  0.00  0.00    +0.000 C 
ENDROOT
BRANCH   1   3
ATOM      3  C   UNL     1     -15.835   4.910  18.492  0.00  0.00    +0.000 C 
ATOM      4  C   UNL     1     -14.528   4.753  19.276  0.00  0.00    +0.000 C 
BRANCH   4   5
ATOM      5  C   UNL     1     -13.221   4.596  20.059  0.00  0.00    +0.000 C 
ATOM      6  C   UNL     1     -11.912   4.440  20.840  0.00  0.00    +0.000 C 
BRANCH   6   7
ATOM      7  C   UNL     1     -10.604   4.284  21.622  0.00  0.00    +0.000 C 
ATOM      8  C   UNL     1      -9.297   4.127  22.403  0.00  0.00    +0.000 C 
BRANCH   8   9
ATOM      9  C   UNL     1      -7.989   3.970  23.186  0.00  0.00    +0.000 C 
ATOM     10  C   UNL     1      -6.682   3.812  23.967  0.00  0.00    +0.000 C 
BRANCH  10  11
ATOM     11  O   UNL     1      -5.549   3.676  24.646  0.00  0.00    +0.000 OA
ATOM     12  H   UNL     1      -4.951   4.421  24.459  0.00  0.00    +0.000 HD
ENDBRANCH  10  11
ENDBRANCH   8   9
ENDBRANCH   6   7
ENDBRANCH   4   5
ENDBRANCH   1   3
BRANCH   2  13
ATOM     13  C   UNL     1     -19.374   5.340  16.372  0.00  0.00    +0.000 C 
BRANCH  13  14
ATOM     14  O   UNL     1     -20.397   6.035  16.976  0.00  0.00    +0.000 OA
ATOM     15  H   UNL     1     -20.237   6.994  16.958  0.00  0.00    +0.000 HD
ENDBRANCH  13  14
BRANCH  13  16
ATOM     16  C   UNL     1     -19.581   4.814  15.070  0.00  0.00    +0.000 C 
ATOM     17  C   UNL     1     -19.756   4.367  13.970  0.00  0.00    +0.000 C 
BRANCH  17  18
ATOM     18  C   UNL     1     -19.979   3.796  12.567  0.00  0.00    +0.000 C 
ATOM     19  C   UNL     1     -20.154   3.348  11.467  0.00  0.00    +0.000 C 
BRANCH  19  20
ATOM     20  C   UNL     1     -20.359   2.819  10.165  0.00  0.00    +0.000 C 
BRANCH  20  21
ATOM     21  C   UNL     1     -21.397   3.259   9.297  0.00  0.00    +0.000 C 
ATOM     22  C   UNL     1     -22.375   3.683   8.494  0.00  0.00    +0.000 C 
ENDBRANCH  20  21
BRANCH  20  23
ATOM     23  O   UNL     1     -19.510   1.825   9.721  0.00  0.00    +0.000 OA
ATOM     24  H   UNL     1     -19.006   2.104   8.937  0.00  0.00    +0.000 HD
ENDBRANCH  20  23
ENDBRANCH  19  20
ENDBRANCH  17  18
ENDBRANCH  13  16
ENDBRANCH   2  13
TORSDOF 12
ENDMDL
MODEL 9
REMARK VINA RESULT:      -3.1      3.871     14.161
REMARK  Name = 86311066_OplopantriolA.pdbqt.pdb
REMARK  12 active torsions:
REMARK  status: ('A' for Active; 'I' for Inactive)
REMARK    1  A    between atoms: C_1  and  C_3
REMARK    2  A    between atoms: C_2  and  C_13
REMARK    3  A    between atoms: C_4  and  C_5
REMARK    4  A    between atoms: C_6  and  C_7
REMARK    5  A    between atoms: C_8  and  C_9
REMARK    6  A    between atoms: C_10  and  O_11
REMARK    7  A    between atoms: C_13  and  O_14
REMARK    8  A    between atoms: C_13  and  C_16
REMARK    9  A    between atoms: C_17  and  C_18
REMARK   10  A    between atoms: C_19  and  C_20
REMARK   11  A    between atoms: C_20  and  C_21
REMARK   12  A    between atoms: C_20  and  O_23
REMARK                            x       y       z     vdW  Elec       q    Type
REMARK                         _______ _______ _______ _____ _____    ______ ____
ROOT
ATOM      1  C   UNL     1      -2.707   5.943  -3.534  0.00  0.00    +0.000 C 
ATOM      2  C   UNL     1      -3.464   6.832  -3.253  0.00  0.00    +0.000 C 
ENDROOT
BRANCH   1   3
ATOM      3  C   UNL     1      -1.742   4.810  -3.893  0.00  0.00    +0.000 C 
ATOM      4  C   UNL     1      -0.777   3.676  -4.252  0.00  0.00    +0.000 C 
BRANCH   4   5
ATOM      5  C   UNL     1       0.187   2.542  -4.612  0.00  0.00    +0.000 C 
ATOM      6  C   UNL     1       1.154   1.409  -4.971  0.00  0.00    +0.000 C 
BRANCH   6   7
ATOM      7  C   UNL     1       2.119   0.275  -5.331  0.00  0.00    +0.000 C 
ATOM      8  C   UNL     1       3.085  -0.858  -5.691  0.00  0.00    +0.000 C 
BRANCH   8   9
ATOM      9  C   UNL     1       4.050  -1.991  -6.052  0.00  0.00    +0.000 C 
ATOM     10  C   UNL     1       5.015  -3.124  -6.412  0.00  0.00    +0.000 C 
BRANCH  10  11
ATOM     11  O   UNL     1       5.852  -4.106  -6.725  0.00  0.00    +0.000 OA
ATOM     12  H   UNL     1       6.735  -3.749  -6.920  0.00  0.00    +0.000 HD
ENDBRANCH  10  11
ENDBRANCH   8   9
ENDBRANCH   6   7
ENDBRANCH   4   5
ENDBRANCH   1   3
BRANCH   2  13
ATOM     13  C   UNL     1      -4.357   7.880  -2.920  0.00  0.00    +0.000 C 
BRANCH  13  14
ATOM     14  O   UNL     1      -4.920   8.589  -3.957  0.00  0.00    +0.000 OA
ATOM     15  H   UNL     1      -5.539   9.265  -3.634  0.00  0.00    +0.000 HD
ENDBRANCH  13  14
BRANCH  13  16
ATOM     16  C   UNL     1      -4.695   8.233  -1.588  0.00  0.00    +0.000 C 
ATOM     17  C   UNL     1      -4.981   8.530  -0.461  0.00  0.00    +0.000 C 
BRANCH  17  18
ATOM     18  C   UNL     1      -5.343   8.908   0.978  0.00  0.00    +0.000 C 
ATOM     19  C   UNL     1      -5.628   9.204   2.106  0.00  0.00    +0.000 C 
BRANCH  19  20
ATOM     20  C   UNL     1      -5.966   9.553   3.440  0.00  0.00    +0.000 C 
BRANCH  20  21
ATOM     21  C   UNL     1      -7.267   9.381   3.988  0.00  0.00    +0.000 C 
ATOM     22  C   UNL     1      -8.484   9.226   4.515  0.00  0.00    +0.000 C 
ENDBRANCH  20  21
BRANCH  20  23
ATOM     23  O   UNL     1      -4.981  10.088   4.246  0.00  0.00    +0.000 OA
ATOM     24  H   UNL     1      -4.413  10.710   3.760  0.00  0.00    +0.000 HD
ENDBRANCH  20  23
ENDBRANCH  19  20
ENDBRANCH  17  18
ENDBRANCH  13  16
ENDBRANCH   2  13
TORSDOF 12
ENDMDL
