MODEL 1
REMARK VINA RESULT:      -6.9      0.000      0.000
REMARK  Name = 91746246_sitosterol.pdbqt.pdb
REMARK  10 active torsions:
REMARK  status: ('A' for Active; 'I' for Inactive)
REMARK    1  A    between atoms: C_5  and  C_20
REMARK    2  A    between atoms: C_19  and  O_30
REMARK    3  A    between atoms: C_20  and  C_22
REMARK    4  A    between atoms: C_23  and  C_24
REMARK    5  A    between atoms: C_24  and  C_28
REMARK    6  A    between atoms: O_30  and  C_32
REMARK    7  A    between atoms: C_32  and  C_33
REMARK    8  A    between atoms: C_34  and  C_35
REMARK    9  A    between atoms: C_38  and  O_41
REMARK   10  A    between atoms: C_40  and  O_43
REMARK                            x       y       z     vdW  Elec       q    Type
REMARK                         _______ _______ _______ _____ _____    ______ ____
ROOT
ATOM      1  C   UNL     1     -11.300 -18.080   9.849  0.00  0.00    +0.000 C 
ATOM      2  C   UNL     1     -11.815 -16.891  10.822  0.00  0.00    +0.000 C 
ATOM      3  C   UNL     1     -12.556 -17.159  12.071  0.00  0.00    +0.000 C 
ATOM      4  C   UNL     1     -12.708 -18.503  12.739  0.00  0.00    +0.000 C 
ATOM      5  C   UNL     1      -9.891 -17.635   9.479  0.00  0.00    +0.000 C 
ATOM      6  C   UNL     1     -11.371 -19.286  10.672  0.00  0.00    +0.000 C 
ATOM      7  C   UNL     1     -13.544 -18.735  14.025  0.00  0.00    +0.000 C 
ATOM      8  C   UNL     1     -10.837 -15.849  10.775  0.00  0.00    +0.000 C 
ATOM      9  C   UNL     1     -12.041 -19.519  12.004  0.00  0.00    +0.000 C 
ATOM     10  C   UNL     1      -9.651 -16.320   9.976  0.00  0.00    +0.000 C 
ATOM     11  C   UNL     1     -13.076 -16.099  12.854  0.00  0.00    +0.000 C 
ATOM     12  C   UNL     1     -12.232 -18.085   8.607  0.00  0.00    +0.000 C 
ATOM     13  C   UNL     1     -13.880 -17.355  14.866  0.00  0.00    +0.000 C 
ATOM     14  C   UNL     1     -12.779 -19.566  15.001  0.00  0.00    +0.000 C 
ATOM     15  C   UNL     1     -13.706 -16.251  14.206  0.00  0.00    +0.000 C 
ATOM     16  C   UNL     1     -14.907 -19.385  13.642  0.00  0.00    +0.000 C 
ATOM     17  C   UNL     1     -13.495 -17.371  16.259  0.00  0.00    +0.000 C 
ATOM     18  C   UNL     1     -12.404 -19.396  16.482  0.00  0.00    +0.000 C 
ATOM     19  C   UNL     1     -12.794 -18.211  17.194  0.00  0.00    +0.000 C 
ENDROOT
BRANCH   5  20
ATOM     20  C   UNL     1      -9.047 -18.324   8.556  0.00  0.00    +0.000 C 
ATOM     21  C   UNL     1      -8.892 -17.883   7.125  0.00  0.00    +0.000 C 
BRANCH  20  22
ATOM     22  C   UNL     1      -8.508 -19.603   8.869  0.00  0.00    +0.000 C 
ATOM     23  C   UNL     1      -7.926 -20.984   9.205  0.00  0.00    +0.000 C 
BRANCH  23  24
ATOM     24  C   UNL     1      -7.399 -22.276   9.510  0.00  0.00    +0.000 C 
ATOM     25  C   UNL     1      -7.516 -22.839  10.838  0.00  0.00    +0.000 C 
ATOM     26  C   UNL     1      -6.940 -24.183  11.225  0.00  0.00    +0.000 C 
ATOM     27  C   UNL     1      -8.233 -22.129  11.967  0.00  0.00    +0.000 C 
BRANCH  24  28
ATOM     28  C   UNL     1      -6.747 -23.022   8.492  0.00  0.00    +0.000 C 
ATOM     29  C   UNL     1      -5.985 -23.826   7.431  0.00  0.00    +0.000 C 
ENDBRANCH  24  28
ENDBRANCH  23  24
ENDBRANCH  20  22
ENDBRANCH   5  20
BRANCH  19  30
ATOM     30  O   UNL     1     -13.272 -18.291  18.499  0.00  0.00    +0.000 OA
BRANCH  30  32
ATOM     31  O   UNL     1     -12.874 -20.248  19.690  0.00  0.00    +0.000 OA
ATOM     32  C   UNL     1     -12.535 -19.158  19.252  0.00  0.00    +0.000 C 
BRANCH  32  33
ATOM     33  C   UNL     1     -11.202 -18.659  19.482  0.00  0.00    +0.000 C 
ATOM     34  C   UNL     1     -10.095 -18.243  19.692  0.00  0.00    +0.000 C 
BRANCH  34  35
ATOM     35  C   UNL     1      -8.784 -17.750  19.961  0.00  0.00    +0.000 A 
ATOM     36  C   UNL     1      -7.819 -17.768  18.956  0.00  0.00    +0.000 A 
ATOM     37  C   UNL     1      -8.468 -17.259  21.225  0.00  0.00    +0.000 A 
ATOM     38  C   UNL     1      -6.527 -17.295  19.200  0.00  0.00    +0.000 A 
ATOM     39  C   UNL     1      -7.184 -16.785  21.483  0.00  0.00    +0.000 A 
ATOM     40  C   UNL     1      -6.223 -16.806  20.473  0.00  0.00    +0.000 A 
BRANCH  38  41
ATOM     41  O   UNL     1      -5.518 -17.279  18.268  0.00  0.00    +0.000 OA
ATOM     42  C   UNL     1      -5.528 -16.187  17.385  0.00  0.00    +0.000 C 
ENDBRANCH  38  41
BRANCH  40  43
ATOM     43  O   UNL     1      -4.963 -16.340  20.734  0.00  0.00    +0.000 OA
ATOM     44  H   UNL     1      -4.392 -17.097  20.965  0.00  0.00    +0.000 HD
ENDBRANCH  40  43
ENDBRANCH  34  35
ENDBRANCH  32  33
ENDBRANCH  30  32
ENDBRANCH  19  30
TORSDOF 10
ENDMDL
MODEL 2
REMARK VINA RESULT:      -6.9     26.446     29.957
REMARK  Name = 91746246_sitosterol.pdbqt.pdb
REMARK  10 active torsions:
REMARK  status: ('A' for Active; 'I' for Inactive)
REMARK    1  A    between atoms: C_5  and  C_20
REMARK    2  A    between atoms: C_19  and  O_30
REMARK    3  A    between atoms: C_20  and  C_22
REMARK    4  A    between atoms: C_23  and  C_24
REMARK    5  A    between atoms: C_24  and  C_28
REMARK    6  A    between atoms: O_30  and  C_32
REMARK    7  A    between atoms: C_32  and  C_33
REMARK    8  A    between atoms: C_34  and  C_35
REMARK    9  A    between atoms: C_38  and  O_41
REMARK   10  A    between atoms: C_40  and  O_43
REMARK                            x       y       z     vdW  Elec       q    Type
REMARK                         _______ _______ _______ _____ _____    ______ ____
ROOT
ATOM      1  C   UNL     1      -4.579  11.110   2.089  0.00  0.00    +0.000 C 
ATOM      2  C   UNL     1      -4.468  11.096   3.706  0.00  0.00    +0.000 C 
ATOM      3  C   UNL     1      -5.314  10.226   4.547  0.00  0.00    +0.000 C 
ATOM      4  C   UNL     1      -6.173   9.086   4.058  0.00  0.00    +0.000 C 
ATOM      5  C   UNL     1      -3.122  11.132   1.645  0.00  0.00    +0.000 C 
ATOM      6  C   UNL     1      -5.307   9.886   1.759  0.00  0.00    +0.000 C 
ATOM      7  C   UNL     1      -7.084   8.238   4.983  0.00  0.00    +0.000 C 
ATOM      8  C   UNL     1      -3.093  11.304   4.040  0.00  0.00    +0.000 C 
ATOM      9  C   UNL     1      -6.079   8.942   2.648  0.00  0.00    +0.000 C 
ATOM     10  C   UNL     1      -2.272  11.297   2.778  0.00  0.00    +0.000 C 
ATOM     11  C   UNL     1      -5.262  10.302   5.961  0.00  0.00    +0.000 C 
ATOM     12  C   UNL     1      -5.306  12.424   1.696  0.00  0.00    +0.000 C 
ATOM     13  C   UNL     1      -6.714   8.360   6.586  0.00  0.00    +0.000 C 
ATOM     14  C   UNL     1      -6.913   6.784   4.691  0.00  0.00    +0.000 C 
ATOM     15  C   UNL     1      -5.960   9.368   6.903  0.00  0.00    +0.000 C 
ATOM     16  C   UNL     1      -8.561   8.700   4.814  0.00  0.00    +0.000 C 
ATOM     17  C   UNL     1      -6.475   7.106   7.264  0.00  0.00    +0.000 C 
ATOM     18  C   UNL     1      -6.592   5.554   5.556  0.00  0.00    +0.000 C 
ATOM     19  C   UNL     1      -6.361   5.702   6.966  0.00  0.00    +0.000 C 
ENDROOT
BRANCH   5  20
ATOM     20  C   UNL     1      -2.698  11.237   0.286  0.00  0.00    +0.000 C 
ATOM     21  C   UNL     1      -1.896  12.407  -0.219  0.00  0.00    +0.000 C 
BRANCH  20  22
ATOM     22  C   UNL     1      -3.221  10.371  -0.714  0.00  0.00    +0.000 C 
ATOM     23  C   UNL     1      -3.787   9.437  -1.796  0.00  0.00    +0.000 C 
BRANCH  23  24
ATOM     24  C   UNL     1      -4.326   8.581  -2.802  0.00  0.00    +0.000 C 
ATOM     25  C   UNL     1      -5.528   8.939  -3.526  0.00  0.00    +0.000 C 
ATOM     26  C   UNL     1      -6.165   8.051  -4.572  0.00  0.00    +0.000 C 
ATOM     27  C   UNL     1      -6.259  10.247  -3.301  0.00  0.00    +0.000 C 
BRANCH  24  28
ATOM     28  C   UNL     1      -3.674   7.355  -3.100  0.00  0.00    +0.000 C 
ATOM     29  C   UNL     1      -2.963   6.020  -3.352  0.00  0.00    +0.000 C 
ENDBRANCH  24  28
ENDBRANCH  23  24
ENDBRANCH  20  22
ENDBRANCH   5  20
BRANCH  19  30
ATOM     30  O   UNL     1      -6.888   4.788   7.873  0.00  0.00    +0.000 OA
BRANCH  30  32
ATOM     31  O   UNL     1      -8.056   5.536   9.741  0.00  0.00    +0.000 OA
ATOM     32  C   UNL     1      -7.958   5.306   8.544  0.00  0.00    +0.000 C 
BRANCH  32  33
ATOM     33  C   UNL     1      -9.045   5.616   7.648  0.00  0.00    +0.000 C 
ATOM     34  C   UNL     1      -9.938   5.871   6.887  0.00  0.00    +0.000 C 
BRANCH  34  35
ATOM     35  C   UNL     1     -10.986   6.173   5.968  0.00  0.00    +0.000 A 
ATOM     36  C   UNL     1     -12.108   6.876   6.406  0.00  0.00    +0.000 A 
ATOM     37  C   UNL     1     -10.892   5.762   4.642  0.00  0.00    +0.000 A 
ATOM     38  C   UNL     1     -13.149   7.177   5.523  0.00  0.00    +0.000 A 
ATOM     39  C   UNL     1     -11.922   6.055   3.750  0.00  0.00    +0.000 A 
ATOM     40  C   UNL     1     -13.042   6.757   4.194  0.00  0.00    +0.000 A 
BRANCH  38  41
ATOM     41  O   UNL     1     -14.287   7.862   5.872  0.00  0.00    +0.000 OA
ATOM     42  C   UNL     1     -14.358   8.273   7.213  0.00  0.00    +0.000 C 
ENDBRANCH  38  41
BRANCH  40  43
ATOM     43  O   UNL     1     -14.050   7.040   3.315  0.00  0.00    +0.000 OA
ATOM     44  H   UNL     1     -14.509   6.210   3.087  0.00  0.00    +0.000 HD
ENDBRANCH  40  43
ENDBRANCH  34  35
ENDBRANCH  32  33
ENDBRANCH  30  32
ENDBRANCH  19  30
TORSDOF 10
ENDMDL
MODEL 3
REMARK VINA RESULT:      -6.7     16.534     21.209
REMARK  Name = 91746246_sitosterol.pdbqt.pdb
REMARK  10 active torsions:
REMARK  status: ('A' for Active; 'I' for Inactive)
REMARK    1  A    between atoms: C_5  and  C_20
REMARK    2  A    between atoms: C_19  and  O_30
REMARK    3  A    between atoms: C_20  and  C_22
REMARK    4  A    between atoms: C_23  and  C_24
REMARK    5  A    between atoms: C_24  and  C_28
REMARK    6  A    between atoms: O_30  and  C_32
REMARK    7  A    between atoms: C_32  and  C_33
REMARK    8  A    between atoms: C_34  and  C_35
REMARK    9  A    between atoms: C_38  and  O_41
REMARK   10  A    between atoms: C_40  and  O_43
REMARK                            x       y       z     vdW  Elec       q    Type
REMARK                         _______ _______ _______ _____ _____    ______ ____
ROOT
ATOM      1  C   UNL     1       7.656  -4.278   9.753  0.00  0.00    +0.000 C 
ATOM      2  C   UNL     1       6.448  -5.208   9.204  0.00  0.00    +0.000 C 
ATOM      3  C   UNL     1       6.195  -6.565   9.730  0.00  0.00    +0.000 C 
ATOM      4  C   UNL     1       6.811  -7.163  10.971  0.00  0.00    +0.000 C 
ATOM      5  C   UNL     1       7.002  -2.908   9.884  0.00  0.00    +0.000 C 
ATOM      6  C   UNL     1       8.051  -4.897  11.018  0.00  0.00    +0.000 C 
ATOM      7  C   UNL     1       6.549  -8.615  11.447  0.00  0.00    +0.000 C 
ATOM      8  C   UNL     1       5.353  -4.343   8.890  0.00  0.00    +0.000 C 
ATOM      9  C   UNL     1       7.697  -6.245  11.595  0.00  0.00    +0.000 C 
ATOM     10  C   UNL     1       5.687  -2.944   9.334  0.00  0.00    +0.000 C 
ATOM     11  C   UNL     1       5.191  -7.392   9.167  0.00  0.00    +0.000 C 
ATOM     12  C   UNL     1       8.757  -4.274   8.660  0.00  0.00    +0.000 C 
ATOM     13  C   UNL     1       5.213  -9.312  10.774  0.00  0.00    +0.000 C 
ATOM     14  C   UNL     1       6.259  -8.639  12.911  0.00  0.00    +0.000 C 
ATOM     15  C   UNL     1       4.753  -8.716   9.716  0.00  0.00    +0.000 C 
ATOM     16  C   UNL     1       7.770  -9.507  11.076  0.00  0.00    +0.000 C 
ATOM     17  C   UNL     1       4.252  -9.845  11.714  0.00  0.00    +0.000 C 
ATOM     18  C   UNL     1       5.120  -9.222  13.763  0.00  0.00    +0.000 C 
ATOM     19  C   UNL     1       4.019  -9.896  13.133  0.00  0.00    +0.000 C 
ENDROOT
BRANCH   5  20
ATOM     20  C   UNL     1       7.698  -1.718  10.257  0.00  0.00    +0.000 C 
ATOM     21  C   UNL     1       9.056  -1.750  10.904  0.00  0.00    +0.000 C 
BRANCH  20  22
ATOM     22  C   UNL     1       7.040  -0.457  10.266  0.00  0.00    +0.000 C 
ATOM     23  C   UNL     1       6.332   0.906  10.276  0.00  0.00    +0.000 C 
BRANCH  23  24
ATOM     24  C   UNL     1       5.681   2.177  10.301  0.00  0.00    +0.000 C 
ATOM     25  C   UNL     1       5.489   2.896  11.542  0.00  0.00    +0.000 C 
ATOM     26  C   UNL     1       4.770   4.224  11.631  0.00  0.00    +0.000 C 
ATOM     27  C   UNL     1       5.997   2.382  12.873  0.00  0.00    +0.000 C 
BRANCH  24  28
ATOM     28  C   UNL     1       5.211   2.746   9.087  0.00  0.00    +0.000 C 
ATOM     29  C   UNL     1       4.770   3.382   7.763  0.00  0.00    +0.000 C 
ENDBRANCH  24  28
ENDBRANCH  23  24
ENDBRANCH  20  22
ENDBRANCH   5  20
BRANCH  19  30
ATOM     30  O   UNL     1       3.497 -11.066  13.676  0.00  0.00    +0.000 OA
BRANCH  30  32
ATOM     31  O   UNL     1       5.439 -12.170  14.321  0.00  0.00    +0.000 OA
ATOM     32  C   UNL     1       4.364 -11.641  14.560  0.00  0.00    +0.000 C 
BRANCH  32  33
ATOM     33  C   UNL     1       3.883 -11.538  15.915  0.00  0.00    +0.000 C 
ATOM     34  C   UNL     1       3.466 -11.445  17.038  0.00  0.00    +0.000 C 
BRANCH  34  35
ATOM     35  C   UNL     1       2.955 -11.327  18.364  0.00  0.00    +0.000 A 
ATOM     36  C   UNL     1       1.670 -11.784  18.654  0.00  0.00    +0.000 A 
ATOM     37  C   UNL     1       3.734 -10.750  19.364  0.00  0.00    +0.000 A 
ATOM     38  C   UNL     1       1.149 -11.672  19.945  0.00  0.00    +0.000 A 
ATOM     39  C   UNL     1       3.227 -10.632  20.656  0.00  0.00    +0.000 A 
ATOM     40  C   UNL     1       1.941 -11.091  20.939  0.00  0.00    +0.000 A 
BRANCH  38  41
ATOM     41  O   UNL     1      -0.105 -12.095  20.314  0.00  0.00    +0.000 OA
ATOM     42  C   UNL     1      -0.248 -13.480  20.495  0.00  0.00    +0.000 C 
ENDBRANCH  38  41
BRANCH  40  43
ATOM     43  O   UNL     1       1.448 -10.970  22.209  0.00  0.00    +0.000 OA
ATOM     44  H   UNL     1       1.023 -11.811  22.461  0.00  0.00    +0.000 HD
ENDBRANCH  40  43
ENDBRANCH  34  35
ENDBRANCH  32  33
ENDBRANCH  30  32
ENDBRANCH  19  30
TORSDOF 10
ENDMDL
MODEL 4
REMARK VINA RESULT:      -6.5     26.823     30.269
REMARK  Name = 91746246_sitosterol.pdbqt.pdb
REMARK  10 active torsions:
REMARK  status: ('A' for Active; 'I' for Inactive)
REMARK    1  A    between atoms: C_5  and  C_20
REMARK    2  A    between atoms: C_19  and  O_30
REMARK    3  A    between atoms: C_20  and  C_22
REMARK    4  A    between atoms: C_23  and  C_24
REMARK    5  A    between atoms: C_24  and  C_28
REMARK    6  A    between atoms: O_30  and  C_32
REMARK    7  A    between atoms: C_32  and  C_33
REMARK    8  A    between atoms: C_34  and  C_35
REMARK    9  A    between atoms: C_38  and  O_41
REMARK   10  A    between atoms: C_40  and  O_43
REMARK                            x       y       z     vdW  Elec       q    Type
REMARK                         _______ _______ _______ _____ _____    ______ ____
ROOT
ATOM      1  C   UNL     1      -4.614  10.283  -0.261  0.00  0.00    +0.000 C 
ATOM      2  C   UNL     1      -4.888  10.975   1.179  0.00  0.00    +0.000 C 
ATOM      3  C   UNL     1      -5.770  10.364   2.193  0.00  0.00    +0.000 C 
ATOM      4  C   UNL     1      -6.312   8.957   2.163  0.00  0.00    +0.000 C 
ATOM      5  C   UNL     1      -3.112  10.462  -0.448  0.00  0.00    +0.000 C 
ATOM      6  C   UNL     1      -5.055   8.899  -0.093  0.00  0.00    +0.000 C 
ATOM      7  C   UNL     1      -7.281   8.385   3.230  0.00  0.00    +0.000 C 
ATOM      8  C   UNL     1      -3.676  11.624   1.576  0.00  0.00    +0.000 C 
ATOM      9  C   UNL     1      -5.868   8.262   1.007  0.00  0.00    +0.000 C 
ATOM     10  C   UNL     1      -2.589  11.283   0.594  0.00  0.00    +0.000 C 
ATOM     11  C   UNL     1      -6.066  11.036   3.405  0.00  0.00    +0.000 C 
ATOM     12  C   UNL     1      -5.413  11.096  -1.314  0.00  0.00    +0.000 C 
ATOM     13  C   UNL     1      -7.323   9.253   4.633  0.00  0.00    +0.000 C 
ATOM     14  C   UNL     1      -6.834   7.029   3.667  0.00  0.00    +0.000 C 
ATOM     15  C   UNL     1      -6.822  10.448   4.558  0.00  0.00    +0.000 C 
ATOM     16  C   UNL     1      -8.728   8.368   2.655  0.00  0.00    +0.000 C 
ATOM     17  C   UNL     1      -7.069   8.495   5.838  0.00  0.00    +0.000 C 
ATOM     18  C   UNL     1      -6.548   6.391   5.037  0.00  0.00    +0.000 C 
ATOM     19  C   UNL     1      -6.682   7.167   6.237  0.00  0.00    +0.000 C 
ENDROOT
BRANCH   5  20
ATOM     20  C   UNL     1      -2.399  10.084  -1.626  0.00  0.00    +0.000 C 
ATOM     21  C   UNL     1      -1.268  10.909  -2.180  0.00  0.00    +0.000 C 
BRANCH  20  22
ATOM     22  C   UNL     1      -2.881   9.049  -2.474  0.00  0.00    +0.000 C 
ATOM     23  C   UNL     1      -3.400   7.928  -3.388  0.00  0.00    +0.000 C 
BRANCH  23  24
ATOM     24  C   UNL     1      -3.865   6.883  -4.242  0.00  0.00    +0.000 C 
ATOM     25  C   UNL     1      -5.121   6.999  -4.952  0.00  0.00    +0.000 C 
ATOM     26  C   UNL     1      -5.681   5.906  -5.836  0.00  0.00    +0.000 C 
ATOM     27  C   UNL     1      -5.994   8.235  -4.876  0.00  0.00    +0.000 C 
BRANCH  24  28
ATOM     28  C   UNL     1      -3.083   5.708  -4.398  0.00  0.00    +0.000 C 
ATOM     29  C   UNL     1      -2.198   4.474  -4.612  0.00  0.00    +0.000 C 
ENDBRANCH  24  28
ENDBRANCH  23  24
ENDBRANCH  20  22
ENDBRANCH   5  20
BRANCH  19  30
ATOM     30  O   UNL     1      -7.268   6.622   7.376  0.00  0.00    +0.000 OA
BRANCH  30  32
ATOM     31  O   UNL     1      -7.880   4.408   7.013  0.00  0.00    +0.000 OA
ATOM     32  C   UNL     1      -8.123   5.604   7.063  0.00  0.00    +0.000 C 
BRANCH  32  33
ATOM     33  C   UNL     1      -9.454   6.093   6.804  0.00  0.00    +0.000 C 
ATOM     34  C   UNL     1     -10.563   6.510   6.604  0.00  0.00    +0.000 C 
BRANCH  34  35
ATOM     35  C   UNL     1     -11.878   7.016   6.383  0.00  0.00    +0.000 A 
ATOM     36  C   UNL     1     -12.049   8.318   5.917  0.00  0.00    +0.000 A 
ATOM     37  C   UNL     1     -12.987   6.213   6.639  0.00  0.00    +0.000 A 
ATOM     38  C   UNL     1     -13.330   8.834   5.699  0.00  0.00    +0.000 A 
ATOM     39  C   UNL     1     -14.269   6.714   6.427  0.00  0.00    +0.000 A 
ATOM     40  C   UNL     1     -14.434   8.018   5.961  0.00  0.00    +0.000 A 
BRANCH  38  41
ATOM     41  O   UNL     1     -13.586  10.104   5.244  0.00  0.00    +0.000 OA
ATOM     42  C   UNL     1     -13.285  10.335   3.892  0.00  0.00    +0.000 C 
ENDBRANCH  38  41
BRANCH  40  43
ATOM     43  O   UNL     1     -15.696   8.505   5.757  0.00  0.00    +0.000 OA
ATOM     44  H   UNL     1     -15.804   9.322   6.279  0.00  0.00    +0.000 HD
ENDBRANCH  40  43
ENDBRANCH  34  35
ENDBRANCH  32  33
ENDBRANCH  30  32
ENDBRANCH  19  30
TORSDOF 10
ENDMDL
MODEL 5
REMARK VINA RESULT:      -6.4     17.439     22.147
REMARK  Name = 91746246_sitosterol.pdbqt.pdb
REMARK  10 active torsions:
REMARK  status: ('A' for Active; 'I' for Inactive)
REMARK    1  A    between atoms: C_5  and  C_20
REMARK    2  A    between atoms: C_19  and  O_30
REMARK    3  A    between atoms: C_20  and  C_22
REMARK    4  A    between atoms: C_23  and  C_24
REMARK    5  A    between atoms: C_24  and  C_28
REMARK    6  A    between atoms: O_30  and  C_32
REMARK    7  A    between atoms: C_32  and  C_33
REMARK    8  A    between atoms: C_34  and  C_35
REMARK    9  A    between atoms: C_38  and  O_41
REMARK   10  A    between atoms: C_40  and  O_43
REMARK                            x       y       z     vdW  Elec       q    Type
REMARK                         _______ _______ _______ _____ _____    ______ ____
ROOT
ATOM      1  C   UNL     1       7.839  -3.536   9.824  0.00  0.00    +0.000 C 
ATOM      2  C   UNL     1       6.674  -4.494   9.230  0.00  0.00    +0.000 C 
ATOM      3  C   UNL     1       6.511  -5.897   9.661  0.00  0.00    +0.000 C 
ATOM      4  C   UNL     1       7.187  -6.545  10.844  0.00  0.00    +0.000 C 
ATOM      5  C   UNL     1       7.110  -2.219  10.064  0.00  0.00    +0.000 C 
ATOM      6  C   UNL     1       8.296  -4.219  11.033  0.00  0.00    +0.000 C 
ATOM      7  C   UNL     1       7.019  -8.040  11.218  0.00  0.00    +0.000 C 
ATOM      8  C   UNL     1       5.525  -3.674   8.998  0.00  0.00    +0.000 C 
ATOM      9  C   UNL     1       8.032  -5.623  11.518  0.00  0.00    +0.000 C 
ATOM     10  C   UNL     1       5.788  -2.293   9.536  0.00  0.00    +0.000 C 
ATOM     11  C   UNL     1       5.545  -6.739   9.057  0.00  0.00    +0.000 C 
ATOM     12  C   UNL     1       8.914  -3.389   8.715  0.00  0.00    +0.000 C 
ATOM     13  C   UNL     1       5.711  -8.765  10.519  0.00  0.00    +0.000 C 
ATOM     14  C   UNL     1       6.763  -8.185  12.682  0.00  0.00    +0.000 C 
ATOM     15  C   UNL     1       5.195  -8.123   9.516  0.00  0.00    +0.000 C 
ATOM     16  C   UNL     1       8.281  -8.829  10.763  0.00  0.00    +0.000 C 
ATOM     17  C   UNL     1       4.803  -9.418  11.435  0.00  0.00    +0.000 C 
ATOM     18  C   UNL     1       5.677  -8.893  13.509  0.00  0.00    +0.000 C 
ATOM     19  C   UNL     1       4.603  -9.584  12.851  0.00  0.00    +0.000 C 
ENDROOT
BRANCH   5  20
ATOM     20  C   UNL     1       7.745  -1.020  10.510  0.00  0.00    +0.000 C 
ATOM     21  C   UNL     1       8.972  -1.036  11.381  0.00  0.00    +0.000 C 
BRANCH  20  22
ATOM     22  C   UNL     1       7.108   0.243  10.363  0.00  0.00    +0.000 C 
ATOM     23  C   UNL     1       6.420   1.608  10.202  0.00  0.00    +0.000 C 
BRANCH  23  24
ATOM     24  C   UNL     1       5.793   2.880  10.039  0.00  0.00    +0.000 C 
ATOM     25  C   UNL     1       5.681   3.807  11.145  0.00  0.00    +0.000 C 
ATOM     26  C   UNL     1       4.990   5.149  11.039  0.00  0.00    +0.000 C 
ATOM     27  C   UNL     1       6.252   3.517  12.518  0.00  0.00    +0.000 C 
BRANCH  24  28
ATOM     28  C   UNL     1       5.267   3.243   8.770  0.00  0.00    +0.000 C 
ATOM     29  C   UNL     1       4.637   3.640   7.430  0.00  0.00    +0.000 C 
ENDBRANCH  24  28
ENDBRANCH  23  24
ENDBRANCH  20  22
ENDBRANCH   5  20
BRANCH  19  30
ATOM     30  O   UNL     1       4.160 -10.818  13.317  0.00  0.00    +0.000 OA
BRANCH  30  32
ATOM     31  O   UNL     1       2.652 -11.000  11.556  0.00  0.00    +0.000 OA
ATOM     32  C   UNL     1       3.424 -11.477  12.374  0.00  0.00    +0.000 C 
BRANCH  32  33
ATOM     33  C   UNL     1       3.676 -12.896  12.404  0.00  0.00    +0.000 C 
ATOM     34  C   UNL     1       3.904 -14.076  12.422  0.00  0.00    +0.000 C 
BRANCH  34  35
ATOM     35  C   UNL     1       4.192 -15.473  12.437  0.00  0.00    +0.000 A 
ATOM     36  C   UNL     1       5.499 -15.907  12.650  0.00  0.00    +0.000 A 
ATOM     37  C   UNL     1       3.172 -16.398  12.231  0.00  0.00    +0.000 A 
ATOM     38  C   UNL     1       5.803 -17.271  12.663  0.00  0.00    +0.000 A 
ATOM     39  C   UNL     1       3.460 -17.761  12.241  0.00  0.00    +0.000 A 
ATOM     40  C   UNL     1       4.770 -18.189  12.454  0.00  0.00    +0.000 A 
BRANCH  38  41
ATOM     41  O   UNL     1       7.062 -17.782  12.864  0.00  0.00    +0.000 OA
ATOM     42  C   UNL     1       8.045 -17.339  11.966  0.00  0.00    +0.000 C 
ENDBRANCH  38  41
BRANCH  40  43
ATOM     43  O   UNL     1       5.047 -19.529  12.461  0.00  0.00    +0.000 OA
ATOM     44  H   UNL     1       5.575 -19.735  13.254  0.00  0.00    +0.000 HD
ENDBRANCH  40  43
ENDBRANCH  34  35
ENDBRANCH  32  33
ENDBRANCH  30  32
ENDBRANCH  19  30
TORSDOF 10
ENDMDL
MODEL 6
REMARK VINA RESULT:      -6.4     26.810     30.427
REMARK  Name = 91746246_sitosterol.pdbqt.pdb
REMARK  10 active torsions:
REMARK  status: ('A' for Active; 'I' for Inactive)
REMARK    1  A    between atoms: C_5  and  C_20
REMARK    2  A    between atoms: C_19  and  O_30
REMARK    3  A    between atoms: C_20  and  C_22
REMARK    4  A    between atoms: C_23  and  C_24
REMARK    5  A    between atoms: C_24  and  C_28
REMARK    6  A    between atoms: O_30  and  C_32
REMARK    7  A    between atoms: C_32  and  C_33
REMARK    8  A    between atoms: C_34  and  C_35
REMARK    9  A    between atoms: C_38  and  O_41
REMARK   10  A    between atoms: C_40  and  O_43
REMARK                            x       y       z     vdW  Elec       q    Type
REMARK                         _______ _______ _______ _____ _____    ______ ____
ROOT
ATOM      1  C   UNL     1      -3.791  10.507  -0.968  0.00  0.00    +0.000 C 
ATOM      2  C   UNL     1      -3.911  11.076   0.545  0.00  0.00    +0.000 C 
ATOM      3  C   UNL     1      -4.888  10.540   1.514  0.00  0.00    +0.000 C 
ATOM      4  C   UNL     1      -5.697   9.277   1.350  0.00  0.00    +0.000 C 
ATOM      5  C   UNL     1      -2.285  10.410  -1.179  0.00  0.00    +0.000 C 
ATOM      6  C   UNL     1      -4.494   9.225  -0.936  0.00  0.00    +0.000 C 
ATOM      7  C   UNL     1      -6.750   8.790   2.379  0.00  0.00    +0.000 C 
ATOM      8  C   UNL     1      -2.593  11.429   0.973  0.00  0.00    +0.000 C 
ATOM      9  C   UNL     1      -5.407   8.641   0.114  0.00  0.00    +0.000 C 
ATOM     10  C   UNL     1      -1.601  10.994  -0.072  0.00  0.00    +0.000 C 
ATOM     11  C   UNL     1      -5.036  11.119   2.799  0.00  0.00    +0.000 C 
ATOM     12  C   UNL     1      -4.423  11.571  -1.904  0.00  0.00    +0.000 C 
ATOM     13  C   UNL     1      -6.609   9.489   3.867  0.00  0.00    +0.000 C 
ATOM     14  C   UNL     1      -6.574   7.334   2.655  0.00  0.00    +0.000 C 
ATOM     15  C   UNL     1      -5.884  10.565   3.905  0.00  0.00    +0.000 C 
ATOM     16  C   UNL     1      -8.177   9.118   1.849  0.00  0.00    +0.000 C 
ATOM     17  C   UNL     1      -6.498   8.568   4.976  0.00  0.00    +0.000 C 
ATOM     18  C   UNL     1      -6.408   6.505   3.940  0.00  0.00    +0.000 C 
ATOM     19  C   UNL     1      -6.377   7.155   5.220  0.00  0.00    +0.000 C 
ENDROOT
BRANCH   5  20
ATOM     20  C   UNL     1      -1.670  10.034  -2.411  0.00  0.00    +0.000 C 
ATOM     21  C   UNL     1      -0.952  11.025  -3.288  0.00  0.00    +0.000 C 
BRANCH  20  22
ATOM     22  C   UNL     1      -1.918   8.760  -2.995  0.00  0.00    +0.000 C 
ATOM     23  C   UNL     1      -2.187   7.386  -3.628  0.00  0.00    +0.000 C 
BRANCH  23  24
ATOM     24  C   UNL     1      -2.454   6.114  -4.218  0.00  0.00    +0.000 C 
ATOM     25  C   UNL     1      -1.517   5.018  -4.092  0.00  0.00    +0.000 C 
ATOM     26  C   UNL     1      -1.730   3.663  -4.732  0.00  0.00    +0.000 C 
ATOM     27  C   UNL     1      -0.231   5.128  -3.299  0.00  0.00    +0.000 C 
BRANCH  24  28
ATOM     28  C   UNL     1      -3.659   5.920  -4.944  0.00  0.00    +0.000 C 
ATOM     29  C   UNL     1      -4.932   5.744  -5.781  0.00  0.00    +0.000 C 
ENDBRANCH  24  28
ENDBRANCH  23  24
ENDBRANCH  20  22
ENDBRANCH   5  20
BRANCH  19  30
ATOM     30  O   UNL     1      -7.049   6.611   6.310  0.00  0.00    +0.000 OA
BRANCH  30  32
ATOM     31  O   UNL     1      -7.303   4.300   6.307  0.00  0.00    +0.000 OA
ATOM     32  C   UNL     1      -7.650   5.428   5.992  0.00  0.00    +0.000 C 
BRANCH  32  33
ATOM     33  C   UNL     1      -8.846   5.635   5.213  0.00  0.00    +0.000 C 
ATOM     34  C   UNL     1      -9.836   5.796   4.552  0.00  0.00    +0.000 C 
BRANCH  34  35
ATOM     35  C   UNL     1     -11.004   5.974   3.753  0.00  0.00    +0.000 A 
ATOM     36  C   UNL     1     -11.167   5.225   2.589  0.00  0.00    +0.000 A 
ATOM     37  C   UNL     1     -11.974   6.899   4.131  0.00  0.00    +0.000 A 
ATOM     38  C   UNL     1     -12.301   5.389   1.789  0.00  0.00    +0.000 A 
ATOM     39  C   UNL     1     -13.110   7.073   3.344  0.00  0.00    +0.000 A 
ATOM     40  C   UNL     1     -13.267   6.321   2.180  0.00  0.00    +0.000 A 
BRANCH  38  41
ATOM     41  O   UNL     1     -12.538   4.694   0.629  0.00  0.00    +0.000 OA
ATOM     42  C   UNL     1     -11.699   5.015  -0.451  0.00  0.00    +0.000 C 
ENDBRANCH  38  41
BRANCH  40  43
ATOM     43  O   UNL     1     -14.383   6.498   1.410  0.00  0.00    +0.000 OA
ATOM     44  H   UNL     1     -14.355   5.865   0.668  0.00  0.00    +0.000 HD
ENDBRANCH  40  43
ENDBRANCH  34  35
ENDBRANCH  32  33
ENDBRANCH  30  32
ENDBRANCH  19  30
TORSDOF 10
ENDMDL
MODEL 7
REMARK VINA RESULT:      -6.3     18.092     22.457
REMARK  Name = 91746246_sitosterol.pdbqt.pdb
REMARK  10 active torsions:
REMARK  status: ('A' for Active; 'I' for Inactive)
REMARK    1  A    between atoms: C_5  and  C_20
REMARK    2  A    between atoms: C_19  and  O_30
REMARK    3  A    between atoms: C_20  and  C_22
REMARK    4  A    between atoms: C_23  and  C_24
REMARK    5  A    between atoms: C_24  and  C_28
REMARK    6  A    between atoms: O_30  and  C_32
REMARK    7  A    between atoms: C_32  and  C_33
REMARK    8  A    between atoms: C_34  and  C_35
REMARK    9  A    between atoms: C_38  and  O_41
REMARK   10  A    between atoms: C_40  and  O_43
REMARK                            x       y       z     vdW  Elec       q    Type
REMARK                         _______ _______ _______ _____ _____    ______ ____
ROOT
ATOM      1  C   UNL     1     -16.445   2.486  23.535  0.00  0.00    +0.000 C 
ATOM      2  C   UNL     1     -17.093   1.409  24.559  0.00  0.00    +0.000 C 
ATOM      3  C   UNL     1     -18.103   0.421  24.130  0.00  0.00    +0.000 C 
ATOM      4  C   UNL     1     -18.475   0.096  22.704  0.00  0.00    +0.000 C 
ATOM      5  C   UNL     1     -14.966   2.459  23.899  0.00  0.00    +0.000 C 
ATOM      6  C   UNL     1     -16.764   1.967  22.205  0.00  0.00    +0.000 C 
ATOM      7  C   UNL     1     -19.585  -0.914  22.313  0.00  0.00    +0.000 C 
ATOM      8  C   UNL     1     -16.070   1.036  25.487  0.00  0.00    +0.000 C 
ATOM      9  C   UNL     1     -17.722   0.878  21.788  0.00  0.00    +0.000 C 
ATOM     10  C   UNL     1     -14.768   1.658  25.062  0.00  0.00    +0.000 C 
ATOM     11  C   UNL     1     -18.721  -0.445  25.065  0.00  0.00    +0.000 C 
ATOM     12  C   UNL     1     -17.081   3.863  23.863  0.00  0.00    +0.000 C 
ATOM     13  C   UNL     1     -20.017  -1.941  23.531  0.00  0.00    +0.000 C 
ATOM     14  C   UNL     1     -19.101  -1.828  21.237  0.00  0.00    +0.000 C 
ATOM     15  C   UNL     1     -19.641  -1.577  24.719  0.00  0.00    +0.000 C 
ATOM     16  C   UNL     1     -20.864  -0.135  21.891  0.00  0.00    +0.000 C 
ATOM     17  C   UNL     1     -19.949  -3.348  23.208  0.00  0.00    +0.000 C 
ATOM     18  C   UNL     1     -19.050  -3.357  21.079  0.00  0.00    +0.000 C 
ATOM     19  C   UNL     1     -19.519  -4.208  22.137  0.00  0.00    +0.000 C 
ENDROOT
BRANCH   5  20
ATOM     20  C   UNL     1     -13.981   3.316  23.320  0.00  0.00    +0.000 C 
ATOM     21  C   UNL     1     -12.947   4.028  24.150  0.00  0.00    +0.000 C 
BRANCH  20  22
ATOM     22  C   UNL     1     -14.081   3.737  21.965  0.00  0.00    +0.000 C 
ATOM     23  C   UNL     1     -14.187   4.192  20.501  0.00  0.00    +0.000 C 
BRANCH  23  24
ATOM     24  C   UNL     1     -14.276   4.630  19.145  0.00  0.00    +0.000 C 
ATOM     25  C   UNL     1     -13.688   5.883  18.722  0.00  0.00    +0.000 C 
ATOM     26  C   UNL     1     -13.789   6.414  17.309  0.00  0.00    +0.000 C 
ATOM     27  C   UNL     1     -12.909   6.780  19.662  0.00  0.00    +0.000 C 
BRANCH  24  28
ATOM     28  C   UNL     1     -14.956   3.823  18.194  0.00  0.00    +0.000 C 
ATOM     29  C   UNL     1     -15.748   2.987  17.182  0.00  0.00    +0.000 C 
ENDBRANCH  24  28
ENDBRANCH  23  24
ENDBRANCH  20  22
ENDBRANCH   5  20
BRANCH  19  30
ATOM     30  O   UNL     1     -20.275  -5.342  21.855  0.00  0.00    +0.000 OA
BRANCH  30  32
ATOM     31  O   UNL     1     -22.299  -4.576  21.001  0.00  0.00    +0.000 OA
ATOM     32  C   UNL     1     -21.201  -5.100  20.881  0.00  0.00    +0.000 C 
BRANCH  32  33
ATOM     33  C   UNL     1     -20.727  -5.518  19.585  0.00  0.00    +0.000 C 
ATOM     34  C   UNL     1     -20.342  -5.882  18.507  0.00  0.00    +0.000 C 
BRANCH  34  35
ATOM     35  C   UNL     1     -19.895  -6.331  17.229  0.00  0.00    +0.000 A 
ATOM     36  C   UNL     1     -20.824  -6.769  16.286  0.00  0.00    +0.000 A 
ATOM     37  C   UNL     1     -18.536  -6.338  16.927  0.00  0.00    +0.000 A 
ATOM     38  C   UNL     1     -20.406  -7.218  15.030  0.00  0.00    +0.000 A 
ATOM     39  C   UNL     1     -18.105  -6.783  15.680  0.00  0.00    +0.000 A 
ATOM     40  C   UNL     1     -19.039  -7.221  14.741  0.00  0.00    +0.000 A 
BRANCH  38  41
ATOM     41  O   UNL     1     -21.254  -7.667  14.047  0.00  0.00    +0.000 OA
ATOM     42  C   UNL     1     -22.191  -8.633  14.450  0.00  0.00    +0.000 C 
ENDBRANCH  38  41
BRANCH  40  43
ATOM     43  O   UNL     1     -18.610  -7.658  13.518  0.00  0.00    +0.000 OA
ATOM     44  H   UNL     1     -18.193  -6.912  13.048  0.00  0.00    +0.000 HD
ENDBRANCH  40  43
ENDBRANCH  34  35
ENDBRANCH  32  33
ENDBRANCH  30  32
ENDBRANCH  19  30
TORSDOF 10
ENDMDL
MODEL 8
REMARK VINA RESULT:      -6.2      1.314      2.425
REMARK  Name = 91746246_sitosterol.pdbqt.pdb
REMARK  10 active torsions:
REMARK  status: ('A' for Active; 'I' for Inactive)
REMARK    1  A    between atoms: C_5  and  C_20
REMARK    2  A    between atoms: C_19  and  O_30
REMARK    3  A    between atoms: C_20  and  C_22
REMARK    4  A    between atoms: C_23  and  C_24
REMARK    5  A    between atoms: C_24  and  C_28
REMARK    6  A    between atoms: O_30  and  C_32
REMARK    7  A    between atoms: C_32  and  C_33
REMARK    8  A    between atoms: C_34  and  C_35
REMARK    9  A    between atoms: C_38  and  O_41
REMARK   10  A    between atoms: C_40  and  O_43
REMARK                            x       y       z     vdW  Elec       q    Type
REMARK                         _______ _______ _______ _____ _____    ______ ____
ROOT
ATOM      1  C   UNL     1     -11.325 -17.731   9.561  0.00  0.00    +0.000 C 
ATOM      2  C   UNL     1     -11.677 -16.832  10.862  0.00  0.00    +0.000 C 
ATOM      3  C   UNL     1     -12.339 -17.396  12.055  0.00  0.00    +0.000 C 
ATOM      4  C   UNL     1     -12.540 -18.862  12.347  0.00  0.00    +0.000 C 
ATOM      5  C   UNL     1      -9.918 -17.274   9.197  0.00  0.00    +0.000 C 
ATOM      6  C   UNL     1     -11.423 -19.113  10.030  0.00  0.00    +0.000 C 
ATOM      7  C   UNL     1     -13.293 -19.397  13.593  0.00  0.00    +0.000 C 
ATOM      8  C   UNL     1     -10.631 -15.868  11.008  0.00  0.00    +0.000 C 
ATOM      9  C   UNL     1     -12.007 -19.669  11.306  0.00  0.00    +0.000 C 
ATOM     10  C   UNL     1      -9.546 -16.160  10.007  0.00  0.00    +0.000 C 
ATOM     11  C   UNL     1     -12.720 -16.568  13.140  0.00  0.00    +0.000 C 
ATOM     12  C   UNL     1     -12.345 -17.348   8.456  0.00  0.00    +0.000 C 
ATOM     13  C   UNL     1     -13.462 -18.287  14.803  0.00  0.00    +0.000 C 
ATOM     14  C   UNL     1     -12.520 -20.502  14.234  0.00  0.00    +0.000 C 
ATOM     15  C   UNL     1     -13.257 -17.054  14.453  0.00  0.00    +0.000 C 
ATOM     16  C   UNL     1     -14.724 -19.847  13.177  0.00  0.00    +0.000 C 
ATOM     17  C   UNL     1     -12.976 -18.705  16.099  0.00  0.00    +0.000 C 
ATOM     18  C   UNL     1     -12.023 -20.765  15.665  0.00  0.00    +0.000 C 
ATOM     19  C   UNL     1     -12.271 -19.804  16.703  0.00  0.00    +0.000 C 
ENDROOT
BRANCH   5  20
ATOM     20  C   UNL     1      -9.199 -17.723   8.048  0.00  0.00    +0.000 C 
ATOM     21  C   UNL     1      -9.200 -16.961   6.750  0.00  0.00    +0.000 C 
BRANCH  20  22
ATOM     22  C   UNL     1      -8.653 -19.035   7.993  0.00  0.00    +0.000 C 
ATOM     23  C   UNL     1      -8.062 -20.453   7.937  0.00  0.00    +0.000 C 
BRANCH  23  24
ATOM     24  C   UNL     1      -7.500 -21.764   7.894  0.00  0.00    +0.000 C 
ATOM     25  C   UNL     1      -7.303 -22.455   6.637  0.00  0.00    +0.000 C 
ATOM     26  C   UNL     1      -6.750 -23.860   6.538  0.00  0.00    +0.000 C 
ATOM     27  C   UNL     1      -7.631 -21.826   5.298  0.00  0.00    +0.000 C 
BRANCH  24  28
ATOM     28  C   UNL     1      -7.129 -22.405   9.106  0.00  0.00    +0.000 C 
ATOM     29  C   UNL     1      -6.785 -23.070  10.444  0.00  0.00    +0.000 C 
ENDBRANCH  24  28
ENDBRANCH  23  24
ENDBRANCH  20  22
ENDBRANCH   5  20
BRANCH  19  30
ATOM     30  O   UNL     1     -12.654 -20.216  17.976  0.00  0.00    +0.000 OA
BRANCH  30  32
ATOM     31  O   UNL     1     -13.951 -18.654  19.112  0.00  0.00    +0.000 OA
ATOM     32  C   UNL     1     -12.879 -19.153  18.802  0.00  0.00    +0.000 C 
BRANCH  32  33
ATOM     33  C   UNL     1     -11.647 -18.641  19.352  0.00  0.00    +0.000 C 
ATOM     34  C   UNL     1     -10.614 -18.232  19.810  0.00  0.00    +0.000 C 
BRANCH  34  35
ATOM     35  C   UNL     1      -9.382 -17.765  20.353  0.00  0.00    +0.000 A 
ATOM     36  C   UNL     1      -9.325 -17.350  21.683  0.00  0.00    +0.000 A 
ATOM     37  C   UNL     1      -8.241 -17.718  19.557  0.00  0.00    +0.000 A 
ATOM     38  C   UNL     1      -8.128 -16.884  22.233  0.00  0.00    +0.000 A 
ATOM     39  C   UNL     1      -7.041 -17.255  20.092  0.00  0.00    +0.000 A 
ATOM     40  C   UNL     1      -6.991 -16.841  21.422  0.00  0.00    +0.000 A 
BRANCH  38  41
ATOM     41  O   UNL     1      -7.987 -16.455  23.530  0.00  0.00    +0.000 OA
ATOM     42  C   UNL     1      -9.157 -15.970  24.137  0.00  0.00    +0.000 C 
ENDBRANCH  38  41
BRANCH  40  43
ATOM     43  O   UNL     1      -5.810 -16.385  21.941  0.00  0.00    +0.000 OA
ATOM     44  H   UNL     1      -5.313 -15.930  21.236  0.00  0.00    +0.000 HD
ENDBRANCH  40  43
ENDBRANCH  34  35
ENDBRANCH  32  33
ENDBRANCH  30  32
ENDBRANCH  19  30
TORSDOF 10
ENDMDL
MODEL 9
REMARK VINA RESULT:      -6.2     27.181     30.591
REMARK  Name = 91746246_sitosterol.pdbqt.pdb
REMARK  10 active torsions:
REMARK  status: ('A' for Active; 'I' for Inactive)
REMARK    1  A    between atoms: C_5  and  C_20
REMARK    2  A    between atoms: C_19  and  O_30
REMARK    3  A    between atoms: C_20  and  C_22
REMARK    4  A    between atoms: C_23  and  C_24
REMARK    5  A    between atoms: C_24  and  C_28
REMARK    6  A    between atoms: O_30  and  C_32
REMARK    7  A    between atoms: C_32  and  C_33
REMARK    8  A    between atoms: C_34  and  C_35
REMARK    9  A    between atoms: C_38  and  O_41
REMARK   10  A    between atoms: C_40  and  O_43
REMARK                            x       y       z     vdW  Elec       q    Type
REMARK                         _______ _______ _______ _____ _____    ______ ____
ROOT
ATOM      1  C   UNL     1      -3.532  10.682  -1.224  0.00  0.00    +0.000 C 
ATOM      2  C   UNL     1      -3.602  11.098   0.340  0.00  0.00    +0.000 C 
ATOM      3  C   UNL     1      -4.621  10.549   1.258  0.00  0.00    +0.000 C 
ATOM      4  C   UNL     1      -5.534   9.383   0.972  0.00  0.00    +0.000 C 
ATOM      5  C   UNL     1      -2.040  10.480  -1.460  0.00  0.00    +0.000 C 
ATOM      6  C   UNL     1      -4.342   9.468  -1.319  0.00  0.00    +0.000 C 
ATOM      7  C   UNL     1      -6.624   8.882   1.954  0.00  0.00    +0.000 C 
ATOM      8  C   UNL     1      -2.258  11.291   0.790  0.00  0.00    +0.000 C 
ATOM      9  C   UNL     1      -5.300   8.857  -0.327  0.00  0.00    +0.000 C 
ATOM     10  C   UNL     1      -1.308  10.885  -0.305  0.00  0.00    +0.000 C 
ATOM     11  C   UNL     1      -4.717  11.001   2.597  0.00  0.00    +0.000 C 
ATOM     12  C   UNL     1      -4.071  11.887  -2.039  0.00  0.00    +0.000 C 
ATOM     13  C   UNL     1      -6.422   9.408   3.506  0.00  0.00    +0.000 C 
ATOM     14  C   UNL     1      -6.573   7.395   2.076  0.00  0.00    +0.000 C 
ATOM     15  C   UNL     1      -5.608  10.409   3.648  0.00  0.00    +0.000 C 
ATOM     16  C   UNL     1      -8.018   9.384   1.475  0.00  0.00    +0.000 C 
ATOM     17  C   UNL     1      -6.390   8.370   4.512  0.00  0.00    +0.000 C 
ATOM     18  C   UNL     1      -6.478   6.426   3.266  0.00  0.00    +0.000 C 
ATOM     19  C   UNL     1      -6.390   6.934   4.606  0.00  0.00    +0.000 C 
ENDROOT
BRANCH   5  20
ATOM     20  C   UNL     1      -1.460  10.183  -2.730  0.00  0.00    +0.000 C 
ATOM     21  C   UNL     1      -1.101  11.258  -3.721  0.00  0.00    +0.000 C 
BRANCH  20  22
ATOM     22  C   UNL     1      -1.423   8.850  -3.225  0.00  0.00    +0.000 C 
ATOM     23  C   UNL     1      -1.386   7.411  -3.761  0.00  0.00    +0.000 C 
BRANCH  23  24
ATOM     24  C   UNL     1      -1.367   6.071  -4.253  0.00  0.00    +0.000 C 
ATOM     25  C   UNL     1      -0.469   5.081  -3.699  0.00  0.00    +0.000 C 
ATOM     26  C   UNL     1      -0.379   3.659  -4.210  0.00  0.00    +0.000 C 
ATOM     27  C   UNL     1       0.467   5.380  -2.546  0.00  0.00    +0.000 C 
BRANCH  24  28
ATOM     28  C   UNL     1      -2.246   5.701  -5.307  0.00  0.00    +0.000 C 
ATOM     29  C   UNL     1      -3.182   5.235  -6.428  0.00  0.00    +0.000 C 
ENDBRANCH  24  28
ENDBRANCH  23  24
ENDBRANCH  20  22
ENDBRANCH   5  20
BRANCH  19  30
ATOM     30  O   UNL     1      -7.105   6.339   5.641  0.00  0.00    +0.000 OA
BRANCH  30  32
ATOM     31  O   UNL     1      -8.001   4.483   4.563  0.00  0.00    +0.000 OA
ATOM     32  C   UNL     1      -8.106   5.540   5.166  0.00  0.00    +0.000 C 
BRANCH  32  33
ATOM     33  C   UNL     1      -9.406   6.075   5.488  0.00  0.00    +0.000 C 
ATOM     34  C   UNL     1     -10.482   6.537   5.758  0.00  0.00    +0.000 C 
BRANCH  34  35
ATOM     35  C   UNL     1     -11.750   7.103   6.080  0.00  0.00    +0.000 A 
ATOM     36  C   UNL     1     -11.888   8.488   6.165  0.00  0.00    +0.000 A 
ATOM     37  C   UNL     1     -12.845   6.276   6.315  0.00  0.00    +0.000 A 
ATOM     38  C   UNL     1     -13.121   9.062   6.485  0.00  0.00    +0.000 A 
ATOM     39  C   UNL     1     -14.080   6.834   6.635  0.00  0.00    +0.000 A 
ATOM     40  C   UNL     1     -14.211   8.220   6.720  0.00  0.00    +0.000 A 
BRANCH  38  41
ATOM     41  O   UNL     1     -13.342  10.414   6.591  0.00  0.00    +0.000 OA
ATOM     42  C   UNL     1     -12.887  11.010   7.778  0.00  0.00    +0.000 C 
ENDBRANCH  38  41
BRANCH  40  43
ATOM     43  O   UNL     1     -15.426   8.762   7.036  0.00  0.00    +0.000 OA
ATOM     44  H   UNL     1     -15.352   9.735   7.005  0.00  0.00    +0.000 HD
ENDBRANCH  40  43
ENDBRANCH  34  35
ENDBRANCH  32  33
ENDBRANCH  30  32
ENDBRANCH  19  30
TORSDOF 10
ENDMDL
