MODEL 1
REMARK VINA RESULT:      -4.1      0.000      0.000
REMARK  Name = 92041_2Ethoxy5fluorouracil.pdbqt.pdb
REMARK  2 active torsions:
REMARK  status: ('A' for Active; 'I' for Inactive)
REMARK    1  A    between atoms: C_5  and  O_10
REMARK    2  A    between atoms: O_10  and  C_11
REMARK                            x       y       z     vdW  Elec       q    Type
REMARK                         _______ _______ _______ _____ _____    ______ ____
ROOT
ATOM      1  F   UNL     1      -2.098  -3.190  -2.990  0.00  0.00    +0.000 F 
ATOM      2  O   UNL     1      -3.623  -0.792  -3.234  0.00  0.00    +0.000 OA
ATOM      3  N   UNL     1      -4.936  -1.525  -1.496  0.00  0.00    +0.000 N 
ATOM      4  N   UNL     1      -4.485  -3.500  -0.275  0.00  0.00    +0.000 NA
ATOM      5  C   UNL     1      -5.244  -2.469  -0.521  0.00  0.00    +0.000 C 
ATOM      6  C   UNL     1      -3.816  -1.592  -2.328  0.00  0.00    +0.000 C 
ATOM      7  C   UNL     1      -2.903  -2.737  -2.014  0.00  0.00    +0.000 C 
ATOM      8  C   UNL     1      -3.419  -3.471  -1.085  0.00  0.00    +0.000 C 
ATOM      9  H   UNL     1      -5.578  -0.767  -1.672  0.00  0.00    +0.000 HD
ENDROOT
BRANCH   5  10
ATOM     10  O   UNL     1      -6.402  -2.192   0.123  0.00  0.00    +0.000 OA
BRANCH  10  11
ATOM     11  C   UNL     1      -6.461  -1.015   0.739  0.00  0.00    +0.000 C 
ATOM     12  C   UNL     1      -6.482   0.322   1.487  0.00  0.00    +0.000 C 
ENDBRANCH  10  11
ENDBRANCH   5  10
TORSDOF 2
ENDMDL
MODEL 2
REMARK VINA RESULT:      -3.6     27.676     28.763
REMARK  Name = 92041_2Ethoxy5fluorouracil.pdbqt.pdb
REMARK  2 active torsions:
REMARK  status: ('A' for Active; 'I' for Inactive)
REMARK    1  A    between atoms: C_5  and  O_10
REMARK    2  A    between atoms: O_10  and  C_11
REMARK                            x       y       z     vdW  Elec       q    Type
REMARK                         _______ _______ _______ _____ _____    ______ ____
ROOT
ATOM      1  F   UNL     1      -6.990  -5.425  27.691  0.00  0.00    +0.000 F 
ATOM      2  O   UNL     1      -7.172  -6.380  25.011  0.00  0.00    +0.000 OA
ATOM      3  N   UNL     1      -8.651  -7.977  25.747  0.00  0.00    +0.000 N 
ATOM      4  N   UNL     1      -9.456  -8.071  27.969  0.00  0.00    +0.000 NA
ATOM      5  C   UNL     1      -9.392  -8.569  26.767  0.00  0.00    +0.000 C 
ATOM      6  C   UNL     1      -7.881  -6.822  25.904  0.00  0.00    +0.000 C 
ATOM      7  C   UNL     1      -7.996  -6.205  27.264  0.00  0.00    +0.000 C 
ATOM      8  C   UNL     1      -8.725  -6.950  28.027  0.00  0.00    +0.000 C 
ATOM      9  H   UNL     1      -8.604  -8.426  24.845  0.00  0.00    +0.000 HD
ENDROOT
BRANCH   5  10
ATOM     10  O   UNL     1     -10.021  -9.698  26.364  0.00  0.00    +0.000 OA
BRANCH  10  11
ATOM     11  C   UNL     1     -11.321  -9.585  26.109  0.00  0.00    +0.000 C 
ATOM     12  C   UNL     1     -12.810  -9.489  25.764  0.00  0.00    +0.000 C 
ENDBRANCH  10  11
ENDBRANCH   5  10
TORSDOF 2
ENDMDL
MODEL 3
REMARK VINA RESULT:      -3.6     27.391     28.857
REMARK  Name = 92041_2Ethoxy5fluorouracil.pdbqt.pdb
REMARK  2 active torsions:
REMARK  status: ('A' for Active; 'I' for Inactive)
REMARK    1  A    between atoms: C_5  and  O_10
REMARK    2  A    between atoms: O_10  and  C_11
REMARK                            x       y       z     vdW  Elec       q    Type
REMARK                         _______ _______ _______ _____ _____    ______ ____
ROOT
ATOM      1  F   UNL     1      -8.157  -9.417  29.109  0.00  0.00    +0.000 F 
ATOM      2  O   UNL     1      -6.031  -7.517  29.150  0.00  0.00    +0.000 OA
ATOM      3  N   UNL     1      -6.755  -6.757  27.106  0.00  0.00    +0.000 N 
ATOM      4  N   UNL     1      -8.720  -7.546  26.053  0.00  0.00    +0.000 NA
ATOM      5  C   UNL     1      -7.650  -6.802  26.041  0.00  0.00    +0.000 C 
ATOM      6  C   UNL     1      -6.883  -7.515  28.272  0.00  0.00    +0.000 C 
ATOM      7  C   UNL     1      -8.140  -8.327  28.325  0.00  0.00    +0.000 C 
ATOM      8  C   UNL     1      -8.789  -8.209  27.214  0.00  0.00    +0.000 C 
ATOM      9  H   UNL     1      -5.922  -6.193  27.028  0.00  0.00    +0.000 HD
ENDROOT
BRANCH   5  10
ATOM     10  O   UNL     1      -7.281  -5.998  25.016  0.00  0.00    +0.000 OA
BRANCH  10  11
ATOM     11  C   UNL     1      -7.478  -4.696  25.194  0.00  0.00    +0.000 C 
ATOM     12  C   UNL     1      -7.739  -3.208  25.450  0.00  0.00    +0.000 C 
ENDBRANCH  10  11
ENDBRANCH   5  10
TORSDOF 2
ENDMDL
MODEL 4
REMARK VINA RESULT:      -3.5     11.009     11.526
REMARK  Name = 92041_2Ethoxy5fluorouracil.pdbqt.pdb
REMARK  2 active torsions:
REMARK  status: ('A' for Active; 'I' for Inactive)
REMARK    1  A    between atoms: C_5  and  O_10
REMARK    2  A    between atoms: O_10  and  C_11
REMARK                            x       y       z     vdW  Elec       q    Type
REMARK                         _______ _______ _______ _____ _____    ______ ____
ROOT
ATOM      1  F   UNL     1     -12.747  -9.522   0.999  0.00  0.00    +0.000 F 
ATOM      2  O   UNL     1     -13.604  -7.050   2.134  0.00  0.00    +0.000 OA
ATOM      3  N   UNL     1     -12.452  -7.602   4.045  0.00  0.00    +0.000 N 
ATOM      4  N   UNL     1     -11.097  -9.531   4.229  0.00  0.00    +0.000 NA
ATOM      5  C   UNL     1     -11.634  -8.470   4.762  0.00  0.00    +0.000 C 
ATOM      6  C   UNL     1     -12.810  -7.785   2.708  0.00  0.00    +0.000 C 
ATOM      7  C   UNL     1     -12.150  -8.966   2.066  0.00  0.00    +0.000 C 
ATOM      8  C   UNL     1     -11.457  -9.614   2.942  0.00  0.00    +0.000 C 
ATOM      9  H   UNL     1     -12.874  -6.816   4.517  0.00  0.00    +0.000 HD
ENDROOT
BRANCH   5  10
ATOM     10  O   UNL     1     -11.470  -8.085   6.050  0.00  0.00    +0.000 OA
BRANCH  10  11
ATOM     11  C   UNL     1     -12.510  -8.276   6.854  0.00  0.00    +0.000 C 
ATOM     12  C   UNL     1     -13.716  -8.434   7.786  0.00  0.00    +0.000 C 
ENDBRANCH  10  11
ENDBRANCH   5  10
TORSDOF 2
ENDMDL
MODEL 5
REMARK VINA RESULT:      -3.3     21.720     22.581
REMARK  Name = 92041_2Ethoxy5fluorouracil.pdbqt.pdb
REMARK  2 active torsions:
REMARK  status: ('A' for Active; 'I' for Inactive)
REMARK    1  A    between atoms: C_5  and  O_10
REMARK    2  A    between atoms: O_10  and  C_11
REMARK                            x       y       z     vdW  Elec       q    Type
REMARK                         _______ _______ _______ _____ _____    ______ ____
ROOT
ATOM      1  F   UNL     1       3.502  -0.035  17.716  0.00  0.00    +0.000 F 
ATOM      2  O   UNL     1       4.763  -0.319  20.258  0.00  0.00    +0.000 OA
ATOM      3  N   UNL     1       3.872  -2.432  20.393  0.00  0.00    +0.000 N 
ATOM      4  N   UNL     1       2.659  -3.442  18.632  0.00  0.00    +0.000 NA
ATOM      5  C   UNL     1       3.122  -3.472  19.849  0.00  0.00    +0.000 C 
ATOM      6  C   UNL     1       4.178  -1.248  19.718  0.00  0.00    +0.000 C 
ATOM      7  C   UNL     1       3.706  -1.228  18.298  0.00  0.00    +0.000 C 
ATOM      8  C   UNL     1       3.026  -2.297  18.043  0.00  0.00    +0.000 C 
ATOM      9  H   UNL     1       4.172  -2.489  21.355  0.00  0.00    +0.000 HD
ENDROOT
BRANCH   5  10
ATOM     10  O   UNL     1       2.937  -4.491  20.721  0.00  0.00    +0.000 OA
BRANCH  10  11
ATOM     11  C   UNL     1       2.820  -4.151  22.001  0.00  0.00    +0.000 C 
ATOM     12  C   UNL     1       2.630  -3.735  23.463  0.00  0.00    +0.000 C 
ENDBRANCH  10  11
ENDBRANCH   5  10
TORSDOF 2
ENDMDL
MODEL 6
REMARK VINA RESULT:      -3.2     24.358     25.179
REMARK  Name = 92041_2Ethoxy5fluorouracil.pdbqt.pdb
REMARK  2 active torsions:
REMARK  status: ('A' for Active; 'I' for Inactive)
REMARK    1  A    between atoms: C_5  and  O_10
REMARK    2  A    between atoms: O_10  and  C_11
REMARK                            x       y       z     vdW  Elec       q    Type
REMARK                         _______ _______ _______ _____ _____    ______ ____
ROOT
ATOM      1  F   UNL     1      -4.746 -15.556  16.228  0.00  0.00    +0.000 F 
ATOM      2  O   UNL     1      -2.708 -15.574  18.222  0.00  0.00    +0.000 OA
ATOM      3  N   UNL     1      -4.291 -16.250  19.744  0.00  0.00    +0.000 N 
ATOM      4  N   UNL     1      -6.520 -16.769  19.150  0.00  0.00    +0.000 NA
ATOM      5  C   UNL     1      -5.597 -16.616  20.057  0.00  0.00    +0.000 C 
ATOM      6  C   UNL     1      -3.840 -15.979  18.450  0.00  0.00    +0.000 C 
ATOM      7  C   UNL     1      -4.874 -16.212  17.393  0.00  0.00    +0.000 C 
ATOM      8  C   UNL     1      -6.001 -16.528  17.940  0.00  0.00    +0.000 C 
ATOM      9  H   UNL     1      -3.625 -16.107  20.489  0.00  0.00    +0.000 HD
ENDROOT
BRANCH   5  10
ATOM     10  O   UNL     1      -5.785 -16.787  21.386  0.00  0.00    +0.000 OA
BRANCH  10  11
ATOM     11  C   UNL     1      -6.715 -17.670  21.737  0.00  0.00    +0.000 C 
ATOM     12  C   UNL     1      -7.783 -18.665  22.200  0.00  0.00    +0.000 C 
ENDBRANCH  10  11
ENDBRANCH   5  10
TORSDOF 2
ENDMDL
MODEL 7
REMARK VINA RESULT:      -3.1      4.039      5.076
REMARK  Name = 92041_2Ethoxy5fluorouracil.pdbqt.pdb
REMARK  2 active torsions:
REMARK  status: ('A' for Active; 'I' for Inactive)
REMARK    1  A    between atoms: C_5  and  O_10
REMARK    2  A    between atoms: O_10  and  C_11
REMARK                            x       y       z     vdW  Elec       q    Type
REMARK                         _______ _______ _______ _____ _____    ______ ____
ROOT
ATOM      1  F   UNL     1      -2.177  -9.104  -2.167  0.00  0.00    +0.000 F 
ATOM      2  O   UNL     1      -4.905  -9.028  -1.340  0.00  0.00    +0.000 OA
ATOM      3  N   UNL     1      -4.675  -6.766  -1.005  0.00  0.00    +0.000 N 
ATOM      4  N   UNL     1      -2.713  -5.568  -1.559  0.00  0.00    +0.000 NA
ATOM      5  C   UNL     1      -3.910  -5.604  -1.045  0.00  0.00    +0.000 C 
ATOM      6  C   UNL     1      -4.241  -8.009  -1.473  0.00  0.00    +0.000 C 
ATOM      7  C   UNL     1      -2.892  -7.968  -2.122  0.00  0.00    +0.000 C 
ATOM      8  C   UNL     1      -2.387  -6.784  -2.016  0.00  0.00    +0.000 C 
ATOM      9  H   UNL     1      -5.581  -6.748  -0.560  0.00  0.00    +0.000 HD
ENDROOT
BRANCH   5  10
ATOM     10  O   UNL     1      -4.547  -4.543  -0.497  0.00  0.00    +0.000 OA
BRANCH  10  11
ATOM     11  C   UNL     1      -4.052  -3.346  -0.795  0.00  0.00    +0.000 C 
ATOM     12  C   UNL     1      -3.487  -1.950  -1.078  0.00  0.00    +0.000 C 
ENDBRANCH  10  11
ENDBRANCH   5  10
TORSDOF 2
ENDMDL
MODEL 8
REMARK VINA RESULT:      -3.1     24.435     25.280
REMARK  Name = 92041_2Ethoxy5fluorouracil.pdbqt.pdb
REMARK  2 active torsions:
REMARK  status: ('A' for Active; 'I' for Inactive)
REMARK    1  A    between atoms: C_5  and  O_10
REMARK    2  A    between atoms: O_10  and  C_11
REMARK                            x       y       z     vdW  Elec       q    Type
REMARK                         _______ _______ _______ _____ _____    ______ ____
ROOT
ATOM      1  F   UNL     1      -6.233 -15.547  16.502  0.00  0.00    +0.000 F 
ATOM      2  O   UNL     1      -3.621 -15.338  17.629  0.00  0.00    +0.000 OA
ATOM      3  N   UNL     1      -4.457 -16.236  19.572  0.00  0.00    +0.000 N 
ATOM      4  N   UNL     1      -6.676 -17.025  19.786  0.00  0.00    +0.000 NA
ATOM      5  C   UNL     1      -5.510 -16.770  20.309  0.00  0.00    +0.000 C 
ATOM      6  C   UNL     1      -4.540 -15.889  18.222  0.00  0.00    +0.000 C 
ATOM      7  C   UNL     1      -5.854 -16.233  17.593  0.00  0.00    +0.000 C 
ATOM      8  C   UNL     1      -6.662 -16.700  18.487  0.00  0.00    +0.000 C 
ATOM      9  H   UNL     1      -3.587 -16.022  20.037  0.00  0.00    +0.000 HD
ENDROOT
BRANCH   5  10
ATOM     10  O   UNL     1      -5.182 -16.986  21.604  0.00  0.00    +0.000 OA
BRANCH  10  11
ATOM     11  C   UNL     1      -3.929 -17.367  21.834  0.00  0.00    +0.000 C 
ATOM     12  C   UNL     1      -2.507 -17.855  22.132  0.00  0.00    +0.000 C 
ENDBRANCH  10  11
ENDBRANCH   5  10
TORSDOF 2
ENDMDL
MODEL 9
REMARK VINA RESULT:      -3.1     17.888     18.811
REMARK  Name = 92041_2Ethoxy5fluorouracil.pdbqt.pdb
REMARK  2 active torsions:
REMARK  status: ('A' for Active; 'I' for Inactive)
REMARK    1  A    between atoms: C_5  and  O_10
REMARK    2  A    between atoms: O_10  and  C_11
REMARK                            x       y       z     vdW  Elec       q    Type
REMARK                         _______ _______ _______ _____ _____    ______ ____
ROOT
ATOM      1  F   UNL     1      10.617 -11.231  11.244  0.00  0.00    +0.000 F 
ATOM      2  O   UNL     1       8.208 -12.755  11.337  0.00  0.00    +0.000 OA
ATOM      3  N   UNL     1       7.038 -10.808  10.985  0.00  0.00    +0.000 N 
ATOM      4  N   UNL     1       8.082  -8.729  10.560  0.00  0.00    +0.000 NA
ATOM      5  C   UNL     1       7.005  -9.434  10.762  0.00  0.00    +0.000 C 
ATOM      6  C   UNL     1       8.211 -11.565  11.050  0.00  0.00    +0.000 C 
ATOM      7  C   UNL     1       9.450 -10.777  10.758  0.00  0.00    +0.000 C 
ATOM      8  C   UNL     1       9.154  -9.530  10.601  0.00  0.00    +0.000 C 
ATOM      9  H   UNL     1       6.178 -11.300  11.175  0.00  0.00    +0.000 HD
ENDROOT
BRANCH   5  10
ATOM     10  O   UNL     1       5.747  -8.935  10.781  0.00  0.00    +0.000 OA
BRANCH  10  11
ATOM     11  C   UNL     1       5.393  -8.200   9.731  0.00  0.00    +0.000 C 
ATOM     12  C   UNL     1       4.952  -7.401   8.501  0.00  0.00    +0.000 C 
ENDBRANCH  10  11
ENDBRANCH   5  10
TORSDOF 2
ENDMDL
