MODEL 1
REMARK VINA RESULT:      -4.0      0.000      0.000
REMARK  Name = 95716_6Bromoisatin.pdbqt.pdb
REMARK  0 active torsions:
REMARK  status: ('A' for Active; 'I' for Inactive)
REMARK                            x       y       z     vdW  Elec       q    Type
REMARK                         _______ _______ _______ _____ _____    ______ ____
ROOT
ATOM      1 BR   UNL     1     -13.663   7.437   6.477  0.00  0.00    +0.000 Br
ATOM      2  O   UNL     1      -8.023   4.552   3.542  0.00  0.00    +0.000 OA
ATOM      3  O   UNL     1      -6.355   5.630   5.806  0.00  0.00    +0.000 OA
ATOM      4  N   UNL     1      -8.439   6.437   6.471  0.00  0.00    +0.000 N 
ATOM      5  C   UNL     1      -9.731   6.367   5.958  0.00  0.00    +0.000 A 
ATOM      6  C   UNL     1      -9.770   5.642   4.769  0.00  0.00    +0.000 A 
ATOM      7  C   UNL     1      -8.404   5.206   4.484  0.00  0.00    +0.000 C 
ATOM      8  C   UNL     1     -10.871   6.919   6.501  0.00  0.00    +0.000 A 
ATOM      9  C   UNL     1     -10.935   5.427   4.062  0.00  0.00    +0.000 A 
ATOM     10  C   UNL     1      -7.547   5.765   5.657  0.00  0.00    +0.000 C 
ATOM     11  C   UNL     1     -12.060   6.713   5.798  0.00  0.00    +0.000 A 
ATOM     12  C   UNL     1     -12.098   5.980   4.599  0.00  0.00    +0.000 A 
ATOM     13  H   UNL     1      -8.159   6.908   7.320  0.00  0.00    +0.000 HD
ENDROOT
TORSDOF 0
ENDMDL
MODEL 2
REMARK VINA RESULT:      -4.0     20.875     21.760
REMARK  Name = 95716_6Bromoisatin.pdbqt.pdb
REMARK  0 active torsions:
REMARK  status: ('A' for Active; 'I' for Inactive)
REMARK                            x       y       z     vdW  Elec       q    Type
REMARK                         _______ _______ _______ _____ _____    ______ ____
ROOT
ATOM      1 BR   UNL     1       5.802  -4.243   8.902  0.00  0.00    +0.000 Br
ATOM      2  O   UNL     1       5.448 -10.528  11.921  0.00  0.00    +0.000 OA
ATOM      3  O   UNL     1       5.885  -9.213  14.596  0.00  0.00    +0.000 OA
ATOM      4  N   UNL     1       5.944  -7.316  13.241  0.00  0.00    +0.000 N 
ATOM      5  C   UNL     1       5.820  -7.077  11.875  0.00  0.00    +0.000 A 
ATOM      6  C   UNL     1       5.613  -8.259  11.167  0.00  0.00    +0.000 A 
ATOM      7  C   UNL     1       5.601  -9.350  12.141  0.00  0.00    +0.000 C 
ATOM      8  C   UNL     1       5.883  -5.858  11.236  0.00  0.00    +0.000 A 
ATOM      9  C   UNL     1       5.458  -8.292   9.797  0.00  0.00    +0.000 A 
ATOM     10  C   UNL     1       5.827  -8.665  13.520  0.00  0.00    +0.000 C 
ATOM     11  C   UNL     1       5.728  -5.872   9.848  0.00  0.00    +0.000 A 
ATOM     12  C   UNL     1       5.520  -7.065   9.135  0.00  0.00    +0.000 A 
ATOM     13  H   UNL     1       6.098  -6.620  13.957  0.00  0.00    +0.000 HD
ENDROOT
TORSDOF 0
ENDMDL
MODEL 3
REMARK VINA RESULT:      -3.7     12.954     14.209
REMARK  Name = 95716_6Bromoisatin.pdbqt.pdb
REMARK  0 active torsions:
REMARK  status: ('A' for Active; 'I' for Inactive)
REMARK                            x       y       z     vdW  Elec       q    Type
REMARK                         _______ _______ _______ _____ _____    ______ ____
ROOT
ATOM      1 BR   UNL     1      -2.000  -2.351  -6.946  0.00  0.00    +0.000 Br
ATOM      2  O   UNL     1      -4.302  -1.504  -0.409  0.00  0.00    +0.000 OA
ATOM      3  O   UNL     1      -4.190  -4.490  -0.036  0.00  0.00    +0.000 OA
ATOM      4  N   UNL     1      -3.446  -4.369  -2.243  0.00  0.00    +0.000 N 
ATOM      5  C   UNL     1      -3.218  -3.338  -3.150  0.00  0.00    +0.000 A 
ATOM      6  C   UNL     1      -3.509  -2.095  -2.593  0.00  0.00    +0.000 A 
ATOM      7  C   UNL     1      -3.958  -2.330  -1.221  0.00  0.00    +0.000 C 
ATOM      8  C   UNL     1      -2.766  -3.458  -4.446  0.00  0.00    +0.000 A 
ATOM      9  C   UNL     1      -3.366  -0.912  -3.288  0.00  0.00    +0.000 A 
ATOM     10  C   UNL     1      -3.898  -3.874  -1.034  0.00  0.00    +0.000 C 
ATOM     11  C   UNL     1      -2.615  -2.270  -5.166  0.00  0.00    +0.000 A 
ATOM     12  C   UNL     1      -2.908  -1.016  -4.602  0.00  0.00    +0.000 A 
ATOM     13  H   UNL     1      -3.308  -5.355  -2.413  0.00  0.00    +0.000 HD
ENDROOT
TORSDOF 0
ENDMDL
MODEL 4
REMARK VINA RESULT:      -3.6     22.751     23.707
REMARK  Name = 95716_6Bromoisatin.pdbqt.pdb
REMARK  0 active torsions:
REMARK  status: ('A' for Active; 'I' for Inactive)
REMARK                            x       y       z     vdW  Elec       q    Type
REMARK                         _______ _______ _______ _____ _____    ______ ____
ROOT
ATOM      1 BR   UNL     1       3.967 -14.196  12.490  0.00  0.00    +0.000 Br
ATOM      2  O   UNL     1       5.721  -7.567  11.177  0.00  0.00    +0.000 OA
ATOM      3  O   UNL     1       8.475  -8.503  10.394  0.00  0.00    +0.000 OA
ATOM      4  N   UNL     1       7.527 -10.565  10.932  0.00  0.00    +0.000 N 
ATOM      5  C   UNL     1       6.279 -10.987  11.382  0.00  0.00    +0.000 A 
ATOM      6  C   UNL     1       5.405  -9.915  11.544  0.00  0.00    +0.000 A 
ATOM      7  C   UNL     1       6.134  -8.703  11.172  0.00  0.00    +0.000 C 
ATOM      8  C   UNL     1       5.889 -12.281  11.654  0.00  0.00    +0.000 A 
ATOM      9  C   UNL     1       4.106 -10.069  11.980  0.00  0.00    +0.000 A 
ATOM     10  C   UNL     1       7.555  -9.193  10.769  0.00  0.00    +0.000 C 
ATOM     11  C   UNL     1       4.576 -12.456  12.097  0.00  0.00    +0.000 A 
ATOM     12  C   UNL     1       3.695 -11.373  12.260  0.00  0.00    +0.000 A 
ATOM     13  H   UNL     1       8.324 -11.156  10.742  0.00  0.00    +0.000 HD
ENDROOT
TORSDOF 0
ENDMDL
MODEL 5
REMARK VINA RESULT:      -3.5     20.931     21.846
REMARK  Name = 95716_6Bromoisatin.pdbqt.pdb
REMARK  0 active torsions:
REMARK  status: ('A' for Active; 'I' for Inactive)
REMARK                            x       y       z     vdW  Elec       q    Type
REMARK                         _______ _______ _______ _____ _____    ______ ____
ROOT
ATOM      1 BR   UNL     1       5.131  -7.185   8.494  0.00  0.00    +0.000 Br
ATOM      2  O   UNL     1       7.318  -6.935  15.119  0.00  0.00    +0.000 OA
ATOM      3  O   UNL     1       7.683  -3.959  14.834  0.00  0.00    +0.000 OA
ATOM      4  N   UNL     1       6.913  -4.441  12.687  0.00  0.00    +0.000 N 
ATOM      5  C   UNL     1       6.518  -5.596  12.018  0.00  0.00    +0.000 A 
ATOM      6  C   UNL     1       6.612  -6.718  12.839  0.00  0.00    +0.000 A 
ATOM      7  C   UNL     1       7.104  -6.262  14.139  0.00  0.00    +0.000 C 
ATOM      8  C   UNL     1       6.081  -5.693  10.715  0.00  0.00    +0.000 A 
ATOM      9  C   UNL     1       6.279  -7.986  12.412  0.00  0.00    +0.000 A 
ATOM     10  C   UNL     1       7.290  -4.725  13.986  0.00  0.00    +0.000 C 
ATOM     11  C   UNL     1       5.739  -6.970  10.266  0.00  0.00    +0.000 A 
ATOM     12  C   UNL     1       5.834  -8.101  11.095  0.00  0.00    +0.000 A 
ATOM     13  H   UNL     1       6.932  -3.506  12.303  0.00  0.00    +0.000 HD
ENDROOT
TORSDOF 0
ENDMDL
MODEL 6
REMARK VINA RESULT:      -3.4     22.697     22.963
REMARK  Name = 95716_6Bromoisatin.pdbqt.pdb
REMARK  0 active torsions:
REMARK  status: ('A' for Active; 'I' for Inactive)
REMARK                            x       y       z     vdW  Elec       q    Type
REMARK                         _______ _______ _______ _____ _____    ______ ____
ROOT
ATOM      1 BR   UNL     1     -15.804 -13.597   8.387  0.00  0.00    +0.000 Br
ATOM      2  O   UNL     1     -12.687 -16.790  13.756  0.00  0.00    +0.000 OA
ATOM      3  O   UNL     1     -14.798 -15.666  15.586  0.00  0.00    +0.000 OA
ATOM      4  N   UNL     1     -15.543 -14.763  13.569  0.00  0.00    +0.000 N 
ATOM      5  C   UNL     1     -15.109 -14.814  12.248  0.00  0.00    +0.000 A 
ATOM      6  C   UNL     1     -13.960 -15.591  12.118  0.00  0.00    +0.000 A 
ATOM      7  C   UNL     1     -13.618 -16.083  13.452  0.00  0.00    +0.000 C 
ATOM      8  C   UNL     1     -15.691 -14.202  11.158  0.00  0.00    +0.000 A 
ATOM      9  C   UNL     1     -13.332 -15.799  10.908  0.00  0.00    +0.000 A 
ATOM     10  C   UNL     1     -14.712 -15.499  14.392  0.00  0.00    +0.000 C 
ATOM     11  C   UNL     1     -15.068 -14.402   9.925  0.00  0.00    +0.000 A 
ATOM     12  C   UNL     1     -13.908 -15.186   9.795  0.00  0.00    +0.000 A 
ATOM     13  H   UNL     1     -16.352 -14.265  13.913  0.00  0.00    +0.000 HD
ENDROOT
TORSDOF 0
ENDMDL
MODEL 7
REMARK VINA RESULT:      -3.4     25.845     26.278
REMARK  Name = 95716_6Bromoisatin.pdbqt.pdb
REMARK  0 active torsions:
REMARK  status: ('A' for Active; 'I' for Inactive)
REMARK                            x       y       z     vdW  Elec       q    Type
REMARK                         _______ _______ _______ _____ _____    ______ ____
ROOT
ATOM      1 BR   UNL     1     -16.878  -9.402  27.716  0.00  0.00    +0.000 Br
ATOM      2  O   UNL     1     -10.126  -9.429  25.940  0.00  0.00    +0.000 OA
ATOM      3  O   UNL     1      -9.918  -6.575  26.880  0.00  0.00    +0.000 OA
ATOM      4  N   UNL     1     -12.174  -6.949  27.340  0.00  0.00    +0.000 N 
ATOM      5  C   UNL     1     -13.044  -8.026  27.192  0.00  0.00    +0.000 A 
ATOM      6  C   UNL     1     -12.399  -9.130  26.639  0.00  0.00    +0.000 A 
ATOM      7  C   UNL     1     -11.007  -8.748  26.408  0.00  0.00    +0.000 C 
ATOM      8  C   UNL     1     -14.380  -8.066  27.528  0.00  0.00    +0.000 A 
ATOM      9  C   UNL     1     -13.043 -10.324  26.391  0.00  0.00    +0.000 A 
ATOM     10  C   UNL     1     -10.906  -7.273  26.895  0.00  0.00    +0.000 C 
ATOM     11  C   UNL     1     -15.048  -9.268  27.284  0.00  0.00    +0.000 A 
ATOM     12  C   UNL     1     -14.397 -10.382  26.726  0.00  0.00    +0.000 A 
ATOM     13  H   UNL     1     -12.407  -6.041  27.717  0.00  0.00    +0.000 HD
ENDROOT
TORSDOF 0
ENDMDL
MODEL 8
REMARK VINA RESULT:      -3.4     25.544     26.647
REMARK  Name = 95716_6Bromoisatin.pdbqt.pdb
REMARK  0 active torsions:
REMARK  status: ('A' for Active; 'I' for Inactive)
REMARK                            x       y       z     vdW  Elec       q    Type
REMARK                         _______ _______ _______ _____ _____    ______ ____
ROOT
ATOM      1 BR   UNL     1       1.718 -19.907  11.572  0.00  0.00    +0.000 Br
ATOM      2  O   UNL     1       2.928 -13.877  14.876  0.00  0.00    +0.000 OA
ATOM      3  O   UNL     1       3.929 -12.715  12.284  0.00  0.00    +0.000 OA
ATOM      4  N   UNL     1       3.395 -14.860  11.541  0.00  0.00    +0.000 N 
ATOM      5  C   UNL     1       2.875 -16.006  12.135  0.00  0.00    +0.000 A 
ATOM      6  C   UNL     1       2.618 -15.808  13.490  0.00  0.00    +0.000 A 
ATOM      7  C   UNL     1       2.999 -14.431  13.805  0.00  0.00    +0.000 C 
ATOM      8  C   UNL     1       2.620 -17.215  11.524  0.00  0.00    +0.000 A 
ATOM      9  C   UNL     1       2.099 -16.792  14.304  0.00  0.00    +0.000 A 
ATOM     10  C   UNL     1       3.515 -13.836  12.463  0.00  0.00    +0.000 C 
ATOM     11  C   UNL     1       2.093 -18.224  12.334  0.00  0.00    +0.000 A 
ATOM     12  C   UNL     1       1.835 -18.023  13.701  0.00  0.00    +0.000 A 
ATOM     13  H   UNL     1       3.660 -14.758  10.572  0.00  0.00    +0.000 HD
ENDROOT
TORSDOF 0
ENDMDL
MODEL 9
REMARK VINA RESULT:      -3.3     24.265     24.446
REMARK  Name = 95716_6Bromoisatin.pdbqt.pdb
REMARK  0 active torsions:
REMARK  status: ('A' for Active; 'I' for Inactive)
REMARK                            x       y       z     vdW  Elec       q    Type
REMARK                         _______ _______ _______ _____ _____    ______ ____
ROOT
ATOM      1 BR   UNL     1     -15.538 -14.031  10.758  0.00  0.00    +0.000 Br
ATOM      2  O   UNL     1     -13.154 -17.677  16.214  0.00  0.00    +0.000 OA
ATOM      3  O   UNL     1     -15.347 -16.489  17.903  0.00  0.00    +0.000 OA
ATOM      4  N   UNL     1     -15.839 -15.445  15.876  0.00  0.00    +0.000 N 
ATOM      5  C   UNL     1     -15.288 -15.468  14.597  0.00  0.00    +0.000 A 
ATOM      6  C   UNL     1     -14.187 -16.318  14.531  0.00  0.00    +0.000 A 
ATOM      7  C   UNL     1     -14.003 -16.893  15.863  0.00  0.00    +0.000 C 
ATOM      8  C   UNL     1     -15.724 -14.767  13.493  0.00  0.00    +0.000 A 
ATOM      9  C   UNL     1     -13.464 -16.515  13.374  0.00  0.00    +0.000 A 
ATOM     10  C   UNL     1     -15.138 -16.275  16.731  0.00  0.00    +0.000 C 
ATOM     11  C   UNL     1     -15.004 -14.955  12.312  0.00  0.00    +0.000 A 
ATOM     12  C   UNL     1     -13.892 -15.813  12.246  0.00  0.00    +0.000 A 
ATOM     13  H   UNL     1     -16.641 -14.906  16.171  0.00  0.00    +0.000 HD
ENDROOT
TORSDOF 0
ENDMDL
