MODEL 1
REMARK VINA RESULT:      -6.0      0.000      0.000
REMARK  Name = 969516_Curcumin.pdbqt.pdb
REMARK  8 active torsions:
REMARK  status: ('A' for Active; 'I' for Inactive)
REMARK    1  A    between atoms: C_3  and  C_5
REMARK    2  A    between atoms: C_4  and  C_6
REMARK    3  A    between atoms: C_8  and  O_12
REMARK    4  A    between atoms: C_10  and  O_14
REMARK    5  A    between atoms: C_17  and  C_19
REMARK    6  A    between atoms: C_18  and  C_20
REMARK    7  A    between atoms: C_22  and  O_26
REMARK    8  A    between atoms: C_24  and  O_28
REMARK                            x       y       z     vdW  Elec       q    Type
REMARK                         _______ _______ _______ _____ _____    ______ ____
ROOT
ATOM      1  C   UNL     1     -10.561 -15.781   8.207  0.00  0.00    +0.000 C 
ATOM      2  O   UNL     1     -12.252 -15.327   6.728  0.00  0.00    +0.000 OA
ATOM      3  C   UNL     1     -11.049 -15.352   6.938  0.00  0.00    +0.000 C 
ATOM      4  O   UNL     1      -8.902 -16.529   9.600  0.00  0.00    +0.000 OA
ATOM      5  C   UNL     1     -10.076 -16.214   9.475  0.00  0.00    +0.000 C 
ENDROOT
BRANCH   3   7
ATOM      6  C   UNL     1      -9.345 -14.610   5.059  0.00  0.00    +0.000 C 
ATOM      7  C   UNL     1     -10.119 -14.948   5.913  0.00  0.00    +0.000 C 
BRANCH   6   8
ATOM      8  C   UNL     1      -8.425 -14.208   4.045  0.00  0.00    +0.000 A 
ATOM      9  C   UNL     1      -8.419 -12.887   3.598  0.00  0.00    +0.000 A 
ATOM     10  C   UNL     1      -7.525 -12.476   2.605  0.00  0.00    +0.000 A 
ATOM     11  C   UNL     1      -7.537 -15.133   3.504  0.00  0.00    +0.000 A 
ATOM     12  C   UNL     1      -6.637 -13.413   2.069  0.00  0.00    +0.000 A 
ATOM     13  C   UNL     1      -6.642 -14.734   2.516  0.00  0.00    +0.000 A 
BRANCH  10  14
ATOM     14  O   UNL     1      -7.460 -11.195   2.116  0.00  0.00    +0.000 OA
ATOM     15  C   UNL     1      -8.525 -10.792   1.301  0.00  0.00    +0.000 C 
ENDBRANCH  10  14
BRANCH  12  16
ATOM     16  O   UNL     1      -5.727 -13.105   1.096  0.00  0.00    +0.000 OA
ATOM     17  H   UNL     1      -6.131 -12.541   0.415  0.00  0.00    +0.000 HD
ENDBRANCH  12  16
ENDBRANCH   6   8
ENDBRANCH   3   7
BRANCH   5  19
ATOM     18  C   UNL     1     -11.722 -16.331  11.538  0.00  0.00    +0.000 C 
ATOM     19  C   UNL     1     -10.972 -16.277  10.601  0.00  0.00    +0.000 C 
BRANCH  18  20
ATOM     20  C   UNL     1     -12.617 -16.394  12.647  0.00  0.00    +0.000 A 
ATOM     21  C   UNL     1     -13.690 -15.508  12.724  0.00  0.00    +0.000 A 
ATOM     22  C   UNL     1     -14.576 -15.558  13.805  0.00  0.00    +0.000 A 
ATOM     23  C   UNL     1     -12.417 -17.341  13.650  0.00  0.00    +0.000 A 
ATOM     24  C   UNL     1     -14.363 -16.512  14.803  0.00  0.00    +0.000 A 
ATOM     25  C   UNL     1     -13.292 -17.400  14.731  0.00  0.00    +0.000 A 
BRANCH  22  26
ATOM     26  O   UNL     1     -15.657 -14.724  13.959  0.00  0.00    +0.000 OA
ATOM     27  C   UNL     1     -16.370 -14.434  12.785  0.00  0.00    +0.000 C 
ENDBRANCH  22  26
BRANCH  24  28
ATOM     28  O   UNL     1     -15.219 -16.577  15.868  0.00  0.00    +0.000 OA
ATOM     29  H   UNL     1     -16.134 -16.482  15.541  0.00  0.00    +0.000 HD
ENDBRANCH  24  28
ENDBRANCH  18  20
ENDBRANCH   5  19
TORSDOF 8
ENDMDL
MODEL 2
REMARK VINA RESULT:      -6.0      0.163     11.624
REMARK  Name = 969516_Curcumin.pdbqt.pdb
REMARK  8 active torsions:
REMARK  status: ('A' for Active; 'I' for Inactive)
REMARK    1  A    between atoms: C_3  and  C_5
REMARK    2  A    between atoms: C_4  and  C_6
REMARK    3  A    between atoms: C_8  and  O_12
REMARK    4  A    between atoms: C_10  and  O_14
REMARK    5  A    between atoms: C_17  and  C_19
REMARK    6  A    between atoms: C_18  and  C_20
REMARK    7  A    between atoms: C_22  and  O_26
REMARK    8  A    between atoms: C_24  and  O_28
REMARK                            x       y       z     vdW  Elec       q    Type
REMARK                         _______ _______ _______ _____ _____    ______ ____
ROOT
ATOM      1  C   UNL     1     -10.586 -15.817   8.259  0.00  0.00    +0.000 C 
ATOM      2  O   UNL     1      -8.925 -16.581   9.642  0.00  0.00    +0.000 OA
ATOM      3  C   UNL     1     -10.098 -16.261   9.524  0.00  0.00    +0.000 C 
ATOM      4  O   UNL     1     -12.276 -15.344   6.785  0.00  0.00    +0.000 OA
ATOM      5  C   UNL     1     -11.072 -15.378   6.994  0.00  0.00    +0.000 C 
ENDROOT
BRANCH   3   7
ATOM      6  C   UNL     1     -11.735 -16.377  11.595  0.00  0.00    +0.000 C 
ATOM      7  C   UNL     1     -10.991 -16.325  10.653  0.00  0.00    +0.000 C 
BRANCH   6   8
ATOM      8  C   UNL     1     -12.619 -16.438  12.713  0.00  0.00    +0.000 A 
ATOM      9  C   UNL     1     -13.677 -15.534  12.812  0.00  0.00    +0.000 A 
ATOM     10  C   UNL     1     -14.552 -15.580  13.901  0.00  0.00    +0.000 A 
ATOM     11  C   UNL     1     -12.425 -17.398  13.702  0.00  0.00    +0.000 A 
ATOM     12  C   UNL     1     -14.348 -16.548  14.888  0.00  0.00    +0.000 A 
ATOM     13  C   UNL     1     -13.291 -17.453  14.790  0.00  0.00    +0.000 A 
BRANCH  10  14
ATOM     14  O   UNL     1     -15.614 -14.726  14.066  0.00  0.00    +0.000 OA
ATOM     15  C   UNL     1     -16.707 -14.930  13.213  0.00  0.00    +0.000 C 
ENDBRANCH  10  14
BRANCH  12  16
ATOM     16  O   UNL     1     -15.152 -16.670  15.988  0.00  0.00    +0.000 OA
ATOM     17  H   UNL     1     -15.398 -17.599  16.132  0.00  0.00    +0.000 HD
ENDBRANCH  12  16
ENDBRANCH   6   8
ENDBRANCH   3   7
BRANCH   5  19
ATOM     18  C   UNL     1      -9.368 -14.633   5.117  0.00  0.00    +0.000 C 
ATOM     19  C   UNL     1     -10.142 -14.974   5.971  0.00  0.00    +0.000 C 
BRANCH  18  20
ATOM     20  C   UNL     1      -8.454 -14.229   4.100  0.00  0.00    +0.000 A 
ATOM     21  C   UNL     1      -8.445 -12.906   3.661  0.00  0.00    +0.000 A 
ATOM     22  C   UNL     1      -7.554 -12.495   2.665  0.00  0.00    +0.000 A 
ATOM     23  C   UNL     1      -7.572 -15.156   3.548  0.00  0.00    +0.000 A 
ATOM     24  C   UNL     1      -6.675 -13.434   2.121  0.00  0.00    +0.000 A 
ATOM     25  C   UNL     1      -6.681 -14.758   2.556  0.00  0.00    +0.000 A 
BRANCH  22  26
ATOM     26  O   UNL     1      -7.479 -11.213   2.175  0.00  0.00    +0.000 OA
ATOM     27  C   UNL     1      -8.504 -10.843   1.289  0.00  0.00    +0.000 C 
ENDBRANCH  22  26
BRANCH  24  28
ATOM     28  O   UNL     1      -5.796 -13.050   1.145  0.00  0.00    +0.000 OA
ATOM     29  H   UNL     1      -5.311 -13.838   0.834  0.00  0.00    +0.000 HD
ENDBRANCH  24  28
ENDBRANCH  18  20
ENDBRANCH   5  19
TORSDOF 8
ENDMDL
MODEL 3
REMARK VINA RESULT:      -5.5      1.843     11.648
REMARK  Name = 969516_Curcumin.pdbqt.pdb
REMARK  8 active torsions:
REMARK  status: ('A' for Active; 'I' for Inactive)
REMARK    1  A    between atoms: C_3  and  C_5
REMARK    2  A    between atoms: C_4  and  C_6
REMARK    3  A    between atoms: C_8  and  O_12
REMARK    4  A    between atoms: C_10  and  O_14
REMARK    5  A    between atoms: C_17  and  C_19
REMARK    6  A    between atoms: C_18  and  C_20
REMARK    7  A    between atoms: C_22  and  O_26
REMARK    8  A    between atoms: C_24  and  O_28
REMARK                            x       y       z     vdW  Elec       q    Type
REMARK                         _______ _______ _______ _____ _____    ______ ____
ROOT
ATOM      1  C   UNL     1     -10.219 -16.096   7.367  0.00  0.00    +0.000 C 
ATOM      2  O   UNL     1      -8.944 -16.979   9.055  0.00  0.00    +0.000 OA
ATOM      3  C   UNL     1     -10.002 -16.463   8.728  0.00  0.00    +0.000 C 
ATOM      4  O   UNL     1     -11.568 -15.504   5.612  0.00  0.00    +0.000 OA
ATOM      5  C   UNL     1     -10.434 -15.735   6.006  0.00  0.00    +0.000 C 
ENDROOT
BRANCH   3   7
ATOM      6  C   UNL     1     -11.888 -16.012  10.523  0.00  0.00    +0.000 C 
ATOM      7  C   UNL     1     -11.030 -16.218   9.708  0.00  0.00    +0.000 C 
BRANCH   6   8
ATOM      8  C   UNL     1     -12.908 -15.769  11.491  0.00  0.00    +0.000 A 
ATOM      9  C   UNL     1     -14.040 -15.036  11.138  0.00  0.00    +0.000 A 
ATOM     10  C   UNL     1     -15.048 -14.788  12.073  0.00  0.00    +0.000 A 
ATOM     11  C   UNL     1     -12.771 -16.264  12.785  0.00  0.00    +0.000 A 
ATOM     12  C   UNL     1     -14.901 -15.290  13.370  0.00  0.00    +0.000 A 
ATOM     13  C   UNL     1     -13.769 -16.024  13.725  0.00  0.00    +0.000 A 
BRANCH  10  14
ATOM     14  O   UNL     1     -16.190 -14.077  11.799  0.00  0.00    +0.000 OA
ATOM     15  C   UNL     1     -17.155 -14.735  11.028  0.00  0.00    +0.000 C 
ENDBRANCH  10  14
BRANCH  12  16
ATOM     16  O   UNL     1     -15.834 -15.100  14.352  0.00  0.00    +0.000 OA
ATOM     17  H   UNL     1     -16.672 -15.532  14.117  0.00  0.00    +0.000 HD
ENDBRANCH  12  16
ENDBRANCH   6   8
ENDBRANCH   3   7
BRANCH   5  19
ATOM     18  C   UNL     1      -8.380 -15.569   4.353  0.00  0.00    +0.000 C 
ATOM     19  C   UNL     1      -9.315 -15.643   5.104  0.00  0.00    +0.000 C 
BRANCH  18  20
ATOM     20  C   UNL     1      -7.267 -15.483   3.465  0.00  0.00    +0.000 A 
ATOM     21  C   UNL     1      -6.258 -16.443   3.522  0.00  0.00    +0.000 A 
ATOM     22  C   UNL     1      -5.161 -16.373   2.658  0.00  0.00    +0.000 A 
ATOM     23  C   UNL     1      -7.191 -14.441   2.543  0.00  0.00    +0.000 A 
ATOM     24  C   UNL     1      -5.098 -15.323   1.739  0.00  0.00    +0.000 A 
ATOM     25  C   UNL     1      -6.104 -14.360   1.678  0.00  0.00    +0.000 A 
BRANCH  22  26
ATOM     26  O   UNL     1      -4.125 -17.275   2.648  0.00  0.00    +0.000 OA
ATOM     27  C   UNL     1      -4.455 -18.580   3.045  0.00  0.00    +0.000 C 
ENDBRANCH  22  26
BRANCH  24  28
ATOM     28  O   UNL     1      -4.032 -15.237   0.884  0.00  0.00    +0.000 OA
ATOM     29  H   UNL     1      -4.234 -15.751   0.080  0.00  0.00    +0.000 HD
ENDBRANCH  24  28
ENDBRANCH  18  20
ENDBRANCH   5  19
TORSDOF 8
ENDMDL
MODEL 4
REMARK VINA RESULT:      -5.5     15.623     19.266
REMARK  Name = 969516_Curcumin.pdbqt.pdb
REMARK  8 active torsions:
REMARK  status: ('A' for Active; 'I' for Inactive)
REMARK    1  A    between atoms: C_3  and  C_5
REMARK    2  A    between atoms: C_4  and  C_6
REMARK    3  A    between atoms: C_8  and  O_12
REMARK    4  A    between atoms: C_10  and  O_14
REMARK    5  A    between atoms: C_17  and  C_19
REMARK    6  A    between atoms: C_18  and  C_20
REMARK    7  A    between atoms: C_22  and  O_26
REMARK    8  A    between atoms: C_24  and  O_28
REMARK                            x       y       z     vdW  Elec       q    Type
REMARK                         _______ _______ _______ _____ _____    ______ ____
ROOT
ATOM      1  C   UNL     1       5.098 -11.532  11.790  0.00  0.00    +0.000 C 
ATOM      2  O   UNL     1       2.852 -11.698  12.217  0.00  0.00    +0.000 OA
ATOM      3  C   UNL     1       3.920 -12.278  12.089  0.00  0.00    +0.000 C 
ATOM      4  O   UNL     1       7.374 -11.293  11.659  0.00  0.00    +0.000 OA
ATOM      5  C   UNL     1       6.274 -10.784  11.495  0.00  0.00    +0.000 C 
ENDROOT
BRANCH   3   7
ATOM      6  C   UNL     1       4.061 -14.903  12.357  0.00  0.00    +0.000 C 
ATOM      7  C   UNL     1       3.997 -13.710  12.234  0.00  0.00    +0.000 C 
BRANCH   6   8
ATOM      8  C   UNL     1       4.135 -16.320  12.502  0.00  0.00    +0.000 A 
ATOM      9  C   UNL     1       3.184 -17.133  11.887  0.00  0.00    +0.000 A 
ATOM     10  C   UNL     1       3.241 -18.523  12.020  0.00  0.00    +0.000 A 
ATOM     11  C   UNL     1       5.156 -16.890  13.258  0.00  0.00    +0.000 A 
ATOM     12  C   UNL     1       4.272 -19.084  12.781  0.00  0.00    +0.000 A 
ATOM     13  C   UNL     1       5.224 -18.273  13.396  0.00  0.00    +0.000 A 
BRANCH  10  14
ATOM     14  O   UNL     1       2.342 -19.386  11.444  0.00  0.00    +0.000 OA
ATOM     15  C   UNL     1       2.580 -19.718  10.104  0.00  0.00    +0.000 C 
ENDBRANCH  10  14
BRANCH  12  16
ATOM     16  O   UNL     1       4.410 -20.432  12.967  0.00  0.00    +0.000 OA
ATOM     17  H   UNL     1       3.912 -20.924  12.293  0.00  0.00    +0.000 HD
ENDBRANCH  12  16
ENDBRANCH   6   8
ENDBRANCH   3   7
BRANCH   5  19
ATOM     18  C   UNL     1       6.063  -8.311  10.589  0.00  0.00    +0.000 C 
ATOM     19  C   UNL     1       6.160  -9.435  11.003  0.00  0.00    +0.000 C 
BRANCH  18  20
ATOM     20  C   UNL     1       5.951  -6.979  10.094  0.00  0.00    +0.000 A 
ATOM     21  C   UNL     1       6.556  -5.929  10.783  0.00  0.00    +0.000 A 
ATOM     22  C   UNL     1       6.456  -4.617  10.310  0.00  0.00    +0.000 A 
ATOM     23  C   UNL     1       5.238  -6.729   8.923  0.00  0.00    +0.000 A 
ATOM     24  C   UNL     1       5.738  -4.381   9.135  0.00  0.00    +0.000 A 
ATOM     25  C   UNL     1       5.131  -5.427   8.442  0.00  0.00    +0.000 A 
BRANCH  22  26
ATOM     26  O   UNL     1       7.020  -3.527  10.926  0.00  0.00    +0.000 OA
ATOM     27  C   UNL     1       8.059  -3.811  11.826  0.00  0.00    +0.000 C 
ENDBRANCH  22  26
BRANCH  24  28
ATOM     28  O   UNL     1       5.629  -3.104   8.655  0.00  0.00    +0.000 OA
ATOM     29  H   UNL     1       6.507  -2.681   8.689  0.00  0.00    +0.000 HD
ENDBRANCH  24  28
ENDBRANCH  18  20
ENDBRANCH   5  19
TORSDOF 8
ENDMDL
MODEL 5
REMARK VINA RESULT:      -5.4     15.738     17.729
REMARK  Name = 969516_Curcumin.pdbqt.pdb
REMARK  8 active torsions:
REMARK  status: ('A' for Active; 'I' for Inactive)
REMARK    1  A    between atoms: C_3  and  C_5
REMARK    2  A    between atoms: C_4  and  C_6
REMARK    3  A    between atoms: C_8  and  O_12
REMARK    4  A    between atoms: C_10  and  O_14
REMARK    5  A    between atoms: C_17  and  C_19
REMARK    6  A    between atoms: C_18  and  C_20
REMARK    7  A    between atoms: C_22  and  O_26
REMARK    8  A    between atoms: C_24  and  O_28
REMARK                            x       y       z     vdW  Elec       q    Type
REMARK                         _______ _______ _______ _____ _____    ______ ____
ROOT
ATOM      1  C   UNL     1       5.149 -11.493  11.854  0.00  0.00    +0.000 C 
ATOM      2  O   UNL     1       7.406 -11.115  11.987  0.00  0.00    +0.000 OA
ATOM      3  C   UNL     1       6.307 -10.678  11.683  0.00  0.00    +0.000 C 
ATOM      4  O   UNL     1       2.884 -11.797  12.019  0.00  0.00    +0.000 OA
ATOM      5  C   UNL     1       3.994 -12.308  12.029  0.00  0.00    +0.000 C 
ENDROOT
BRANCH   3   7
ATOM      6  C   UNL     1       6.059  -8.236  10.704  0.00  0.00    +0.000 C 
ATOM      7  C   UNL     1       6.171  -9.345  11.150  0.00  0.00    +0.000 C 
BRANCH   6   8
ATOM      8  C   UNL     1       5.923  -6.918  10.174  0.00  0.00    +0.000 A 
ATOM      9  C   UNL     1       6.433  -5.829  10.881  0.00  0.00    +0.000 A 
ATOM     10  C   UNL     1       6.309  -4.531  10.376  0.00  0.00    +0.000 A 
ATOM     11  C   UNL     1       5.283  -6.721   8.954  0.00  0.00    +0.000 A 
ATOM     12  C   UNL     1       5.665  -4.345   9.149  0.00  0.00    +0.000 A 
ATOM     13  C   UNL     1       5.154  -5.433   8.442  0.00  0.00    +0.000 A 
BRANCH  10  14
ATOM     14  O   UNL     1       6.787  -3.413  11.013  0.00  0.00    +0.000 OA
ATOM     15  C   UNL     1       8.143  -3.434  11.360  0.00  0.00    +0.000 C 
ENDBRANCH  10  14
BRANCH  12  16
ATOM     16  O   UNL     1       5.496  -3.115   8.576  0.00  0.00    +0.000 OA
ATOM     17  H   UNL     1       6.073  -2.457   9.001  0.00  0.00    +0.000 HD
ENDBRANCH  12  16
ENDBRANCH   6   8
ENDBRANCH   3   7
BRANCH   5  19
ATOM     18  C   UNL     1       4.264 -14.913  12.375  0.00  0.00    +0.000 C 
ATOM     19  C   UNL     1       4.142 -13.729  12.216  0.00  0.00    +0.000 C 
BRANCH  18  20
ATOM     20  C   UNL     1       4.412 -16.318  12.569  0.00  0.00    +0.000 A 
ATOM     21  C   UNL     1       3.282 -17.132  12.636  0.00  0.00    +0.000 A 
ATOM     22  C   UNL     1       3.411 -18.511  12.825  0.00  0.00    +0.000 A 
ATOM     23  C   UNL     1       5.684 -16.875  12.689  0.00  0.00    +0.000 A 
ATOM     24  C   UNL     1       4.692 -19.056  12.943  0.00  0.00    +0.000 A 
ATOM     25  C   UNL     1       5.825 -18.246  12.877  0.00  0.00    +0.000 A 
BRANCH  22  26
ATOM     26  O   UNL     1       2.353 -19.384  12.903  0.00  0.00    +0.000 OA
ATOM     27  C   UNL     1       1.706 -19.661  11.689  0.00  0.00    +0.000 C 
ENDBRANCH  22  26
BRANCH  24  28
ATOM     28  O   UNL     1       4.839 -20.403  13.128  0.00  0.00    +0.000 OA
ATOM     29  H   UNL     1       5.318 -20.774  12.363  0.00  0.00    +0.000 HD
ENDBRANCH  24  28
ENDBRANCH  18  20
ENDBRANCH   5  19
TORSDOF 8
ENDMDL
MODEL 6
REMARK VINA RESULT:      -5.3     11.935     20.987
REMARK  Name = 969516_Curcumin.pdbqt.pdb
REMARK  8 active torsions:
REMARK  status: ('A' for Active; 'I' for Inactive)
REMARK    1  A    between atoms: C_3  and  C_5
REMARK    2  A    between atoms: C_4  and  C_6
REMARK    3  A    between atoms: C_8  and  O_12
REMARK    4  A    between atoms: C_10  and  O_14
REMARK    5  A    between atoms: C_17  and  C_19
REMARK    6  A    between atoms: C_18  and  C_20
REMARK    7  A    between atoms: C_22  and  O_26
REMARK    8  A    between atoms: C_24  and  O_28
REMARK                            x       y       z     vdW  Elec       q    Type
REMARK                         _______ _______ _______ _____ _____    ______ ____
ROOT
ATOM      1  C   UNL     1      -3.183  -2.701  -2.280  0.00  0.00    +0.000 C 
ATOM      2  O   UNL     1      -4.099  -1.656  -0.457  0.00  0.00    +0.000 OA
ATOM      3  C   UNL     1      -3.907  -2.706  -1.052  0.00  0.00    +0.000 C 
ATOM      4  O   UNL     1      -2.002  -3.738  -3.948  0.00  0.00    +0.000 OA
ATOM      5  C   UNL     1      -2.456  -2.693  -3.505  0.00  0.00    +0.000 C 
ENDROOT
BRANCH   3   7
ATOM      6  C   UNL     1      -4.829  -4.984  -0.082  0.00  0.00    +0.000 C 
ATOM      7  C   UNL     1      -4.409  -3.949  -0.522  0.00  0.00    +0.000 C 
BRANCH   6   8
ATOM      8  C   UNL     1      -5.327  -6.215   0.440  0.00  0.00    +0.000 A 
ATOM      9  C   UNL     1      -4.908  -6.659   1.693  0.00  0.00    +0.000 A 
ATOM     10  C   UNL     1      -5.386  -7.863   2.219  0.00  0.00    +0.000 A 
ATOM     11  C   UNL     1      -6.230  -6.971  -0.303  0.00  0.00    +0.000 A 
ATOM     12  C   UNL     1      -6.293  -8.614   1.465  0.00  0.00    +0.000 A 
ATOM     13  C   UNL     1      -6.713  -8.171   0.211  0.00  0.00    +0.000 A 
BRANCH  10  14
ATOM     14  O   UNL     1      -5.020  -8.362   3.445  0.00  0.00    +0.000 OA
ATOM     15  C   UNL     1      -3.743  -8.010   3.897  0.00  0.00    +0.000 C 
ENDBRANCH  10  14
BRANCH  12  16
ATOM     16  O   UNL     1      -6.815  -9.802   1.896  0.00  0.00    +0.000 OA
ATOM     17  H   UNL     1      -6.666 -10.501   1.237  0.00  0.00    +0.000 HD
ENDBRANCH  12  16
ENDBRANCH   6   8
ENDBRANCH   3   7
BRANCH   5  19
ATOM     18  C   UNL     1      -2.105  -0.423  -4.809  0.00  0.00    +0.000 C 
ATOM     19  C   UNL     1      -2.262  -1.455  -4.216  0.00  0.00    +0.000 C 
BRANCH  18  20
ATOM     20  C   UNL     1      -1.920   0.801  -5.518  0.00  0.00    +0.000 A 
ATOM     21  C   UNL     1      -1.549   1.954  -4.828  0.00  0.00    +0.000 A 
ATOM     22  C   UNL     1      -1.363   3.160  -5.509  0.00  0.00    +0.000 A 
ATOM     23  C   UNL     1      -2.109   0.842  -6.898  0.00  0.00    +0.000 A 
ATOM     24  C   UNL     1      -1.556   3.187  -6.892  0.00  0.00    +0.000 A 
ATOM     25  C   UNL     1      -1.928   2.037  -7.587  0.00  0.00    +0.000 A 
BRANCH  22  26
ATOM     26  O   UNL     1      -0.998   4.341  -4.907  0.00  0.00    +0.000 OA
ATOM     27  C   UNL     1       0.282   4.357  -4.332  0.00  0.00    +0.000 C 
ENDBRANCH  22  26
BRANCH  24  28
ATOM     28  O   UNL     1      -1.379   4.358  -7.577  0.00  0.00    +0.000 OA
ATOM     29  H   UNL     1      -2.076   4.432  -8.255  0.00  0.00    +0.000 HD
ENDBRANCH  24  28
ENDBRANCH  18  20
ENDBRANCH   5  19
TORSDOF 8
ENDMDL
MODEL 7
REMARK VINA RESULT:      -5.1      4.368     13.806
REMARK  Name = 969516_Curcumin.pdbqt.pdb
REMARK  8 active torsions:
REMARK  status: ('A' for Active; 'I' for Inactive)
REMARK    1  A    between atoms: C_3  and  C_5
REMARK    2  A    between atoms: C_4  and  C_6
REMARK    3  A    between atoms: C_8  and  O_12
REMARK    4  A    between atoms: C_10  and  O_14
REMARK    5  A    between atoms: C_17  and  C_19
REMARK    6  A    between atoms: C_18  and  C_20
REMARK    7  A    between atoms: C_22  and  O_26
REMARK    8  A    between atoms: C_24  and  O_28
REMARK                            x       y       z     vdW  Elec       q    Type
REMARK                         _______ _______ _______ _____ _____    ______ ____
ROOT
ATOM      1  C   UNL     1     -15.219 -15.451  14.174  0.00  0.00    +0.000 C 
ATOM      2  O   UNL     1     -14.324 -16.612  15.937  0.00  0.00    +0.000 OA
ATOM      3  C   UNL     1     -15.171 -15.821  15.550  0.00  0.00    +0.000 C 
ATOM      4  O   UNL     1     -16.268 -14.550  12.347  0.00  0.00    +0.000 OA
ATOM      5  C   UNL     1     -15.267 -15.087  12.798  0.00  0.00    +0.000 C 
ENDROOT
BRANCH   3   7
ATOM      6  C   UNL     1     -16.911 -14.784  17.248  0.00  0.00    +0.000 C 
ATOM      7  C   UNL     1     -16.120 -15.256  16.476  0.00  0.00    +0.000 C 
BRANCH   6   8
ATOM      8  C   UNL     1     -17.851 -14.222  18.162  0.00  0.00    +0.000 A 
ATOM      9  C   UNL     1     -17.832 -14.608  19.502  0.00  0.00    +0.000 A 
ATOM     10  C   UNL     1     -18.745 -14.068  20.412  0.00  0.00    +0.000 A 
ATOM     11  C   UNL     1     -18.785 -13.291  17.717  0.00  0.00    +0.000 A 
ATOM     12  C   UNL     1     -19.679 -13.133  19.953  0.00  0.00    +0.000 A 
ATOM     13  C   UNL     1     -19.699 -12.746  18.614  0.00  0.00    +0.000 A 
BRANCH  10  14
ATOM     14  O   UNL     1     -18.786 -14.398  21.744  0.00  0.00    +0.000 OA
ATOM     15  C   UNL     1     -17.862 -13.746  22.568  0.00  0.00    +0.000 C 
ENDBRANCH  10  14
BRANCH  12  16
ATOM     16  O   UNL     1     -20.610 -12.551  20.768  0.00  0.00    +0.000 OA
ATOM     17  H   UNL     1     -20.705 -11.607  20.560  0.00  0.00    +0.000 HD
ENDBRANCH  12  16
ENDBRANCH   6   8
ENDBRANCH   3   7
BRANCH   5  19
ATOM     18  C   UNL     1     -13.189 -15.576  11.240  0.00  0.00    +0.000 C 
ATOM     19  C   UNL     1     -14.135 -15.353  11.947  0.00  0.00    +0.000 C 
BRANCH  18  20
ATOM     20  C   UNL     1     -12.063 -15.836  10.405  0.00  0.00    +0.000 A 
ATOM     21  C   UNL     1     -12.249 -16.078   9.044  0.00  0.00    +0.000 A 
ATOM     22  C   UNL     1     -11.156 -16.334   8.212  0.00  0.00    +0.000 A 
ATOM     23  C   UNL     1     -10.780 -15.847  10.948  0.00  0.00    +0.000 A 
ATOM     24  C   UNL     1      -9.875 -16.342   8.771  0.00  0.00    +0.000 A 
ATOM     25  C   UNL     1      -9.683 -16.101  10.130  0.00  0.00    +0.000 A 
BRANCH  22  26
ATOM     26  O   UNL     1     -11.250 -16.583   6.864  0.00  0.00    +0.000 OA
ATOM     27  C   UNL     1     -11.339 -15.447   6.044  0.00  0.00    +0.000 C 
ENDBRANCH  22  26
BRANCH  24  28
ATOM     28  O   UNL     1      -8.792 -16.591   7.972  0.00  0.00    +0.000 OA
ATOM     29  H   UNL     1      -7.994 -16.240   8.410  0.00  0.00    +0.000 HD
ENDBRANCH  24  28
ENDBRANCH  18  20
ENDBRANCH   5  19
TORSDOF 8
ENDMDL
MODEL 8
REMARK VINA RESULT:      -5.1     14.929     16.382
REMARK  Name = 969516_Curcumin.pdbqt.pdb
REMARK  8 active torsions:
REMARK  status: ('A' for Active; 'I' for Inactive)
REMARK    1  A    between atoms: C_3  and  C_5
REMARK    2  A    between atoms: C_4  and  C_6
REMARK    3  A    between atoms: C_8  and  O_12
REMARK    4  A    between atoms: C_10  and  O_14
REMARK    5  A    between atoms: C_17  and  C_19
REMARK    6  A    between atoms: C_18  and  C_20
REMARK    7  A    between atoms: C_22  and  O_26
REMARK    8  A    between atoms: C_24  and  O_28
REMARK                            x       y       z     vdW  Elec       q    Type
REMARK                         _______ _______ _______ _____ _____    ______ ____
ROOT
ATOM      1  C   UNL     1       4.003 -13.003  12.062  0.00  0.00    +0.000 C 
ATOM      2  O   UNL     1       2.477 -11.406  12.675  0.00  0.00    +0.000 OA
ATOM      3  C   UNL     1       3.583 -11.649  12.218  0.00  0.00    +0.000 C 
ATOM      4  O   UNL     1       5.371 -14.619  11.186  0.00  0.00    +0.000 OA
ATOM      5  C   UNL     1       4.417 -14.356  11.905  0.00  0.00    +0.000 C 
ENDROOT
BRANCH   3   7
ATOM      6  C   UNL     1       5.208  -9.685  11.520  0.00  0.00    +0.000 C 
ATOM      7  C   UNL     1       4.468 -10.577  11.837  0.00  0.00    +0.000 C 
BRANCH   6   8
ATOM      8  C   UNL     1       6.086  -8.626  11.142  0.00  0.00    +0.000 A 
ATOM      9  C   UNL     1       5.803  -7.859  10.012  0.00  0.00    +0.000 A 
ATOM     10  C   UNL     1       6.653  -6.818   9.628  0.00  0.00    +0.000 A 
ATOM     11  C   UNL     1       7.223  -8.361  11.900  0.00  0.00    +0.000 A 
ATOM     12  C   UNL     1       7.792  -6.560  10.397  0.00  0.00    +0.000 A 
ATOM     13  C   UNL     1       8.076  -7.326  11.527  0.00  0.00    +0.000 A 
BRANCH  10  14
ATOM     14  O   UNL     1       6.440  -6.020   8.531  0.00  0.00    +0.000 OA
ATOM     15  C   UNL     1       5.384  -5.106   8.630  0.00  0.00    +0.000 C 
ENDBRANCH  10  14
BRANCH  12  16
ATOM     16  O   UNL     1       8.681  -5.563  10.099  0.00  0.00    +0.000 OA
ATOM     17  H   UNL     1       9.558  -5.934   9.905  0.00  0.00    +0.000 HD
ENDBRANCH  12  16
ENDBRANCH   6   8
ENDBRANCH   3   7
BRANCH   5  19
ATOM     18  C   UNL     1       3.124 -16.280  13.172  0.00  0.00    +0.000 C 
ATOM     19  C   UNL     1       3.712 -15.406  12.594  0.00  0.00    +0.000 C 
BRANCH  18  20
ATOM     20  C   UNL     1       2.429 -17.317  13.862  0.00  0.00    +0.000 A 
ATOM     21  C   UNL     1       2.051 -17.133  15.191  0.00  0.00    +0.000 A 
ATOM     22  C   UNL     1       1.368 -18.140  15.881  0.00  0.00    +0.000 A 
ATOM     23  C   UNL     1       2.129 -18.509  13.207  0.00  0.00    +0.000 A 
ATOM     24  C   UNL     1       1.074 -19.330  15.212  0.00  0.00    +0.000 A 
ATOM     25  C   UNL     1       1.450 -19.519  13.883  0.00  0.00    +0.000 A 
BRANCH  22  26
ATOM     26  O   UNL     1       0.960 -18.042  17.189  0.00  0.00    +0.000 OA
ATOM     27  C   UNL     1       1.258 -16.827  17.826  0.00  0.00    +0.000 C 
ENDBRANCH  22  26
BRANCH  24  28
ATOM     28  O   UNL     1       0.407 -20.328  15.870  0.00  0.00    +0.000 OA
ATOM     29  H   UNL     1      -0.426 -19.964  16.226  0.00  0.00    +0.000 HD
ENDBRANCH  24  28
ENDBRANCH  18  20
ENDBRANCH   5  19
TORSDOF 8
ENDMDL
MODEL 9
REMARK VINA RESULT:      -4.9     21.177     23.838
REMARK  Name = 969516_Curcumin.pdbqt.pdb
REMARK  8 active torsions:
REMARK  status: ('A' for Active; 'I' for Inactive)
REMARK    1  A    between atoms: C_3  and  C_5
REMARK    2  A    between atoms: C_4  and  C_6
REMARK    3  A    between atoms: C_8  and  O_12
REMARK    4  A    between atoms: C_10  and  O_14
REMARK    5  A    between atoms: C_17  and  C_19
REMARK    6  A    between atoms: C_18  and  C_20
REMARK    7  A    between atoms: C_22  and  O_26
REMARK    8  A    between atoms: C_24  and  O_28
REMARK                            x       y       z     vdW  Elec       q    Type
REMARK                         _______ _______ _______ _____ _____    ______ ____
ROOT
ATOM      1  C   UNL     1     -15.368   3.672  16.844  0.00  0.00    +0.000 C 
ATOM      2  O   UNL     1     -13.349   4.024  15.818  0.00  0.00    +0.000 OA
ATOM      3  C   UNL     1     -13.964   3.920  16.868  0.00  0.00    +0.000 C 
ATOM      4  O   UNL     1     -17.335   3.021  17.824  0.00  0.00    +0.000 OA
ATOM      5  C   UNL     1     -16.770   3.421  16.816  0.00  0.00    +0.000 C 
ENDROOT
BRANCH   3   7
ATOM      6  C   UNL     1     -12.713   4.157  19.184  0.00  0.00    +0.000 C 
ATOM      7  C   UNL     1     -13.282   4.049  18.132  0.00  0.00    +0.000 C 
BRANCH   6   8
ATOM      8  C   UNL     1     -12.038   4.287  20.434  0.00  0.00    +0.000 A 
ATOM      9  C   UNL     1     -12.773   4.448  21.608  0.00  0.00    +0.000 A 
ATOM     10  C   UNL     1     -12.127   4.577  22.841  0.00  0.00    +0.000 A 
ATOM     11  C   UNL     1     -10.647   4.255  20.480  0.00  0.00    +0.000 A 
ATOM     12  C   UNL     1     -10.730   4.542  22.875  0.00  0.00    +0.000 A 
ATOM     13  C   UNL     1      -9.993   4.382  21.702  0.00  0.00    +0.000 A 
BRANCH  10  14
ATOM     14  O   UNL     1     -12.783   4.736  24.036  0.00  0.00    +0.000 OA
ATOM     15  C   UNL     1     -13.361   3.582  24.580  0.00  0.00    +0.000 C 
ENDBRANCH  10  14
BRANCH  12  16
ATOM     16  O   UNL     1     -10.010   4.660  24.033  0.00  0.00    +0.000 OA
ATOM     17  H   UNL     1     -10.289   3.990  24.679  0.00  0.00    +0.000 HD
ENDBRANCH  12  16
ENDBRANCH   6   8
ENDBRANCH   3   7
BRANCH   5  19
ATOM     18  C   UNL     1     -18.131   3.822  14.587  0.00  0.00    +0.000 C 
ATOM     19  C   UNL     1     -17.513   3.641  15.602  0.00  0.00    +0.000 C 
BRANCH  18  20
ATOM     20  C   UNL     1     -18.860   4.037  13.381  0.00  0.00    +0.000 A 
ATOM     21  C   UNL     1     -19.134   5.336  12.957  0.00  0.00    +0.000 A 
ATOM     22  C   UNL     1     -19.847   5.563  11.776  0.00  0.00    +0.000 A 
ATOM     23  C   UNL     1     -19.295   2.948  12.627  0.00  0.00    +0.000 A 
ATOM     24  C   UNL     1     -20.277   4.462  11.030  0.00  0.00    +0.000 A 
ATOM     25  C   UNL     1     -20.006   3.161  11.450  0.00  0.00    +0.000 A 
BRANCH  22  26
ATOM     26  O   UNL     1     -20.160   6.808  11.287  0.00  0.00    +0.000 OA
ATOM     27  C   UNL     1     -20.826   7.660  12.183  0.00  0.00    +0.000 C 
ENDBRANCH  22  26
BRANCH  24  28
ATOM     28  O   UNL     1     -20.976   4.664   9.871  0.00  0.00    +0.000 OA
ATOM     29  H   UNL     1     -21.444   3.839   9.642  0.00  0.00    +0.000 HD
ENDBRANCH  24  28
ENDBRANCH  18  20
ENDBRANCH   5  19
TORSDOF 8
ENDMDL
