MODEL 1
REMARK VINA RESULT:      -3.4      0.000      0.000
REMARK  Name = 971_OxalicAcid.pdbqt.pdb
REMARK  3 active torsions:
REMARK  status: ('A' for Active; 'I' for Inactive)
REMARK    1  A    between atoms: C_2  and  O_3
REMARK    2  A    between atoms: C_2  and  C_6
REMARK    3  A    between atoms: C_6  and  O_7
REMARK                            x       y       z     vdW  Elec       q    Type
REMARK                         _______ _______ _______ _____ _____    ______ ____
ROOT
ATOM      1  O   UNL     1      -5.572  -2.925   0.543  0.00  0.00    +0.000 OA
ATOM      2  C   UNL     1      -5.571  -1.722   0.370  0.00  0.00    +0.000 C 
ENDROOT
BRANCH   2   3
ATOM      3  O   UNL     1      -4.692  -1.124  -0.445  0.00  0.00    +0.000 OA
ATOM      4  H   UNL     1      -4.291  -0.419   0.102  0.00  0.00    +0.000 HD
ENDBRANCH   2   3
BRANCH   2   6
ATOM      5  O   UNL     1      -7.657  -0.984   1.472  0.00  0.00    +0.000 OA
ATOM      6  C   UNL     1      -6.553  -0.712   1.040  0.00  0.00    +0.000 C 
BRANCH   6   7
ATOM      7  O   UNL     1      -6.055   0.531   1.101  0.00  0.00    +0.000 OA
ATOM      8  H   UNL     1      -6.751   1.052   1.549  0.00  0.00    +0.000 HD
ENDBRANCH   6   7
ENDBRANCH   2   6
TORSDOF 3
ENDMDL
MODEL 2
REMARK VINA RESULT:      -3.4      9.975     11.281
REMARK  Name = 971_OxalicAcid.pdbqt.pdb
REMARK  3 active torsions:
REMARK  status: ('A' for Active; 'I' for Inactive)
REMARK    1  A    between atoms: C_2  and  O_3
REMARK    2  A    between atoms: C_2  and  C_6
REMARK    3  A    between atoms: C_6  and  O_7
REMARK                            x       y       z     vdW  Elec       q    Type
REMARK                         _______ _______ _______ _____ _____    ______ ____
ROOT
ATOM      1  O   UNL     1     -15.738  -3.305   7.095  0.00  0.00    +0.000 OA
ATOM      2  C   UNL     1     -15.039  -4.298   7.041  0.00  0.00    +0.000 C 
ENDROOT
BRANCH   2   3
ATOM      3  O   UNL     1     -14.700  -4.987   8.140  0.00  0.00    +0.000 OA
ATOM      4  H   UNL     1     -15.271  -4.621   8.844  0.00  0.00    +0.000 HD
ENDBRANCH   2   3
BRANCH   2   6
ATOM      5  O   UNL     1     -14.296  -6.101   5.523  0.00  0.00    +0.000 OA
ATOM      6  C   UNL     1     -14.443  -4.914   5.737  0.00  0.00    +0.000 C 
BRANCH   6   7
ATOM      7  O   UNL     1     -14.094  -3.982   4.839  0.00  0.00    +0.000 OA
ATOM      8  H   UNL     1     -13.279  -3.583   5.204  0.00  0.00    +0.000 HD
ENDBRANCH   6   7
ENDBRANCH   2   6
TORSDOF 3
ENDMDL
MODEL 3
REMARK VINA RESULT:      -3.4     11.614     12.571
REMARK  Name = 971_OxalicAcid.pdbqt.pdb
REMARK  3 active torsions:
REMARK  status: ('A' for Active; 'I' for Inactive)
REMARK    1  A    between atoms: C_2  and  O_3
REMARK    2  A    between atoms: C_2  and  C_6
REMARK    3  A    between atoms: C_6  and  O_7
REMARK                            x       y       z     vdW  Elec       q    Type
REMARK                         _______ _______ _______ _____ _____    ______ ____
ROOT
ATOM      1  O   UNL     1     -13.662  -7.416   7.788  0.00  0.00    +0.000 OA
ATOM      2  C   UNL     1     -14.781  -7.004   7.554  0.00  0.00    +0.000 C 
ENDROOT
BRANCH   2   3
ATOM      3  O   UNL     1     -15.812  -7.834   7.342  0.00  0.00    +0.000 OA
ATOM      4  H   UNL     1     -15.453  -8.524   6.749  0.00  0.00    +0.000 HD
ENDBRANCH   2   3
BRANCH   2   6
ATOM      5  O   UNL     1     -14.722  -4.690   6.690  0.00  0.00    +0.000 OA
ATOM      6  C   UNL     1     -15.190  -5.502   7.464  0.00  0.00    +0.000 C 
BRANCH   6   7
ATOM      7  O   UNL     1     -16.140  -5.171   8.350  0.00  0.00    +0.000 OA
ATOM      8  H   UNL     1     -16.969  -5.513   7.959  0.00  0.00    +0.000 HD
ENDBRANCH   6   7
ENDBRANCH   2   6
TORSDOF 3
ENDMDL
MODEL 4
REMARK VINA RESULT:      -3.4     11.481     12.702
REMARK  Name = 971_OxalicAcid.pdbqt.pdb
REMARK  3 active torsions:
REMARK  status: ('A' for Active; 'I' for Inactive)
REMARK    1  A    between atoms: C_2  and  O_3
REMARK    2  A    between atoms: C_2  and  C_6
REMARK    3  A    between atoms: C_6  and  O_7
REMARK                            x       y       z     vdW  Elec       q    Type
REMARK                         _______ _______ _______ _____ _____    ______ ____
ROOT
ATOM      1  O   UNL     1     -14.663  -4.959   6.361  0.00  0.00    +0.000 OA
ATOM      2  C   UNL     1     -15.067  -5.573   7.329  0.00  0.00    +0.000 C 
ENDROOT
BRANCH   2   3
ATOM      3  O   UNL     1     -15.839  -4.998   8.262  0.00  0.00    +0.000 OA
ATOM      4  H   UNL     1     -16.612  -5.592   8.341  0.00  0.00    +0.000 HD
ENDBRANCH   2   3
BRANCH   2   6
ATOM      5  O   UNL     1     -13.759  -7.497   8.162  0.00  0.00    +0.000 OA
ATOM      6  C   UNL     1     -14.769  -7.074   7.636  0.00  0.00    +0.000 C 
BRANCH   6   7
ATOM      7  O   UNL     1     -15.764  -7.887   7.254  0.00  0.00    +0.000 OA
ATOM      8  H   UNL     1     -15.525  -8.759   7.628  0.00  0.00    +0.000 HD
ENDBRANCH   6   7
ENDBRANCH   2   6
TORSDOF 3
ENDMDL
MODEL 5
REMARK VINA RESULT:      -3.3     14.589     15.193
REMARK  Name = 971_OxalicAcid.pdbqt.pdb
REMARK  3 active torsions:
REMARK  status: ('A' for Active; 'I' for Inactive)
REMARK    1  A    between atoms: C_2  and  O_3
REMARK    2  A    between atoms: C_2  and  C_6
REMARK    3  A    between atoms: C_6  and  O_7
REMARK                            x       y       z     vdW  Elec       q    Type
REMARK                         _______ _______ _______ _____ _____    ______ ____
ROOT
ATOM      1  O   UNL     1       7.499  -6.727   8.573  0.00  0.00    +0.000 OA
ATOM      2  C   UNL     1       6.304  -6.535   8.464  0.00  0.00    +0.000 C 
ENDROOT
BRANCH   2   3
ATOM      3  O   UNL     1       5.512  -7.367   7.772  0.00  0.00    +0.000 OA
ATOM      4  H   UNL     1       5.702  -7.162   6.835  0.00  0.00    +0.000 HD
ENDBRANCH   2   3
BRANCH   2   6
ATOM      5  O   UNL     1       5.679  -4.900  10.208  0.00  0.00    +0.000 OA
ATOM      6  C   UNL     1       5.521  -5.337   9.085  0.00  0.00    +0.000 C 
BRANCH   6   7
ATOM      7  O   UNL     1       4.624  -4.811   8.239  0.00  0.00    +0.000 OA
ATOM      8  H   UNL     1       5.118  -4.688   7.404  0.00  0.00    +0.000 HD
ENDBRANCH   6   7
ENDBRANCH   2   6
TORSDOF 3
ENDMDL
MODEL 6
REMARK VINA RESULT:      -3.0      9.137     10.057
REMARK  Name = 971_OxalicAcid.pdbqt.pdb
REMARK  3 active torsions:
REMARK  status: ('A' for Active; 'I' for Inactive)
REMARK    1  A    between atoms: C_2  and  O_3
REMARK    2  A    between atoms: C_2  and  C_6
REMARK    3  A    between atoms: C_6  and  O_7
REMARK                            x       y       z     vdW  Elec       q    Type
REMARK                         _______ _______ _______ _____ _____    ______ ____
ROOT
ATOM      1  O   UNL     1     -12.811  -7.544   3.421  0.00  0.00    +0.000 OA
ATOM      2  C   UNL     1     -12.045  -7.331   4.341  0.00  0.00    +0.000 C 
ENDROOT
BRANCH   2   3
ATOM      3  O   UNL     1     -11.463  -6.137   4.517  0.00  0.00    +0.000 OA
ATOM      4  H   UNL     1     -10.843  -6.274   5.261  0.00  0.00    +0.000 HD
ENDBRANCH   2   3
BRANCH   2   6
ATOM      5  O   UNL     1     -11.691  -8.197   6.628  0.00  0.00    +0.000 OA
ATOM      6  C   UNL     1     -11.627  -8.370   5.427  0.00  0.00    +0.000 C 
BRANCH   6   7
ATOM      7  O   UNL     1     -11.173  -9.516   4.899  0.00  0.00    +0.000 OA
ATOM      8  H   UNL     1     -11.075 -10.116   5.665  0.00  0.00    +0.000 HD
ENDBRANCH   6   7
ENDBRANCH   2   6
TORSDOF 3
ENDMDL
MODEL 7
REMARK VINA RESULT:      -3.0     10.994     11.551
REMARK  Name = 971_OxalicAcid.pdbqt.pdb
REMARK  3 active torsions:
REMARK  status: ('A' for Active; 'I' for Inactive)
REMARK    1  A    between atoms: C_2  and  O_3
REMARK    2  A    between atoms: C_2  and  C_6
REMARK    3  A    between atoms: C_6  and  O_7
REMARK                            x       y       z     vdW  Elec       q    Type
REMARK                         _______ _______ _______ _____ _____    ______ ____
ROOT
ATOM      1  O   UNL     1     -13.438  -7.722   5.281  0.00  0.00    +0.000 OA
ATOM      2  C   UNL     1     -12.627  -8.388   5.896  0.00  0.00    +0.000 C 
ENDROOT
BRANCH   2   3
ATOM      3  O   UNL     1     -11.754  -9.193   5.274  0.00  0.00    +0.000 OA
ATOM      4  H   UNL     1     -12.295  -9.686   4.624  0.00  0.00    +0.000 HD
ENDBRANCH   2   3
BRANCH   2   6
ATOM      5  O   UNL     1     -13.382  -8.546   8.243  0.00  0.00    +0.000 OA
ATOM      6  C   UNL     1     -12.473  -8.416   7.448  0.00  0.00    +0.000 C 
BRANCH   6   7
ATOM      7  O   UNL     1     -11.199  -8.280   7.843  0.00  0.00    +0.000 OA
ATOM      8  H   UNL     1     -10.822  -9.179   7.770  0.00  0.00    +0.000 HD
ENDBRANCH   6   7
ENDBRANCH   2   6
TORSDOF 3
ENDMDL
MODEL 8
REMARK VINA RESULT:      -2.8      8.337      9.779
REMARK  Name = 971_OxalicAcid.pdbqt.pdb
REMARK  3 active torsions:
REMARK  status: ('A' for Active; 'I' for Inactive)
REMARK    1  A    between atoms: C_2  and  O_3
REMARK    2  A    between atoms: C_2  and  C_6
REMARK    3  A    between atoms: C_6  and  O_7
REMARK                            x       y       z     vdW  Elec       q    Type
REMARK                         _______ _______ _______ _____ _____    ______ ____
ROOT
ATOM      1  O   UNL     1      -8.388   6.990   7.736  0.00  0.00    +0.000 OA
ATOM      2  C   UNL     1      -8.546   5.828   7.416  0.00  0.00    +0.000 C 
ENDROOT
BRANCH   2   3
ATOM      3  O   UNL     1      -9.692   5.175   7.658  0.00  0.00    +0.000 OA
ATOM      4  H   UNL     1     -10.163   5.740   8.304  0.00  0.00    +0.000 HD
ENDBRANCH   2   3
BRANCH   2   6
ATOM      5  O   UNL     1      -7.528   4.592   5.534  0.00  0.00    +0.000 OA
ATOM      6  C   UNL     1      -7.487   4.936   6.699  0.00  0.00    +0.000 C 
BRANCH   6   7
ATOM      7  O   UNL     1      -6.486   4.567   7.511  0.00  0.00    +0.000 OA
ATOM      8  H   UNL     1      -5.808   4.196   6.912  0.00  0.00    +0.000 HD
ENDBRANCH   6   7
ENDBRANCH   2   6
TORSDOF 3
ENDMDL
MODEL 9
REMARK VINA RESULT:      -2.8      2.577      3.355
REMARK  Name = 971_OxalicAcid.pdbqt.pdb
REMARK  3 active torsions:
REMARK  status: ('A' for Active; 'I' for Inactive)
REMARK    1  A    between atoms: C_2  and  O_3
REMARK    2  A    between atoms: C_2  and  C_6
REMARK    3  A    between atoms: C_6  and  O_7
REMARK                            x       y       z     vdW  Elec       q    Type
REMARK                         _______ _______ _______ _____ _____    ______ ____
ROOT
ATOM      1  O   UNL     1      -6.481  -4.115  -2.019  0.00  0.00    +0.000 OA
ATOM      2  C   UNL     1      -6.275  -3.132  -1.334  0.00  0.00    +0.000 C 
ENDROOT
BRANCH   2   3
ATOM      3  O   UNL     1      -7.256  -2.526  -0.651  0.00  0.00    +0.000 OA
ATOM      4  H   UNL     1      -8.045  -2.620  -1.221  0.00  0.00    +0.000 HD
ENDBRANCH   2   3
BRANCH   2   6
ATOM      5  O   UNL     1      -3.983  -2.859  -0.452  0.00  0.00    +0.000 OA
ATOM      6  C   UNL     1      -4.891  -2.439  -1.142  0.00  0.00    +0.000 C 
BRANCH   6   7
ATOM      7  O   UNL     1      -4.785  -1.294  -1.832  0.00  0.00    +0.000 OA
ATOM      8  H   UNL     1      -4.349  -0.675  -1.213  0.00  0.00    +0.000 HD
ENDBRANCH   6   7
ENDBRANCH   2   6
TORSDOF 3
ENDMDL
