MODEL 1
REMARK VINA RESULT:      -6.0      0.000      0.000
REMARK  Name = 9852185_GambogicAcid.pdbqt.pdb
REMARK  10 active torsions:
REMARK  status: ('A' for Active; 'I' for Inactive)
REMARK    1  A    between atoms: C_8  and  C_30
REMARK    2  A    between atoms: C_20  and  C_38
REMARK    3  A    between atoms: C_21  and  O_28
REMARK    4  A    between atoms: C_25  and  C_43
REMARK    5  A    between atoms: C_31  and  C_32
REMARK    6  A    between atoms: C_32  and  C_35
REMARK    7  A    between atoms: C_35  and  O_36
REMARK    8  A    between atoms: C_39  and  C_40
REMARK    9  A    between atoms: C_43  and  C_44
REMARK   10  A    between atoms: C_45  and  C_46
REMARK                            x       y       z     vdW  Elec       q    Type
REMARK                         _______ _______ _______ _____ _____    ______ ____
ROOT
ATOM      1  O   UNL     1      -3.450  12.728   5.620  0.00  0.00    +0.000 OA
ATOM      2  O   UNL     1      -4.971  10.379   6.301  0.00  0.00    +0.000 OA
ATOM      3  O   UNL     1      -1.616  13.558   8.074  0.00  0.00    +0.000 OA
ATOM      4  O   UNL     1      -5.630   9.508  10.271  0.00  0.00    +0.000 OA
ATOM      5  O   UNL     1      -7.978   6.990   4.867  0.00  0.00    +0.000 OA
ATOM      6  C   UNL     1      -4.549  11.356   7.243  0.00  0.00    +0.000 C 
ATOM      7  C   UNL     1      -5.312  12.720   7.085  0.00  0.00    +0.000 C 
ATOM      8  C   UNL     1      -3.167  12.002   6.826  0.00  0.00    +0.000 C 
ATOM      9  C   UNL     1      -4.794  13.226   5.735  0.00  0.00    +0.000 C 
ATOM     10  C   UNL     1      -5.004  13.519   8.273  0.00  0.00    +0.000 C 
ATOM     11  C   UNL     1      -3.823  13.188   9.052  0.00  0.00    +0.000 C 
ATOM     12  C   UNL     1      -4.509  10.852   8.696  0.00  0.00    +0.000 C 
ATOM     13  C   UNL     1      -2.694  12.991   8.001  0.00  0.00    +0.000 C 
ATOM     14  C   UNL     1      -4.060  11.873   9.588  0.00  0.00    +0.000 C 
ATOM     15  C   UNL     1      -4.743  14.760   5.675  0.00  0.00    +0.000 C 
ATOM     16  C   UNL     1      -5.660  12.670   4.594  0.00  0.00    +0.000 C 
ATOM     17  C   UNL     1      -5.423   9.783   9.097  0.00  0.00    +0.000 C 
ATOM     18  C   UNL     1      -5.851   9.403   6.683  0.00  0.00    +0.000 A 
ATOM     19  C   UNL     1      -6.114   9.065   8.018  0.00  0.00    +0.000 A 
ATOM     20  C   UNL     1      -6.477   8.688   5.639  0.00  0.00    +0.000 A 
ATOM     21  C   UNL     1      -7.020   8.038   8.328  0.00  0.00    +0.000 A 
ATOM     22  C   UNL     1      -7.378   7.659   5.936  0.00  0.00    +0.000 A 
ATOM     23  C   UNL     1      -7.644   7.347   7.293  0.00  0.00    +0.000 A 
ATOM     24  C   UNL     1      -8.567   6.285   7.464  0.00  0.00    +0.000 C 
ATOM     25  C   UNL     1      -8.884   5.842   5.113  0.00  0.00    +0.000 C 
ATOM     26  C   UNL     1      -9.055   5.684   6.558  0.00  0.00    +0.000 C 
ATOM     27  C   UNL     1      -8.217   4.603   4.466  0.00  0.00    +0.000 C 
ENDROOT
BRANCH  21  28
ATOM     28  O   UNL     1      -7.321   7.678   9.615  0.00  0.00    +0.000 OA
ATOM     29  H   UNL     1      -7.439   8.484  10.168  0.00  0.00    +0.000 HD
ENDBRANCH  21  28
BRANCH   8  30
ATOM     30  C   UNL     1      -2.135  10.992   6.556  0.00  0.00    +0.000 C 
ATOM     31  C   UNL     1      -1.046   9.931   6.328  0.00  0.00    +0.000 C 
BRANCH  31  32
ATOM     32  C   UNL     1      -0.100   9.048   6.184  0.00  0.00    +0.000 C 
ATOM     33  C   UNL     1       0.407   8.883   4.763  0.00  0.00    +0.000 C 
BRANCH  32  35
ATOM     34  O   UNL     1       0.671   8.782   8.457  0.00  0.00    +0.000 OA
ATOM     35  C   UNL     1       0.416   8.300   7.363  0.00  0.00    +0.000 C 
BRANCH  35  36
ATOM     36  O   UNL     1       0.599   6.980   7.147  0.00  0.00    +0.000 OA
ATOM     37  H   UNL     1       1.219   6.927   6.390  0.00  0.00    +0.000 HD
ENDBRANCH  35  36
ENDBRANCH  32  35
ENDBRANCH  31  32
ENDBRANCH   8  30
BRANCH  20  38
ATOM     38  C   UNL     1      -6.193   9.020   4.273  0.00  0.00    +0.000 C 
ATOM     39  C   UNL     1      -5.870   9.350   2.808  0.00  0.00    +0.000 C 
BRANCH  39  40
ATOM     40  C   UNL     1      -5.590   9.609   1.569  0.00  0.00    +0.000 C 
ATOM     41  C   UNL     1      -5.474   8.480   0.589  0.00  0.00    +0.000 C 
ATOM     42  C   UNL     1      -5.627  11.024   1.078  0.00  0.00    +0.000 C 
ENDBRANCH  39  40
ENDBRANCH  20  38
BRANCH  25  43
ATOM     43  C   UNL     1     -10.162   6.152   4.444  0.00  0.00    +0.000 C 
BRANCH  43  44
ATOM     44  C   UNL     1     -11.491   6.481   3.753  0.00  0.00    +0.000 C 
ATOM     45  C   UNL     1     -12.822   6.812   3.063  0.00  0.00    +0.000 C 
BRANCH  45  46
ATOM     46  C   UNL     1     -13.949   7.088   2.486  0.00  0.00    +0.000 C 
ATOM     47  C   UNL     1     -14.887   8.066   3.125  0.00  0.00    +0.000 C 
ATOM     48  C   UNL     1     -14.390   6.305   1.288  0.00  0.00    +0.000 C 
ENDBRANCH  45  46
ENDBRANCH  43  44
ENDBRANCH  25  43
TORSDOF 10
ENDMDL
MODEL 2
REMARK VINA RESULT:      -5.7      4.339      9.903
REMARK  Name = 9852185_GambogicAcid.pdbqt.pdb
REMARK  10 active torsions:
REMARK  status: ('A' for Active; 'I' for Inactive)
REMARK    1  A    between atoms: C_8  and  C_30
REMARK    2  A    between atoms: C_20  and  C_38
REMARK    3  A    between atoms: C_21  and  O_28
REMARK    4  A    between atoms: C_25  and  C_43
REMARK    5  A    between atoms: C_31  and  C_32
REMARK    6  A    between atoms: C_32  and  C_35
REMARK    7  A    between atoms: C_35  and  O_36
REMARK    8  A    between atoms: C_39  and  C_40
REMARK    9  A    between atoms: C_43  and  C_44
REMARK   10  A    between atoms: C_45  and  C_46
REMARK                            x       y       z     vdW  Elec       q    Type
REMARK                         _______ _______ _______ _____ _____    ______ ____
ROOT
ATOM      1  O   UNL     1     -14.940  10.742   4.737  0.00  0.00    +0.000 OA
ATOM      2  O   UNL     1     -12.435   9.348   5.014  0.00  0.00    +0.000 OA
ATOM      3  O   UNL     1     -17.165   9.287   6.472  0.00  0.00    +0.000 OA
ATOM      4  O   UNL     1     -12.465   5.394   6.163  0.00  0.00    +0.000 OA
ATOM      5  O   UNL     1      -7.784   9.223   4.045  0.00  0.00    +0.000 OA
ATOM      6  C   UNL     1     -13.708   8.723   5.103  0.00  0.00    +0.000 C 
ATOM      7  C   UNL     1     -14.451   8.659   3.720  0.00  0.00    +0.000 C 
ATOM      8  C   UNL     1     -14.790   9.701   5.715  0.00  0.00    +0.000 C 
ATOM      9  C   UNL     1     -14.755  10.136   3.447  0.00  0.00    +0.000 C 
ATOM     10  C   UNL     1     -15.587   7.752   3.889  0.00  0.00    +0.000 C 
ATOM     11  C   UNL     1     -16.077   7.487   5.231  0.00  0.00    +0.000 C 
ATOM     12  C   UNL     1     -13.697   7.375   5.845  0.00  0.00    +0.000 C 
ATOM     13  C   UNL     1     -16.160   8.885   5.908  0.00  0.00    +0.000 C 
ATOM     14  C   UNL     1     -15.007   6.811   5.916  0.00  0.00    +0.000 C 
ATOM     15  C   UNL     1     -16.050  10.319   2.642  0.00  0.00    +0.000 C 
ATOM     16  C   UNL     1     -13.571  10.795   2.722  0.00  0.00    +0.000 C 
ATOM     17  C   UNL     1     -12.477   6.570   5.823  0.00  0.00    +0.000 C 
ATOM     18  C   UNL     1     -11.304   8.579   4.964  0.00  0.00    +0.000 A 
ATOM     19  C   UNL     1     -11.257   7.230   5.342  0.00  0.00    +0.000 A 
ATOM     20  C   UNL     1     -10.126   9.235   4.542  0.00  0.00    +0.000 A 
ATOM     21  C   UNL     1     -10.051   6.513   5.277  0.00  0.00    +0.000 A 
ATOM     22  C   UNL     1      -8.918   8.531   4.479  0.00  0.00    +0.000 A 
ATOM     23  C   UNL     1      -8.897   7.162   4.847  0.00  0.00    +0.000 A 
ATOM     24  C   UNL     1      -7.616   6.564   4.745  0.00  0.00    +0.000 C 
ATOM     25  C   UNL     1      -6.460   8.556   4.026  0.00  0.00    +0.000 C 
ATOM     26  C   UNL     1      -6.637   7.155   4.412  0.00  0.00    +0.000 C 
ATOM     27  C   UNL     1      -5.559   9.327   5.023  0.00  0.00    +0.000 C 
ENDROOT
BRANCH  21  28
ATOM     28  O   UNL     1      -9.955   5.191   5.622  0.00  0.00    +0.000 OA
ATOM     29  H   UNL     1      -9.830   5.108   6.594  0.00  0.00    +0.000 HD
ENDBRANCH  21  28
BRANCH   8  30
ATOM     30  C   UNL     1     -14.357  10.288   6.991  0.00  0.00    +0.000 C 
ATOM     31  C   UNL     1     -13.874  10.939   8.296  0.00  0.00    +0.000 C 
BRANCH  31  32
ATOM     32  C   UNL     1     -13.418  11.509   9.376  0.00  0.00    +0.000 C 
ATOM     33  C   UNL     1     -12.130  12.288   9.189  0.00  0.00    +0.000 C 
BRANCH  32  35
ATOM     34  O   UNL     1     -15.181  11.985  10.956  0.00  0.00    +0.000 OA
ATOM     35  C   UNL     1     -14.159  11.385  10.661  0.00  0.00    +0.000 C 
BRANCH  35  36
ATOM     36  O   UNL     1     -13.608  10.518  11.537  0.00  0.00    +0.000 OA
ATOM     37  H   UNL     1     -13.494  11.029  12.366  0.00  0.00    +0.000 HD
ENDBRANCH  35  36
ENDBRANCH  32  35
ENDBRANCH  31  32
ENDBRANCH   8  30
BRANCH  20  38
ATOM     38  C   UNL     1     -10.170  10.620   4.175  0.00  0.00    +0.000 C 
ATOM     39  C   UNL     1     -10.201  12.111   3.807  0.00  0.00    +0.000 C 
BRANCH  39  40
ATOM     40  C   UNL     1     -10.212  13.374   3.512  0.00  0.00    +0.000 C 
ATOM     41  C   UNL     1      -9.081  13.953   2.716  0.00  0.00    +0.000 C 
ATOM     42  C   UNL     1     -11.452  14.181   3.748  0.00  0.00    +0.000 C 
ENDBRANCH  39  40
ENDBRANCH  20  38
BRANCH  25  43
ATOM     43  C   UNL     1      -5.936   8.680   2.652  0.00  0.00    +0.000 C 
BRANCH  43  44
ATOM     44  C   UNL     1      -5.385   8.813   1.227  0.00  0.00    +0.000 C 
ATOM     45  C   UNL     1      -4.834   8.944  -0.200  0.00  0.00    +0.000 C 
BRANCH  45  46
ATOM     46  C   UNL     1      -4.362   9.052  -1.402  0.00  0.00    +0.000 C 
ATOM     47  C   UNL     1      -4.474   7.896  -2.348  0.00  0.00    +0.000 C 
ATOM     48  C   UNL     1      -3.553  10.253  -1.785  0.00  0.00    +0.000 C 
ENDBRANCH  45  46
ENDBRANCH  43  44
ENDBRANCH  25  43
TORSDOF 10
ENDMDL
MODEL 3
REMARK VINA RESULT:      -5.6     20.240     25.364
REMARK  Name = 9852185_GambogicAcid.pdbqt.pdb
REMARK  10 active torsions:
REMARK  status: ('A' for Active; 'I' for Inactive)
REMARK    1  A    between atoms: C_8  and  C_30
REMARK    2  A    between atoms: C_20  and  C_38
REMARK    3  A    between atoms: C_21  and  O_28
REMARK    4  A    between atoms: C_25  and  C_43
REMARK    5  A    between atoms: C_31  and  C_32
REMARK    6  A    between atoms: C_32  and  C_35
REMARK    7  A    between atoms: C_35  and  O_36
REMARK    8  A    between atoms: C_39  and  C_40
REMARK    9  A    between atoms: C_43  and  C_44
REMARK   10  A    between atoms: C_45  and  C_46
REMARK                            x       y       z     vdW  Elec       q    Type
REMARK                         _______ _______ _______ _____ _____    ______ ____
ROOT
ATOM      1  O   UNL     1       4.475 -10.702  13.580  0.00  0.00    +0.000 OA
ATOM      2  O   UNL     1       7.171 -10.147  12.732  0.00  0.00    +0.000 OA
ATOM      3  O   UNL     1       4.390 -13.486  15.101  0.00  0.00    +0.000 OA
ATOM      4  O   UNL     1       9.810 -13.277  12.287  0.00  0.00    +0.000 OA
ATOM      5  O   UNL     1      10.202  -7.069  10.750  0.00  0.00    +0.000 OA
ATOM      6  C   UNL     1       6.633 -11.455  12.869  0.00  0.00    +0.000 C 
ATOM      7  C   UNL     1       5.558 -11.786  11.772  0.00  0.00    +0.000 C 
ATOM      8  C   UNL     1       5.565 -11.521  14.033  0.00  0.00    +0.000 C 
ATOM      9  C   UNL     1       4.408 -10.845  12.151  0.00  0.00    +0.000 C 
ATOM     10  C   UNL     1       5.307 -13.226  11.844  0.00  0.00    +0.000 C 
ATOM     11  C   UNL     1       5.655 -13.937  13.062  0.00  0.00    +0.000 C 
ATOM     12  C   UNL     1       7.693 -12.558  13.026  0.00  0.00    +0.000 C 
ATOM     13  C   UNL     1       5.104 -13.049  14.214  0.00  0.00    +0.000 C 
ATOM     14  C   UNL     1       7.087 -13.843  13.178  0.00  0.00    +0.000 C 
ATOM     15  C   UNL     1       3.037 -11.436  11.793  0.00  0.00    +0.000 C 
ATOM     16  C   UNL     1       4.600  -9.478  11.476  0.00  0.00    +0.000 C 
ATOM     17  C   UNL     1       9.011 -12.361  12.426  0.00  0.00    +0.000 C 
ATOM     18  C   UNL     1       8.393  -9.975  12.140  0.00  0.00    +0.000 A 
ATOM     19  C   UNL     1       9.329 -11.004  11.962  0.00  0.00    +0.000 A 
ATOM     20  C   UNL     1       8.708  -8.658  11.737  0.00  0.00    +0.000 A 
ATOM     21  C   UNL     1      10.570 -10.742  11.358  0.00  0.00    +0.000 A 
ATOM     22  C   UNL     1       9.943  -8.386  11.140  0.00  0.00    +0.000 A 
ATOM     23  C   UNL     1      10.867  -9.444  10.952  0.00  0.00    +0.000 A 
ATOM     24  C   UNL     1      12.082  -9.041  10.343  0.00  0.00    +0.000 C 
ATOM     25  C   UNL     1      11.519  -6.699  10.180  0.00  0.00    +0.000 C 
ATOM     26  C   UNL     1      12.325  -7.913  10.042  0.00  0.00    +0.000 C 
ATOM     27  C   UNL     1      12.159  -5.684  11.159  0.00  0.00    +0.000 C 
ENDROOT
BRANCH  21  28
ATOM     28  O   UNL     1      11.513 -11.713  11.150  0.00  0.00    +0.000 OA
ATOM     29  H   UNL     1      12.383 -11.414  11.497  0.00  0.00    +0.000 HD
ENDBRANCH  21  28
BRANCH   8  30
ATOM     30  C   UNL     1       6.083 -10.986  15.300  0.00  0.00    +0.000 C 
ATOM     31  C   UNL     1       6.614 -10.376  16.607  0.00  0.00    +0.000 C 
BRANCH  31  32
ATOM     32  C   UNL     1       7.076  -9.812  17.686  0.00  0.00    +0.000 C 
ATOM     33  C   UNL     1       6.466 -10.317  18.981  0.00  0.00    +0.000 C 
BRANCH  32  35
ATOM     34  O   UNL     1       9.208  -8.789  18.177  0.00  0.00    +0.000 OA
ATOM     35  C   UNL     1       8.133  -8.769  17.595  0.00  0.00    +0.000 C 
BRANCH  35  36
ATOM     36  O   UNL     1       7.826  -7.735  16.783  0.00  0.00    +0.000 OA
ATOM     37  H   UNL     1       8.487  -7.042  16.988  0.00  0.00    +0.000 HD
ENDBRANCH  35  36
ENDBRANCH  32  35
ENDBRANCH  31  32
ENDBRANCH   8  30
BRANCH  20  38
ATOM     38  C   UNL     1       7.759  -7.602  11.937  0.00  0.00    +0.000 C 
ATOM     39  C   UNL     1       6.719  -6.490  12.141  0.00  0.00    +0.000 C 
BRANCH  39  40
ATOM     40  C   UNL     1       5.827  -5.565  12.312  0.00  0.00    +0.000 C 
ATOM     41  C   UNL     1       4.976  -5.582  13.546  0.00  0.00    +0.000 C 
ATOM     42  C   UNL     1       5.818  -4.366  11.413  0.00  0.00    +0.000 C 
ENDBRANCH  39  40
ENDBRANCH  20  38
BRANCH  25  43
ATOM     43  C   UNL     1      11.260  -6.067   8.873  0.00  0.00    +0.000 C 
BRANCH  43  44
ATOM     44  C   UNL     1      10.993  -5.402   7.517  0.00  0.00    +0.000 C 
ATOM     45  C   UNL     1      10.727  -4.734   6.159  0.00  0.00    +0.000 C 
BRANCH  45  46
ATOM     46  C   UNL     1      10.499  -4.165   5.017  0.00  0.00    +0.000 C 
ATOM     47  C   UNL     1       9.950  -2.772   4.982  0.00  0.00    +0.000 C 
ATOM     48  C   UNL     1      10.612  -4.955   3.751  0.00  0.00    +0.000 C 
ENDBRANCH  45  46
ENDBRANCH  43  44
ENDBRANCH  25  43
TORSDOF 10
ENDMDL
MODEL 4
REMARK VINA RESULT:      -5.6     27.909     31.778
REMARK  Name = 9852185_GambogicAcid.pdbqt.pdb
REMARK  10 active torsions:
REMARK  status: ('A' for Active; 'I' for Inactive)
REMARK    1  A    between atoms: C_8  and  C_30
REMARK    2  A    between atoms: C_20  and  C_38
REMARK    3  A    between atoms: C_21  and  O_28
REMARK    4  A    between atoms: C_25  and  C_43
REMARK    5  A    between atoms: C_31  and  C_32
REMARK    6  A    between atoms: C_32  and  C_35
REMARK    7  A    between atoms: C_35  and  O_36
REMARK    8  A    between atoms: C_39  and  C_40
REMARK    9  A    between atoms: C_43  and  C_44
REMARK   10  A    between atoms: C_45  and  C_46
REMARK                            x       y       z     vdW  Elec       q    Type
REMARK                         _______ _______ _______ _____ _____    ______ ____
ROOT
ATOM      1  O   UNL     1      -6.164 -18.789  21.602  0.00  0.00    +0.000 OA
ATOM      2  O   UNL     1      -3.827 -17.269  20.880  0.00  0.00    +0.000 OA
ATOM      3  O   UNL     1      -7.877 -19.408  19.002  0.00  0.00    +0.000 OA
ATOM      4  O   UNL     1      -3.857 -15.101  17.379  0.00  0.00    +0.000 OA
ATOM      5  O   UNL     1       0.280 -15.320  22.267  0.00  0.00    +0.000 OA
ATOM      6  C   UNL     1      -5.063 -17.209  20.181  0.00  0.00    +0.000 C 
ATOM      7  C   UNL     1      -6.193 -16.496  21.007  0.00  0.00    +0.000 C 
ATOM      8  C   UNL     1      -5.817 -18.598  20.221  0.00  0.00    +0.000 C 
ATOM      9  C   UNL     1      -6.434 -17.487  22.150  0.00  0.00    +0.000 C 
ATOM     10  C   UNL     1      -7.300 -16.243  20.084  0.00  0.00    +0.000 C 
ATOM     11  C   UNL     1      -7.381 -17.021  18.860  0.00  0.00    +0.000 C 
ATOM     12  C   UNL     1      -4.947 -16.683  18.740  0.00  0.00    +0.000 C 
ATOM     13  C   UNL     1      -7.130 -18.490  19.303  0.00  0.00    +0.000 C 
ATOM     14  C   UNL     1      -6.218 -16.666  18.089  0.00  0.00    +0.000 C 
ATOM     15  C   UNL     1      -7.890 -17.465  22.636  0.00  0.00    +0.000 C 
ATOM     16  C   UNL     1      -5.472 -17.198  23.314  0.00  0.00    +0.000 C 
ATOM     17  C   UNL     1      -3.868 -15.752  18.415  0.00  0.00    +0.000 C 
ATOM     18  C   UNL     1      -2.837 -16.370  20.585  0.00  0.00    +0.000 A 
ATOM     19  C   UNL     1      -2.798 -15.607  19.410  0.00  0.00    +0.000 A 
ATOM     20  C   UNL     1      -1.790 -16.270  21.527  0.00  0.00    +0.000 A 
ATOM     21  C   UNL     1      -1.736 -14.717  19.174  0.00  0.00    +0.000 A 
ATOM     22  C   UNL     1      -0.726 -15.390  21.299  0.00  0.00    +0.000 A 
ATOM     23  C   UNL     1      -0.715 -14.613  20.114  0.00  0.00    +0.000 A 
ATOM     24  C   UNL     1       0.416 -13.768  19.996  0.00  0.00    +0.000 C 
ATOM     25  C   UNL     1       1.471 -14.465  22.051  0.00  0.00    +0.000 C 
ATOM     26  C   UNL     1       1.297 -13.729  20.798  0.00  0.00    +0.000 C 
ATOM     27  C   UNL     1       2.697 -15.411  22.005  0.00  0.00    +0.000 C 
ENDROOT
BRANCH  21  28
ATOM     28  O   UNL     1      -1.657 -13.939  18.049  0.00  0.00    +0.000 OA
ATOM     29  H   UNL     1      -2.242 -13.154  18.145  0.00  0.00    +0.000 HD
ENDBRANCH  21  28
BRANCH   8  30
ATOM     30  C   UNL     1      -4.967 -19.711  19.774  0.00  0.00    +0.000 C 
ATOM     31  C   UNL     1      -4.037 -20.854  19.338  0.00  0.00    +0.000 C 
BRANCH  31  32
ATOM     32  C   UNL     1      -3.205 -21.790  18.980  0.00  0.00    +0.000 C 
ATOM     33  C   UNL     1      -3.706 -23.206  19.195  0.00  0.00    +0.000 C 
BRANCH  32  35
ATOM     34  O   UNL     1      -1.204 -22.158  17.679  0.00  0.00    +0.000 OA
ATOM     35  C   UNL     1      -1.884 -21.436  18.393  0.00  0.00    +0.000 C 
BRANCH  35  36
ATOM     36  O   UNL     1      -1.450 -20.197  18.709  0.00  0.00    +0.000 OA
ATOM     37  H   UNL     1      -0.625 -20.337  19.220  0.00  0.00    +0.000 HD
ENDBRANCH  35  36
ENDBRANCH  32  35
ENDBRANCH  31  32
ENDBRANCH   8  30
BRANCH  20  38
ATOM     38  C   UNL     1      -1.820 -17.066  22.720  0.00  0.00    +0.000 C 
ATOM     39  C   UNL     1      -1.863 -17.893  24.013  0.00  0.00    +0.000 C 
BRANCH  39  40
ATOM     40  C   UNL     1      -1.909 -18.577  25.114  0.00  0.00    +0.000 C 
ATOM     41  C   UNL     1      -3.017 -19.565  25.319  0.00  0.00    +0.000 C 
ATOM     42  C   UNL     1      -0.740 -18.557  26.050  0.00  0.00    +0.000 C 
ENDBRANCH  39  40
ENDBRANCH  20  38
BRANCH  25  43
ATOM     43  C   UNL     1       1.562 -13.555  23.209  0.00  0.00    +0.000 C 
BRANCH  43  44
ATOM     44  C   UNL     1       1.657 -12.615  24.417  0.00  0.00    +0.000 C 
ATOM     45  C   UNL     1       1.750 -11.675  25.628  0.00  0.00    +0.000 C 
BRANCH  45  46
ATOM     46  C   UNL     1       1.823 -10.877  26.647  0.00  0.00    +0.000 C 
ATOM     47  C   UNL     1       3.155 -10.332  27.065  0.00  0.00    +0.000 C 
ATOM     48  C   UNL     1       0.619 -10.644  27.505  0.00  0.00    +0.000 C 
ENDBRANCH  45  46
ENDBRANCH  43  44
ENDBRANCH  25  43
TORSDOF 10
ENDMDL
MODEL 5
REMARK VINA RESULT:      -5.5     24.605     28.552
REMARK  Name = 9852185_GambogicAcid.pdbqt.pdb
REMARK  10 active torsions:
REMARK  status: ('A' for Active; 'I' for Inactive)
REMARK    1  A    between atoms: C_8  and  C_30
REMARK    2  A    between atoms: C_20  and  C_38
REMARK    3  A    between atoms: C_21  and  O_28
REMARK    4  A    between atoms: C_25  and  C_43
REMARK    5  A    between atoms: C_31  and  C_32
REMARK    6  A    between atoms: C_32  and  C_35
REMARK    7  A    between atoms: C_35  and  O_36
REMARK    8  A    between atoms: C_39  and  C_40
REMARK    9  A    between atoms: C_43  and  C_44
REMARK   10  A    between atoms: C_45  and  C_46
REMARK                            x       y       z     vdW  Elec       q    Type
REMARK                         _______ _______ _______ _____ _____    ______ ____
ROOT
ATOM      1  O   UNL     1       5.327 -10.950  14.218  0.00  0.00    +0.000 OA
ATOM      2  O   UNL     1       6.151 -13.644  13.617  0.00  0.00    +0.000 OA
ATOM      3  O   UNL     1       3.396 -10.964  16.737  0.00  0.00    +0.000 OA
ATOM      4  O   UNL     1       3.822 -16.781  14.916  0.00  0.00    +0.000 OA
ATOM      5  O   UNL     1       8.878 -16.514  10.990  0.00  0.00    +0.000 OA
ATOM      6  C   UNL     1       4.904 -13.305  14.210  0.00  0.00    +0.000 C 
ATOM      7  C   UNL     1       3.934 -12.580  13.211  0.00  0.00    +0.000 C 
ATOM      8  C   UNL     1       5.030 -12.022  15.126  0.00  0.00    +0.000 C 
ATOM      9  C   UNL     1       4.640 -11.239  12.988  0.00  0.00    +0.000 C 
ATOM     10  C   UNL     1       2.614 -12.555  13.843  0.00  0.00    +0.000 C 
ATOM     11  C   UNL     1       2.525 -12.722  15.283  0.00  0.00    +0.000 C 
ATOM     12  C   UNL     1       4.234 -14.464  14.969  0.00  0.00    +0.000 C 
ATOM     13  C   UNL     1       3.622 -11.785  15.862  0.00  0.00    +0.000 C 
ATOM     14  C   UNL     1       2.998 -14.054  15.556  0.00  0.00    +0.000 C 
ATOM     15  C   UNL     1       3.646 -10.101  12.716  0.00  0.00    +0.000 C 
ATOM     16  C   UNL     1       5.652 -11.358  11.837  0.00  0.00    +0.000 C 
ATOM     17  C   UNL     1       4.501 -15.835  14.539  0.00  0.00    +0.000 C 
ATOM     18  C   UNL     1       6.374 -14.925  13.192  0.00  0.00    +0.000 A 
ATOM     19  C   UNL     1       5.613 -16.029  13.600  0.00  0.00    +0.000 A 
ATOM     20  C   UNL     1       7.473 -15.108  12.324  0.00  0.00    +0.000 A 
ATOM     21  C   UNL     1       5.917 -17.318  13.130  0.00  0.00    +0.000 A 
ATOM     22  C   UNL     1       7.788 -16.388  11.854  0.00  0.00    +0.000 A 
ATOM     23  C   UNL     1       6.994 -17.488  12.264  0.00  0.00    +0.000 A 
ATOM     24  C   UNL     1       7.416 -18.729  11.726  0.00  0.00    +0.000 C 
ATOM     25  C   UNL     1       9.310 -17.851  10.515  0.00  0.00    +0.000 C 
ATOM     26  C   UNL     1       8.368 -18.851  11.018  0.00  0.00    +0.000 C 
ATOM     27  C   UNL     1      10.743 -18.075  11.059  0.00  0.00    +0.000 C 
ENDROOT
BRANCH  21  28
ATOM     28  O   UNL     1       5.198 -18.426  13.489  0.00  0.00    +0.000 OA
ATOM     29  H   UNL     1       5.810 -19.164  13.711  0.00  0.00    +0.000 HD
ENDBRANCH  21  28
BRANCH   8  30
ATOM     30  C   UNL     1       6.113 -12.140  16.112  0.00  0.00    +0.000 C 
ATOM     31  C   UNL     1       7.277 -12.234  17.110  0.00  0.00    +0.000 C 
BRANCH  31  32
ATOM     32  C   UNL     1       8.301 -12.304  17.914  0.00  0.00    +0.000 C 
ATOM     33  C   UNL     1       7.981 -12.054  19.376  0.00  0.00    +0.000 C 
BRANCH  32  35
ATOM     34  O   UNL     1      10.038 -12.421  16.240  0.00  0.00    +0.000 OA
ATOM     35  C   UNL     1       9.653 -12.626  17.382  0.00  0.00    +0.000 C 
BRANCH  35  36
ATOM     36  O   UNL     1      10.484 -13.190  18.284  0.00  0.00    +0.000 OA
ATOM     37  H   UNL     1      11.381 -12.884  18.032  0.00  0.00    +0.000 HD
ENDBRANCH  35  36
ENDBRANCH  32  35
ENDBRANCH  31  32
ENDBRANCH   8  30
BRANCH  20  38
ATOM     38  C   UNL     1       8.264 -13.981  11.922  0.00  0.00    +0.000 C 
ATOM     39  C   UNL     1       9.113 -12.766  11.521  0.00  0.00    +0.000 C 
BRANCH  39  40
ATOM     40  C   UNL     1       9.834 -11.736  11.203  0.00  0.00    +0.000 C 
ATOM     41  C   UNL     1       9.157 -10.475  10.757  0.00  0.00    +0.000 C 
ATOM     42  C   UNL     1      11.299 -11.730  11.514  0.00  0.00    +0.000 C 
ENDBRANCH  39  40
ENDBRANCH  20  38
BRANCH  25  43
ATOM     43  C   UNL     1       9.317 -17.802   9.041  0.00  0.00    +0.000 C 
BRANCH  43  44
ATOM     44  C   UNL     1       9.320 -17.759   7.508  0.00  0.00    +0.000 C 
ATOM     45  C   UNL     1       9.325 -17.715   5.973  0.00  0.00    +0.000 C 
BRANCH  45  46
ATOM     46  C   UNL     1       9.328 -17.670   4.677  0.00  0.00    +0.000 C 
ATOM     47  C   UNL     1       8.036 -17.798   3.930  0.00  0.00    +0.000 C 
ATOM     48  C   UNL     1      10.625 -17.670   3.931  0.00  0.00    +0.000 C 
ENDBRANCH  45  46
ENDBRANCH  43  44
ENDBRANCH  25  43
TORSDOF 10
ENDMDL
MODEL 6
REMARK VINA RESULT:      -5.4     24.928     28.864
REMARK  Name = 9852185_GambogicAcid.pdbqt.pdb
REMARK  10 active torsions:
REMARK  status: ('A' for Active; 'I' for Inactive)
REMARK    1  A    between atoms: C_8  and  C_30
REMARK    2  A    between atoms: C_20  and  C_38
REMARK    3  A    between atoms: C_21  and  O_28
REMARK    4  A    between atoms: C_25  and  C_43
REMARK    5  A    between atoms: C_31  and  C_32
REMARK    6  A    between atoms: C_32  and  C_35
REMARK    7  A    between atoms: C_35  and  O_36
REMARK    8  A    between atoms: C_39  and  C_40
REMARK    9  A    between atoms: C_43  and  C_44
REMARK   10  A    between atoms: C_45  and  C_46
REMARK                            x       y       z     vdW  Elec       q    Type
REMARK                         _______ _______ _______ _____ _____    ______ ____
ROOT
ATOM      1  O   UNL     1       2.251 -15.547  20.830  0.00  0.00    +0.000 OA
ATOM      2  O   UNL     1       2.392 -14.387  18.197  0.00  0.00    +0.000 OA
ATOM      3  O   UNL     1      -0.205 -14.306  22.410  0.00  0.00    +0.000 OA
ATOM      4  O   UNL     1       0.638 -10.721  17.533  0.00  0.00    +0.000 OA
ATOM      5  O   UNL     1       4.474 -14.371  13.925  0.00  0.00    +0.000 OA
ATOM      6  C   UNL     1       1.882 -13.712  19.339  0.00  0.00    +0.000 C 
ATOM      7  C   UNL     1       3.002 -13.345  20.378  0.00  0.00    +0.000 C 
ATOM      8  C   UNL     1       1.186 -14.717  20.341  0.00  0.00    +0.000 C 
ATOM      9  C   UNL     1       3.429 -14.724  20.894  0.00  0.00    +0.000 C 
ATOM     10  C   UNL     1       2.404 -12.417  21.338  0.00  0.00    +0.000 C 
ATOM     11  C   UNL     1       0.957 -12.377  21.465  0.00  0.00    +0.000 C 
ATOM     12  C   UNL     1       0.956 -12.529  19.008  0.00  0.00    +0.000 C 
ATOM     13  C   UNL     1       0.521 -13.868  21.532  0.00  0.00    +0.000 C 
ATOM     14  C   UNL     1       0.463 -11.907  20.196  0.00  0.00    +0.000 C 
ATOM     15  C   UNL     1       3.899 -14.673  22.355  0.00  0.00    +0.000 C 
ATOM     16  C   UNL     1       4.528 -15.309  19.993  0.00  0.00    +0.000 C 
ATOM     17  C   UNL     1       1.152 -11.810  17.751  0.00  0.00    +0.000 C 
ATOM     18  C   UNL     1       2.600 -13.694  17.035  0.00  0.00    +0.000 A 
ATOM     19  C   UNL     1       2.029 -12.444  16.757  0.00  0.00    +0.000 A 
ATOM     20  C   UNL     1       3.409 -14.330  16.068  0.00  0.00    +0.000 A 
ATOM     21  C   UNL     1       2.279 -11.803  15.532  0.00  0.00    +0.000 A 
ATOM     22  C   UNL     1       3.659 -13.703  14.843  0.00  0.00    +0.000 A 
ATOM     23  C   UNL     1       3.088 -12.431  14.590  0.00  0.00    +0.000 A 
ATOM     24  C   UNL     1       3.410 -11.905  13.314  0.00  0.00    +0.000 C 
ATOM     25  C   UNL     1       4.717 -13.796  12.580  0.00  0.00    +0.000 C 
ATOM     26  C   UNL     1       4.073 -12.483  12.510  0.00  0.00    +0.000 C 
ATOM     27  C   UNL     1       4.121 -14.793  11.555  0.00  0.00    +0.000 C 
ENDROOT
BRANCH  21  28
ATOM     28  O   UNL     1       1.756 -10.577  15.217  0.00  0.00    +0.000 OA
ATOM     29  H   UNL     1       2.368  -9.867  15.514  0.00  0.00    +0.000 HD
ENDBRANCH  21  28
BRANCH   8  30
ATOM     30  C   UNL     1       0.177 -15.558  19.682  0.00  0.00    +0.000 C 
ATOM     31  C   UNL     1      -0.918 -16.407  19.016  0.00  0.00    +0.000 C 
BRANCH  31  32
ATOM     32  C   UNL     1      -1.880 -17.113  18.495  0.00  0.00    +0.000 C 
ATOM     33  C   UNL     1      -1.498 -18.533  18.119  0.00  0.00    +0.000 C 
BRANCH  32  35
ATOM     34  O   UNL     1      -3.993 -16.739  17.387  0.00  0.00    +0.000 OA
ATOM     35  C   UNL     1      -3.236 -16.524  18.322  0.00  0.00    +0.000 C 
BRANCH  35  36
ATOM     36  O   UNL     1      -3.608 -15.687  19.314  0.00  0.00    +0.000 OA
ATOM     37  H   UNL     1      -3.820 -14.840  18.869  0.00  0.00    +0.000 HD
ENDBRANCH  35  36
ENDBRANCH  32  35
ENDBRANCH  31  32
ENDBRANCH   8  30
BRANCH  20  38
ATOM     38  C   UNL     1       3.976 -15.618  16.345  0.00  0.00    +0.000 C 
ATOM     39  C   UNL     1       4.567 -16.998  16.668  0.00  0.00    +0.000 C 
BRANCH  39  40
ATOM     40  C   UNL     1       5.052 -18.166  16.956  0.00  0.00    +0.000 C 
ATOM     41  C   UNL     1       4.932 -19.278  15.958  0.00  0.00    +0.000 C 
ATOM     42  C   UNL     1       5.931 -18.330  18.157  0.00  0.00    +0.000 C 
ENDBRANCH  39  40
ENDBRANCH  20  38
BRANCH  25  43
ATOM     43  C   UNL     1       6.179 -13.694  12.415  0.00  0.00    +0.000 C 
BRANCH  43  44
ATOM     44  C   UNL     1       7.699 -13.580  12.244  0.00  0.00    +0.000 C 
ATOM     45  C   UNL     1       9.221 -13.465  12.075  0.00  0.00    +0.000 C 
BRANCH  45  46
ATOM     46  C   UNL     1      10.505 -13.361  11.929  0.00  0.00    +0.000 C 
ATOM     47  C   UNL     1      11.095 -12.059  11.480  0.00  0.00    +0.000 C 
ATOM     48  C   UNL     1      11.373 -14.576  12.035  0.00  0.00    +0.000 C 
ENDBRANCH  45  46
ENDBRANCH  43  44
ENDBRANCH  25  43
TORSDOF 10
ENDMDL
MODEL 7
REMARK VINA RESULT:      -5.4     21.653     27.025
REMARK  Name = 9852185_GambogicAcid.pdbqt.pdb
REMARK  10 active torsions:
REMARK  status: ('A' for Active; 'I' for Inactive)
REMARK    1  A    between atoms: C_8  and  C_30
REMARK    2  A    between atoms: C_20  and  C_38
REMARK    3  A    between atoms: C_21  and  O_28
REMARK    4  A    between atoms: C_25  and  C_43
REMARK    5  A    between atoms: C_31  and  C_32
REMARK    6  A    between atoms: C_32  and  C_35
REMARK    7  A    between atoms: C_35  and  O_36
REMARK    8  A    between atoms: C_39  and  C_40
REMARK    9  A    between atoms: C_43  and  C_44
REMARK   10  A    between atoms: C_45  and  C_46
REMARK                            x       y       z     vdW  Elec       q    Type
REMARK                         _______ _______ _______ _____ _____    ______ ____
ROOT
ATOM      1  O   UNL     1     -16.642 -14.157   3.954  0.00  0.00    +0.000 OA
ATOM      2  O   UNL     1     -15.290 -14.499   6.475  0.00  0.00    +0.000 OA
ATOM      3  O   UNL     1     -19.179 -12.291   4.352  0.00  0.00    +0.000 OA
ATOM      4  O   UNL     1     -17.395 -13.918   9.966  0.00  0.00    +0.000 OA
ATOM      5  O   UNL     1     -11.536 -16.242   8.810  0.00  0.00    +0.000 OA
ATOM      6  C   UNL     1     -16.689 -14.285   6.343  0.00  0.00    +0.000 C 
ATOM      7  C   UNL     1     -17.436 -15.519   5.723  0.00  0.00    +0.000 C 
ATOM      8  C   UNL     1     -17.019 -13.371   5.096  0.00  0.00    +0.000 C 
ATOM      9  C   UNL     1     -16.903 -15.531   4.286  0.00  0.00    +0.000 C 
ATOM     10  C   UNL     1     -18.869 -15.289   5.913  0.00  0.00    +0.000 C 
ATOM     11  C   UNL     1     -19.334 -13.934   6.153  0.00  0.00    +0.000 C 
ATOM     12  C   UNL     1     -17.365 -13.749   7.617  0.00  0.00    +0.000 C 
ATOM     13  C   UNL     1     -18.596 -13.066   5.094  0.00  0.00    +0.000 C 
ATOM     14  C   UNL     1     -18.763 -13.538   7.414  0.00  0.00    +0.000 C 
ATOM     15  C   UNL     1     -17.939 -16.075   3.291  0.00  0.00    +0.000 C 
ATOM     16  C   UNL     1     -15.603 -16.346   4.210  0.00  0.00    +0.000 C 
ATOM     17  C   UNL     1     -16.786 -14.086   8.917  0.00  0.00    +0.000 C 
ATOM     18  C   UNL     1     -14.767 -14.844   7.691  0.00  0.00    +0.000 A 
ATOM     19  C   UNL     1     -15.439 -14.669   8.910  0.00  0.00    +0.000 A 
ATOM     20  C   UNL     1     -13.454 -15.363   7.678  0.00  0.00    +0.000 A 
ATOM     21  C   UNL     1     -14.826 -15.034  10.120  0.00  0.00    +0.000 A 
ATOM     22  C   UNL     1     -12.832 -15.724   8.879  0.00  0.00    +0.000 A 
ATOM     23  C   UNL     1     -13.536 -15.557  10.098  0.00  0.00    +0.000 A 
ATOM     24  C   UNL     1     -12.799 -15.953  11.241  0.00  0.00    +0.000 C 
ATOM     25  C   UNL     1     -10.794 -16.575  10.050  0.00  0.00    +0.000 C 
ATOM     26  C   UNL     1     -11.680 -16.361  11.196  0.00  0.00    +0.000 C 
ATOM     27  C   UNL     1      -9.555 -15.645  10.090  0.00  0.00    +0.000 C 
ENDROOT
BRANCH  21  28
ATOM     28  O   UNL     1     -15.443 -14.895  11.334  0.00  0.00    +0.000 OA
ATOM     29  H   UNL     1     -14.988 -15.453  12.006  0.00  0.00    +0.000 HD
ENDBRANCH  21  28
BRANCH   8  30
ATOM     30  C   UNL     1     -16.252 -12.118   5.101  0.00  0.00    +0.000 C 
ATOM     31  C   UNL     1     -15.489 -10.784   5.136  0.00  0.00    +0.000 C 
BRANCH  31  32
ATOM     32  C   UNL     1     -14.891  -9.627   5.175  0.00  0.00    +0.000 C 
ATOM     33  C   UNL     1     -14.448  -9.093   3.825  0.00  0.00    +0.000 C 
BRANCH  32  35
ATOM     34  O   UNL     1     -13.674  -8.911   7.134  0.00  0.00    +0.000 OA
ATOM     35  C   UNL     1     -14.702  -8.923   6.472  0.00  0.00    +0.000 C 
BRANCH  35  36
ATOM     36  O   UNL     1     -15.792  -8.255   6.906  0.00  0.00    +0.000 OA
ATOM     37  H   UNL     1     -16.067  -7.695   6.150  0.00  0.00    +0.000 HD
ENDBRANCH  35  36
ENDBRANCH  32  35
ENDBRANCH  31  32
ENDBRANCH   8  30
BRANCH  20  38
ATOM     38  C   UNL     1     -12.759 -15.522   6.434  0.00  0.00    +0.000 C 
ATOM     39  C   UNL     1     -12.026 -15.665   5.092  0.00  0.00    +0.000 C 
BRANCH  39  40
ATOM     40  C   UNL     1     -11.410 -15.766   3.955  0.00  0.00    +0.000 C 
ATOM     41  C   UNL     1     -10.717 -14.565   3.386  0.00  0.00    +0.000 C 
ATOM     42  C   UNL     1     -11.186 -17.117   3.348  0.00  0.00    +0.000 C 
ENDBRANCH  39  40
ENDBRANCH  20  38
BRANCH  25  43
ATOM     43  C   UNL     1     -10.380 -17.986   9.938  0.00  0.00    +0.000 C 
BRANCH  43  44
ATOM     44  C   UNL     1      -9.948 -19.454   9.829  0.00  0.00    +0.000 C 
ATOM     45  C   UNL     1      -9.515 -20.923   9.722  0.00  0.00    +0.000 C 
BRANCH  45  46
ATOM     46  C   UNL     1      -9.142 -22.161   9.634  0.00  0.00    +0.000 C 
ATOM     47  C   UNL     1      -9.880 -23.093   8.722  0.00  0.00    +0.000 C 
ATOM     48  C   UNL     1      -8.102 -22.699  10.567  0.00  0.00    +0.000 C 
ENDBRANCH  45  46
ENDBRANCH  43  44
ENDBRANCH  25  43
TORSDOF 10
ENDMDL
MODEL 8
REMARK VINA RESULT:      -5.4     23.944     27.581
REMARK  Name = 9852185_GambogicAcid.pdbqt.pdb
REMARK  10 active torsions:
REMARK  status: ('A' for Active; 'I' for Inactive)
REMARK    1  A    between atoms: C_8  and  C_30
REMARK    2  A    between atoms: C_20  and  C_38
REMARK    3  A    between atoms: C_21  and  O_28
REMARK    4  A    between atoms: C_25  and  C_43
REMARK    5  A    between atoms: C_31  and  C_32
REMARK    6  A    between atoms: C_32  and  C_35
REMARK    7  A    between atoms: C_35  and  O_36
REMARK    8  A    between atoms: C_39  and  C_40
REMARK    9  A    between atoms: C_43  and  C_44
REMARK   10  A    between atoms: C_45  and  C_46
REMARK                            x       y       z     vdW  Elec       q    Type
REMARK                         _______ _______ _______ _____ _____    ______ ____
ROOT
ATOM      1  O   UNL     1      -8.660  -0.806  30.480  0.00  0.00    +0.000 OA
ATOM      2  O   UNL     1      -8.895  -3.078  28.726  0.00  0.00    +0.000 OA
ATOM      3  O   UNL     1      -7.720   1.729  28.817  0.00  0.00    +0.000 OA
ATOM      4  O   UNL     1      -6.787  -3.099  25.189  0.00  0.00    +0.000 OA
ATOM      5  O   UNL     1     -10.189  -7.620  28.195  0.00  0.00    +0.000 OA
ATOM      6  C   UNL     1      -7.977  -2.011  28.529  0.00  0.00    +0.000 C 
ATOM      7  C   UNL     1      -6.819  -2.003  29.590  0.00  0.00    +0.000 C 
ATOM      8  C   UNL     1      -8.563  -0.641  29.057  0.00  0.00    +0.000 C 
ATOM      9  C   UNL     1      -7.564  -1.647  30.881  0.00  0.00    +0.000 C 
ATOM     10  C   UNL     1      -5.808  -1.060  29.108  0.00  0.00    +0.000 C 
ATOM     11  C   UNL     1      -6.197  -0.054  28.135  0.00  0.00    +0.000 C 
ATOM     12  C   UNL     1      -7.471  -1.877  27.083  0.00  0.00    +0.000 C 
ATOM     13  C   UNL     1      -7.532   0.531  28.678  0.00  0.00    +0.000 C 
ATOM     14  C   UNL     1      -6.570  -0.777  26.947  0.00  0.00    +0.000 C 
ATOM     15  C   UNL     1      -6.683  -0.853  31.856  0.00  0.00    +0.000 C 
ATOM     16  C   UNL     1      -8.100  -2.922  31.552  0.00  0.00    +0.000 C 
ATOM     17  C   UNL     1      -7.406  -3.073  26.245  0.00  0.00    +0.000 C 
ATOM     18  C   UNL     1      -8.802  -4.205  27.955  0.00  0.00    +0.000 A 
ATOM     19  C   UNL     1      -8.098  -4.268  26.744  0.00  0.00    +0.000 A 
ATOM     20  C   UNL     1      -9.507  -5.337  28.421  0.00  0.00    +0.000 A 
ATOM     21  C   UNL     1      -8.064  -5.460  26.001  0.00  0.00    +0.000 A 
ATOM     22  C   UNL     1      -9.484  -6.527  27.686  0.00  0.00    +0.000 A 
ATOM     23  C   UNL     1      -8.750  -6.575  26.474  0.00  0.00    +0.000 A 
ATOM     24  C   UNL     1      -8.809  -7.831  25.821  0.00  0.00    +0.000 C 
ATOM     25  C   UNL     1     -10.267  -8.887  27.429  0.00  0.00    +0.000 C 
ATOM     26  C   UNL     1      -9.439  -8.758  26.229  0.00  0.00    +0.000 C 
ATOM     27  C   UNL     1     -11.761  -9.109  27.084  0.00  0.00    +0.000 C 
ENDROOT
BRANCH  21  28
ATOM     28  O   UNL     1      -7.381  -5.578  24.820  0.00  0.00    +0.000 OA
ATOM     29  H   UNL     1      -7.923  -6.080  24.170  0.00  0.00    +0.000 HD
ENDBRANCH  21  28
BRANCH   8  30
ATOM     30  C   UNL     1      -9.895  -0.352  28.507  0.00  0.00    +0.000 C 
ATOM     31  C   UNL     1     -11.278   0.003  27.940  0.00  0.00    +0.000 C 
BRANCH  31  32
ATOM     32  C   UNL     1     -12.450   0.353  27.489  0.00  0.00    +0.000 C 
ATOM     33  C   UNL     1     -13.203   1.336  28.366  0.00  0.00    +0.000 C 
BRANCH  32  35
ATOM     34  O   UNL     1     -14.112  -0.179  25.821  0.00  0.00    +0.000 OA
ATOM     35  C   UNL     1     -12.950  -0.190  26.197  0.00  0.00    +0.000 C 
BRANCH  35  36
ATOM     36  O   UNL     1     -11.992  -0.727  25.413  0.00  0.00    +0.000 OA
ATOM     37  H   UNL     1     -12.011  -1.688  25.606  0.00  0.00    +0.000 HD
ENDBRANCH  35  36
ENDBRANCH  32  35
ENDBRANCH  31  32
ENDBRANCH   8  30
BRANCH  20  38
ATOM     38  C   UNL     1     -10.244  -5.266  29.649  0.00  0.00    +0.000 C 
ATOM     39  C   UNL     1     -11.042  -5.161  30.957  0.00  0.00    +0.000 C 
BRANCH  39  40
ATOM     40  C   UNL     1     -11.727  -5.056  32.053  0.00  0.00    +0.000 C 
ATOM     41  C   UNL     1     -12.081  -6.295  32.820  0.00  0.00    +0.000 C 
ATOM     42  C   UNL     1     -11.942  -3.707  32.669  0.00  0.00    +0.000 C 
ENDBRANCH  39  40
ENDBRANCH  20  38
BRANCH  25  43
ATOM     43  C   UNL     1      -9.775  -9.957  28.317  0.00  0.00    +0.000 C 
BRANCH  43  44
ATOM     44  C   UNL     1      -9.267 -11.066  29.246  0.00  0.00    +0.000 C 
ATOM     45  C   UNL     1      -8.761 -12.178  30.177  0.00  0.00    +0.000 C 
BRANCH  45  46
ATOM     46  C   UNL     1      -8.337 -13.113  30.969  0.00  0.00    +0.000 C 
ATOM     47  C   UNL     1      -8.919 -14.489  30.865  0.00  0.00    +0.000 C 
ATOM     48  C   UNL     1      -7.407 -12.779  32.093  0.00  0.00    +0.000 C 
ENDBRANCH  45  46
ENDBRANCH  43  44
ENDBRANCH  25  43
TORSDOF 10
ENDMDL
MODEL 9
REMARK VINA RESULT:      -5.3     19.961     25.070
REMARK  Name = 9852185_GambogicAcid.pdbqt.pdb
REMARK  10 active torsions:
REMARK  status: ('A' for Active; 'I' for Inactive)
REMARK    1  A    between atoms: C_8  and  C_30
REMARK    2  A    between atoms: C_20  and  C_38
REMARK    3  A    between atoms: C_21  and  O_28
REMARK    4  A    between atoms: C_25  and  C_43
REMARK    5  A    between atoms: C_31  and  C_32
REMARK    6  A    between atoms: C_32  and  C_35
REMARK    7  A    between atoms: C_35  and  O_36
REMARK    8  A    between atoms: C_39  and  C_40
REMARK    9  A    between atoms: C_43  and  C_44
REMARK   10  A    between atoms: C_45  and  C_46
REMARK                            x       y       z     vdW  Elec       q    Type
REMARK                         _______ _______ _______ _____ _____    ______ ____
ROOT
ATOM      1  O   UNL     1      -9.574 -17.803   1.833  0.00  0.00    +0.000 OA
ATOM      2  O   UNL     1      -9.001 -14.981   1.758  0.00  0.00    +0.000 OA
ATOM      3  O   UNL     1      -7.089 -19.361   3.046  0.00  0.00    +0.000 OA
ATOM      4  O   UNL     1      -5.076 -13.739   1.751  0.00  0.00    +0.000 OA
ATOM      5  O   UNL     1     -10.586 -10.587   0.885  0.00  0.00    +0.000 OA
ATOM      6  C   UNL     1      -8.015 -15.997   1.643  0.00  0.00    +0.000 C 
ATOM      7  C   UNL     1      -8.104 -16.778   0.283  0.00  0.00    +0.000 C 
ATOM      8  C   UNL     1      -8.405 -17.279   2.482  0.00  0.00    +0.000 C 
ATOM      9  C   UNL     1      -9.431 -17.532   0.428  0.00  0.00    +0.000 C 
ATOM     10  C   UNL     1      -6.881 -17.574   0.168  0.00  0.00    +0.000 C 
ATOM     11  C   UNL     1      -6.123 -17.869   1.371  0.00  0.00    +0.000 C 
ATOM     12  C   UNL     1      -6.588 -15.529   1.976  0.00  0.00    +0.000 C 
ATOM     13  C   UNL     1      -7.186 -18.323   2.411  0.00  0.00    +0.000 C 
ATOM     14  C   UNL     1      -5.650 -16.600   1.860  0.00  0.00    +0.000 C 
ATOM     15  C   UNL     1      -9.417 -18.873  -0.319  0.00  0.00    +0.000 C 
ATOM     16  C   UNL     1     -10.594 -16.654  -0.059  0.00  0.00    +0.000 C 
ATOM     17  C   UNL     1      -6.236 -14.128   1.754  0.00  0.00    +0.000 C 
ATOM     18  C   UNL     1      -8.664 -13.677   1.516  0.00  0.00    +0.000 A 
ATOM     19  C   UNL     1      -7.345 -13.200   1.502  0.00  0.00    +0.000 A 
ATOM     20  C   UNL     1      -9.739 -12.783   1.319  0.00  0.00    +0.000 A 
ATOM     21  C   UNL     1      -7.082 -11.841   1.262  0.00  0.00    +0.000 A 
ATOM     22  C   UNL     1      -9.488 -11.427   1.085  0.00  0.00    +0.000 A 
ATOM     23  C   UNL     1      -8.147 -10.969   1.054  0.00  0.00    +0.000 A 
ATOM     24  C   UNL     1      -8.024  -9.577   0.815  0.00  0.00    +0.000 C 
ATOM     25  C   UNL     1     -10.393  -9.128   0.706  0.00  0.00    +0.000 C 
ATOM     26  C   UNL     1      -8.956  -8.847   0.681  0.00  0.00    +0.000 C 
ATOM     27  C   UNL     1     -11.101  -8.435   1.897  0.00  0.00    +0.000 C 
ENDROOT
BRANCH  21  28
ATOM     28  O   UNL     1      -5.813 -11.327   1.225  0.00  0.00    +0.000 OA
ATOM     29  H   UNL     1      -5.251 -11.775   1.897  0.00  0.00    +0.000 HD
ENDBRANCH  21  28
BRANCH   8  30
ATOM     30  C   UNL     1      -8.726 -16.957   3.880  0.00  0.00    +0.000 C 
ATOM     31  C   UNL     1      -9.110 -16.646   5.335  0.00  0.00    +0.000 C 
BRANCH  31  32
ATOM     32  C   UNL     1      -9.490 -16.388   6.554  0.00  0.00    +0.000 C 
ATOM     33  C   UNL     1     -10.524 -15.284   6.679  0.00  0.00    +0.000 C 
BRANCH  32  35
ATOM     34  O   UNL     1      -8.572 -18.329   7.658  0.00  0.00    +0.000 OA
ATOM     35  C   UNL     1      -8.931 -17.161   7.696  0.00  0.00    +0.000 C 
BRANCH  35  36
ATOM     36  O   UNL     1      -8.833 -16.461   8.846  0.00  0.00    +0.000 OA
ATOM     37  H   UNL     1      -9.108 -17.085   9.550  0.00  0.00    +0.000 HD
ENDBRANCH  35  36
ENDBRANCH  32  35
ENDBRANCH  31  32
ENDBRANCH   8  30
BRANCH  20  38
ATOM     38  C   UNL     1     -11.089 -13.268   1.354  0.00  0.00    +0.000 C 
ATOM     39  C   UNL     1     -12.542 -13.764   1.371  0.00  0.00    +0.000 C 
BRANCH  39  40
ATOM     40  C   UNL     1     -13.773 -14.172   1.368  0.00  0.00    +0.000 C 
ATOM     41  C   UNL     1     -14.119 -15.459   0.682  0.00  0.00    +0.000 C 
ATOM     42  C   UNL     1     -14.781 -13.497   2.246  0.00  0.00    +0.000 C 
ENDBRANCH  39  40
ENDBRANCH  20  38
BRANCH  25  43
ATOM     43  C   UNL     1     -11.042  -8.761  -0.567  0.00  0.00    +0.000 C 
BRANCH  43  44
ATOM     44  C   UNL     1     -11.721  -8.374  -1.887  0.00  0.00    +0.000 C 
ATOM     45  C   UNL     1     -12.399  -7.987  -3.209  0.00  0.00    +0.000 C 
BRANCH  45  46
ATOM     46  C   UNL     1     -12.968  -7.654  -4.325  0.00  0.00    +0.000 C 
ATOM     47  C   UNL     1     -13.976  -8.573  -4.944  0.00  0.00    +0.000 C 
ATOM     48  C   UNL     1     -12.491  -6.453  -5.080  0.00  0.00    +0.000 C 
ENDBRANCH  45  46
ENDBRANCH  43  44
ENDBRANCH  25  43
TORSDOF 10
ENDMDL
