MODEL 1
REMARK VINA RESULT:      -5.7      0.000      0.000
REMARK  Name = AFLATOXIN.pdbqt.pdb
REMARK  1 active torsions:
REMARK  status: ('A' for Active; 'I' for Inactive)
REMARK    1  A    between atoms: C_15  and  O_23
REMARK                            x       y       z     vdW  Elec       q    Type
REMARK                         _______ _______ _______ _____ _____    ______ ____
ROOT
ATOM      1  O   UNL     1       3.859  -9.958  11.571  0.00  0.00    +0.000 OA
ATOM      2  O   UNL     1       2.787 -11.431  13.241  0.00  0.00    +0.000 OA
ATOM      3  O   UNL     1       7.829 -12.452  12.010  0.00  0.00    +0.000 OA
ATOM      4  O   UNL     1      12.436 -10.795  11.066  0.00  0.00    +0.000 OA
ATOM      5  O   UNL     1       9.604 -13.836  12.111  0.00  0.00    +0.000 OA
ATOM      6  O   UNL     1      12.072 -12.877  11.833  0.00  0.00    +0.000 OA
ATOM      7  C   UNL     1       4.810 -11.997  12.202  0.00  0.00    +0.000 C 
ATOM      8  C   UNL     1       5.868 -11.129  11.725  0.00  0.00    +0.000 A 
ATOM      9  C   UNL     1       3.550 -11.225  12.076  0.00  0.00    +0.000 C 
ATOM     10  C   UNL     1       5.225  -9.949  11.337  0.00  0.00    +0.000 A 
ATOM     11  C   UNL     1       7.241 -11.246  11.622  0.00  0.00    +0.000 A 
ATOM     12  C   UNL     1       8.007 -10.193  11.124  0.00  0.00    +0.000 A 
ATOM     13  C   UNL     1       4.720 -12.692  13.436  0.00  0.00    +0.000 C 
ATOM     14  C   UNL     1       9.466 -10.396  11.102  0.00  0.00    +0.000 A 
ATOM     15  C   UNL     1       7.322  -9.020  10.697  0.00  0.00    +0.000 A 
ATOM     16  C   UNL     1       5.927  -8.879  10.831  0.00  0.00    +0.000 A 
ATOM     17  C   UNL     1      10.356  -9.364  10.725  0.00  0.00    +0.000 A 
ATOM     18  C   UNL     1      10.054 -11.575  11.460  0.00  0.00    +0.000 A 
ATOM     19  C   UNL     1       3.649 -12.291  13.783  0.00  0.00    +0.000 C 
ATOM     20  C   UNL     1      11.795  -9.696  10.743  0.00  0.00    +0.000 A 
ATOM     21  C   UNL     1       9.188 -12.710  11.878  0.00  0.00    +0.000 A 
ATOM     22  C   UNL     1      11.583 -11.815  11.467  0.00  0.00    +0.000 A 
ENDROOT
BRANCH  15  23
ATOM     23  O   UNL     1       8.016  -7.932  10.214  0.00  0.00    +0.000 OA
ATOM     24  C   UNL     1       7.146  -6.859   9.958  0.00  0.00    +0.000 C 
ENDBRANCH  15  23
TORSDOF 1
ENDMDL
MODEL 2
REMARK VINA RESULT:      -5.7     19.464     22.230
REMARK  Name = AFLATOXIN.pdbqt.pdb
REMARK  1 active torsions:
REMARK  status: ('A' for Active; 'I' for Inactive)
REMARK    1  A    between atoms: C_15  and  O_23
REMARK                            x       y       z     vdW  Elec       q    Type
REMARK                         _______ _______ _______ _____ _____    ______ ____
ROOT
ATOM      1  O   UNL     1      -9.398 -10.983  -0.916  0.00  0.00    +0.000 OA
ATOM      2  O   UNL     1      -8.289 -12.912   0.158  0.00  0.00    +0.000 OA
ATOM      3  O   UNL     1     -10.773  -9.487   3.333  0.00  0.00    +0.000 OA
ATOM      4  O   UNL     1     -14.727  -6.597   4.271  0.00  0.00    +0.000 OA
ATOM      5  O   UNL     1     -11.187  -8.726   5.412  0.00  0.00    +0.000 OA
ATOM      6  O   UNL     1     -13.427  -7.382   5.929  0.00  0.00    +0.000 OA
ATOM      7  C   UNL     1      -9.003 -11.048   1.387  0.00  0.00    +0.000 C 
ATOM      8  C   UNL     1     -10.128 -10.168   1.142  0.00  0.00    +0.000 A 
ATOM      9  C   UNL     1      -8.559 -11.534   0.057  0.00  0.00    +0.000 C 
ATOM     10  C   UNL     1     -10.284 -10.152  -0.248  0.00  0.00    +0.000 A 
ATOM     11  C   UNL     1     -10.984  -9.446   1.952  0.00  0.00    +0.000 A 
ATOM     12  C   UNL     1     -12.013  -8.686   1.398  0.00  0.00    +0.000 A 
ATOM     13  C   UNL     1      -8.922 -12.165   2.258  0.00  0.00    +0.000 C 
ATOM     14  C   UNL     1     -12.903  -7.995   2.347  0.00  0.00    +0.000 A 
ATOM     15  C   UNL     1     -12.122  -8.655  -0.021  0.00  0.00    +0.000 A 
ATOM     16  C   UNL     1     -11.275  -9.414  -0.852  0.00  0.00    +0.000 A 
ATOM     17  C   UNL     1     -14.046  -7.286   1.914  0.00  0.00    +0.000 A 
ATOM     18  C   UNL     1     -12.698  -8.010   3.697  0.00  0.00    +0.000 A 
ATOM     19  C   UNL     1      -8.539 -12.975   1.466  0.00  0.00    +0.000 C 
ATOM     20  C   UNL     1     -14.855  -6.636   2.965  0.00  0.00    +0.000 A 
ATOM     21  C   UNL     1     -11.521  -8.742   4.236  0.00  0.00    +0.000 A 
ATOM     22  C   UNL     1     -13.625  -7.312   4.722  0.00  0.00    +0.000 A 
ENDROOT
BRANCH  15  23
ATOM     23  O   UNL     1     -13.127  -7.941  -0.638  0.00  0.00    +0.000 OA
ATOM     24  C   UNL     1     -13.706  -8.691  -1.675  0.00  0.00    +0.000 C 
ENDBRANCH  15  23
TORSDOF 1
ENDMDL
MODEL 3
REMARK VINA RESULT:      -5.6      2.006      4.906
REMARK  Name = AFLATOXIN.pdbqt.pdb
REMARK  1 active torsions:
REMARK  status: ('A' for Active; 'I' for Inactive)
REMARK    1  A    between atoms: C_15  and  O_23
REMARK                            x       y       z     vdW  Elec       q    Type
REMARK                         _______ _______ _______ _____ _____    ______ ____
ROOT
ATOM      1  O   UNL     1       5.459 -15.165  11.943  0.00  0.00    +0.000 OA
ATOM      2  O   UNL     1       7.496 -16.539  12.209  0.00  0.00    +0.000 OA
ATOM      3  O   UNL     1       8.164 -11.488  10.788  0.00  0.00    +0.000 OA
ATOM      4  O   UNL     1       6.939  -6.683  11.316  0.00  0.00    +0.000 OA
ATOM      5  O   UNL     1       9.515  -9.855  10.023  0.00  0.00    +0.000 OA
ATOM      6  O   UNL     1       8.952  -7.301  10.525  0.00  0.00    +0.000 OA
ATOM      7  C   UNL     1       7.531 -14.461  11.123  0.00  0.00    +0.000 C 
ATOM      8  C   UNL     1       6.715 -13.289  11.366  0.00  0.00    +0.000 A 
ATOM      9  C   UNL     1       6.696 -15.632  11.488  0.00  0.00    +0.000 C 
ATOM     10  C   UNL     1       5.489 -13.785  11.820  0.00  0.00    +0.000 A 
ATOM     11  C   UNL     1       6.925 -11.927  11.260  0.00  0.00    +0.000 A 
ATOM     12  C   UNL     1       5.917 -11.025  11.597  0.00  0.00    +0.000 A 
ATOM     13  C   UNL     1       8.836 -14.750  11.600  0.00  0.00    +0.000 C 
ATOM     14  C   UNL     1       6.255  -9.595  11.499  0.00  0.00    +0.000 A 
ATOM     15  C   UNL     1       4.665 -11.559  12.015  0.00  0.00    +0.000 A 
ATOM     16  C   UNL     1       4.453 -12.944  12.159  0.00  0.00    +0.000 A 
ATOM     17  C   UNL     1       5.357  -8.587  11.919  0.00  0.00    +0.000 A 
ATOM     18  C   UNL     1       7.454  -9.150  11.022  0.00  0.00    +0.000 A 
ATOM     19  C   UNL     1       8.611 -15.817  12.088  0.00  0.00    +0.000 C 
ATOM     20  C   UNL     1       5.817  -7.191  11.766  0.00  0.00    +0.000 A 
ATOM     21  C   UNL     1       8.460 -10.148  10.566  0.00  0.00    +0.000 A 
ATOM     22  C   UNL     1       7.849  -7.657  10.924  0.00  0.00    +0.000 A 
ENDROOT
BRANCH  15  23
ATOM     23  O   UNL     1       3.629 -10.728  12.384  0.00  0.00    +0.000 OA
ATOM     24  C   UNL     1       2.993 -11.207  13.541  0.00  0.00    +0.000 C 
ENDBRANCH  15  23
TORSDOF 1
ENDMDL
MODEL 4
REMARK VINA RESULT:      -5.6     20.859     24.523
REMARK  Name = AFLATOXIN.pdbqt.pdb
REMARK  1 active torsions:
REMARK  status: ('A' for Active; 'I' for Inactive)
REMARK    1  A    between atoms: C_15  and  O_23
REMARK                            x       y       z     vdW  Elec       q    Type
REMARK                         _______ _______ _______ _____ _____    ______ ____
ROOT
ATOM      1  O   UNL     1     -11.012  -8.397   4.057  0.00  0.00    +0.000 OA
ATOM      2  O   UNL     1     -12.097  -8.191   6.268  0.00  0.00    +0.000 OA
ATOM      3  O   UNL     1     -15.027  -7.011   2.025  0.00  0.00    +0.000 OA
ATOM      4  O   UNL     1     -16.461  -8.075  -2.631  0.00  0.00    +0.000 OA
ATOM      5  O   UNL     1     -16.907  -6.122   1.157  0.00  0.00    +0.000 OA
ATOM      6  O   UNL     1     -17.771  -6.888  -1.242  0.00  0.00    +0.000 OA
ATOM      7  C   UNL     1     -13.034  -7.259   4.332  0.00  0.00    +0.000 C 
ATOM      8  C   UNL     1     -12.956  -7.725   2.962  0.00  0.00    +0.000 A 
ATOM      9  C   UNL     1     -11.777  -7.692   4.991  0.00  0.00    +0.000 C 
ATOM     10  C   UNL     1     -11.715  -8.363   2.863  0.00  0.00    +0.000 A 
ATOM     11  C   UNL     1     -13.807  -7.673   1.874  0.00  0.00    +0.000 A 
ATOM     12  C   UNL     1     -13.439  -8.250   0.659  0.00  0.00    +0.000 A 
ATOM     13  C   UNL     1     -14.066  -7.467   5.284  0.00  0.00    +0.000 C 
ATOM     14  C   UNL     1     -14.435  -8.187  -0.425  0.00  0.00    +0.000 A 
ATOM     15  C   UNL     1     -12.153  -8.855   0.575  0.00  0.00    +0.000 A 
ATOM     16  C   UNL     1     -11.295  -8.942   1.688  0.00  0.00    +0.000 A 
ATOM     17  C   UNL     1     -14.227  -8.830  -1.666  0.00  0.00    +0.000 A 
ATOM     18  C   UNL     1     -15.624  -7.527  -0.299  0.00  0.00    +0.000 A 
ATOM     19  C   UNL     1     -13.398  -7.915   6.168  0.00  0.00    +0.000 C 
ATOM     20  C   UNL     1     -15.302  -8.689  -2.669  0.00  0.00    +0.000 A 
ATOM     21  C   UNL     1     -15.925  -6.829   0.980  0.00  0.00    +0.000 A 
ATOM     22  C   UNL     1     -16.700  -7.459  -1.410  0.00  0.00    +0.000 A 
ENDROOT
BRANCH  15  23
ATOM     23  O   UNL     1     -11.732  -9.462  -0.588  0.00  0.00    +0.000 OA
ATOM     24  C   UNL     1     -10.434  -9.042  -0.927  0.00  0.00    +0.000 C 
ENDBRANCH  15  23
TORSDOF 1
ENDMDL
MODEL 5
REMARK VINA RESULT:      -5.5     21.947     25.323
REMARK  Name = AFLATOXIN.pdbqt.pdb
REMARK  1 active torsions:
REMARK  status: ('A' for Active; 'I' for Inactive)
REMARK    1  A    between atoms: C_15  and  O_23
REMARK                            x       y       z     vdW  Elec       q    Type
REMARK                         _______ _______ _______ _____ _____    ______ ____
ROOT
ATOM      1  O   UNL     1      -8.762  -2.735  27.994  0.00  0.00    +0.000 OA
ATOM      2  O   UNL     1      -7.183  -2.493  26.109  0.00  0.00    +0.000 OA
ATOM      3  O   UNL     1      -9.769  -7.089  26.512  0.00  0.00    +0.000 OA
ATOM      4  O   UNL     1     -14.005  -9.567  27.397  0.00  0.00    +0.000 OA
ATOM      5  O   UNL     1     -10.014  -9.235  25.869  0.00  0.00    +0.000 OA
ATOM      6  O   UNL     1     -12.363 -10.458  26.144  0.00  0.00    +0.000 OA
ATOM      7  C   UNL     1      -8.040  -4.578  26.752  0.00  0.00    +0.000 C 
ATOM      8  C   UNL     1      -9.328  -4.897  27.334  0.00  0.00    +0.000 A 
ATOM      9  C   UNL     1      -7.708  -3.204  27.204  0.00  0.00    +0.000 C 
ATOM     10  C   UNL     1      -9.679  -3.770  28.084  0.00  0.00    +0.000 A 
ATOM     11  C   UNL     1     -10.176  -5.985  27.264  0.00  0.00    +0.000 A 
ATOM     12  C   UNL     1     -11.393  -5.981  27.945  0.00  0.00    +0.000 A 
ATOM     13  C   UNL     1      -7.637  -4.649  25.393  0.00  0.00    +0.000 C 
ATOM     14  C   UNL     1     -12.250  -7.166  27.766  0.00  0.00    +0.000 A 
ATOM     15  C   UNL     1     -11.705  -4.838  28.735  0.00  0.00    +0.000 A 
ATOM     16  C   UNL     1     -10.863  -3.711  28.784  0.00  0.00    +0.000 A 
ATOM     17  C   UNL     1     -13.552  -7.233  28.312  0.00  0.00    +0.000 A 
ATOM     18  C   UNL     1     -11.857  -8.260  27.050  0.00  0.00    +0.000 A 
ATOM     19  C   UNL     1      -7.230  -3.531  25.274  0.00  0.00    +0.000 C 
ATOM     20  C   UNL     1     -14.307  -8.478  28.062  0.00  0.00    +0.000 A 
ATOM     21  C   UNL     1     -10.502  -8.267  26.434  0.00  0.00    +0.000 A 
ATOM     22  C   UNL     1     -12.739  -9.512  26.826  0.00  0.00    +0.000 A 
ENDROOT
BRANCH  15  23
ATOM     23  O   UNL     1     -12.899  -4.756  29.418  0.00  0.00    +0.000 OA
ATOM     24  C   UNL     1     -12.678  -4.462  30.774  0.00  0.00    +0.000 C 
ENDBRANCH  15  23
TORSDOF 1
ENDMDL
MODEL 6
REMARK VINA RESULT:      -5.5     19.365     22.152
REMARK  Name = AFLATOXIN.pdbqt.pdb
REMARK  1 active torsions:
REMARK  status: ('A' for Active; 'I' for Inactive)
REMARK    1  A    between atoms: C_15  and  O_23
REMARK                            x       y       z     vdW  Elec       q    Type
REMARK                         _______ _______ _______ _____ _____    ______ ____
ROOT
ATOM      1  O   UNL     1     -16.288 -14.066  12.656  0.00  0.00    +0.000 OA
ATOM      2  O   UNL     1     -18.331 -13.679  11.319  0.00  0.00    +0.000 OA
ATOM      3  O   UNL     1     -13.936 -14.985   8.681  0.00  0.00    +0.000 OA
ATOM      4  O   UNL     1      -9.834 -17.795   8.300  0.00  0.00    +0.000 OA
ATOM      5  O   UNL     1     -12.841 -15.181   6.722  0.00  0.00    +0.000 OA
ATOM      6  O   UNL     1     -10.794 -16.869   6.490  0.00  0.00    +0.000 OA
ATOM      7  C   UNL     1     -16.204 -13.774  10.338  0.00  0.00    +0.000 C 
ATOM      8  C   UNL     1     -15.043 -14.541  10.744  0.00  0.00    +0.000 A 
ATOM      9  C   UNL     1     -16.962 -13.479  11.579  0.00  0.00    +0.000 C 
ATOM     10  C   UNL     1     -15.143 -14.647  12.135  0.00  0.00    +0.000 A 
ATOM     11  C   UNL     1     -13.993 -15.135  10.069  0.00  0.00    +0.000 A 
ATOM     12  C   UNL     1     -13.013 -15.842  10.763  0.00  0.00    +0.000 A 
ATOM     13  C   UNL     1     -17.176 -14.087   9.353  0.00  0.00    +0.000 C 
ATOM     14  C   UNL     1     -11.964 -16.481   9.949  0.00  0.00    +0.000 A 
ATOM     15  C   UNL     1     -13.117 -15.897  12.182  0.00  0.00    +0.000 A 
ATOM     16  C   UNL     1     -14.201 -15.326  12.874  0.00  0.00    +0.000 A 
ATOM     17  C   UNL     1     -10.980 -17.317  10.525  0.00  0.00    +0.000 A 
ATOM     18  C   UNL     1     -11.884 -16.328   8.595  0.00  0.00    +0.000 A 
ATOM     19  C   UNL     1     -18.154 -13.970  10.030  0.00  0.00    +0.000 C 
ATOM     20  C   UNL     1      -9.985 -17.895   9.600  0.00  0.00    +0.000 A 
ATOM     21  C   UNL     1     -12.888 -15.470   7.909  0.00  0.00    +0.000 A 
ATOM     22  C   UNL     1     -10.808 -17.001   7.708  0.00  0.00    +0.000 A 
ENDROOT
BRANCH  15  23
ATOM     23  O   UNL     1     -12.195 -16.596  12.931  0.00  0.00    +0.000 OA
ATOM     24  C   UNL     1     -12.837 -17.374  13.910  0.00  0.00    +0.000 C 
ENDBRANCH  15  23
TORSDOF 1
ENDMDL
MODEL 7
REMARK VINA RESULT:      -5.3      1.169      1.572
REMARK  Name = AFLATOXIN.pdbqt.pdb
REMARK  1 active torsions:
REMARK  status: ('A' for Active; 'I' for Inactive)
REMARK    1  A    between atoms: C_15  and  O_23
REMARK                            x       y       z     vdW  Elec       q    Type
REMARK                         _______ _______ _______ _____ _____    ______ ____
ROOT
ATOM      1  O   UNL     1       3.968 -10.449  11.842  0.00  0.00    +0.000 OA
ATOM      2  O   UNL     1       3.708 -12.263  13.501  0.00  0.00    +0.000 OA
ATOM      3  O   UNL     1       8.563 -11.442  11.569  0.00  0.00    +0.000 OA
ATOM      4  O   UNL     1      12.159  -8.267  10.205  0.00  0.00    +0.000 OA
ATOM      5  O   UNL     1      10.693 -12.134  11.330  0.00  0.00    +0.000 OA
ATOM      6  O   UNL     1      12.629 -10.376  10.830  0.00  0.00    +0.000 OA
ATOM      7  C   UNL     1       5.629 -12.060  12.173  0.00  0.00    +0.000 C 
ATOM      8  C   UNL     1       6.253 -10.863  11.644  0.00  0.00    +0.000 A 
ATOM      9  C   UNL     1       4.178 -11.763  12.272  0.00  0.00    +0.000 C 
ATOM     10  C   UNL     1       5.202  -9.962  11.442  0.00  0.00    +0.000 A 
ATOM     11  C   UNL     1       7.555 -10.497  11.362  0.00  0.00    +0.000 A 
ATOM     12  C   UNL     1       7.843  -9.227  10.865  0.00  0.00    +0.000 A 
ATOM     13  C   UNL     1       5.958 -12.790  13.344  0.00  0.00    +0.000 C 
ATOM     14  C   UNL     1       9.266  -8.915  10.644  0.00  0.00    +0.000 A 
ATOM     15  C   UNL     1       6.750  -8.346  10.628  0.00  0.00    +0.000 A 
ATOM     16  C   UNL     1       5.424  -8.698  10.946  0.00  0.00    +0.000 A 
ATOM     17  C   UNL     1       9.693  -7.627  10.249  0.00  0.00    +0.000 A 
ATOM     18  C   UNL     1      10.260  -9.833  10.824  0.00  0.00    +0.000 A 
ATOM     19  C   UNL     1       4.878 -12.795  13.856  0.00  0.00    +0.000 C 
ATOM     20  C   UNL     1      11.146  -7.445  10.060  0.00  0.00    +0.000 A 
ATOM     21  C   UNL     1       9.895 -11.212  11.247  0.00  0.00    +0.000 A 
ATOM     22  C   UNL     1      11.765  -9.533  10.621  0.00  0.00    +0.000 A 
ENDROOT
BRANCH  15  23
ATOM     23  O   UNL     1       6.961  -7.068  10.157  0.00  0.00    +0.000 OA
ATOM     24  C   UNL     1       6.111  -6.790   9.073  0.00  0.00    +0.000 C 
ENDBRANCH  15  23
TORSDOF 1
ENDMDL
MODEL 8
REMARK VINA RESULT:      -5.2     22.630     25.209
REMARK  Name = AFLATOXIN.pdbqt.pdb
REMARK  1 active torsions:
REMARK  status: ('A' for Active; 'I' for Inactive)
REMARK    1  A    between atoms: C_15  and  O_23
REMARK                            x       y       z     vdW  Elec       q    Type
REMARK                         _______ _______ _______ _____ _____    ______ ____
ROOT
ATOM      1  O   UNL     1     -14.966  -8.939  27.256  0.00  0.00    +0.000 OA
ATOM      2  O   UNL     1     -14.526 -11.357  27.002  0.00  0.00    +0.000 OA
ATOM      3  O   UNL     1     -10.396  -8.090  26.500  0.00  0.00    +0.000 OA
ATOM      4  O   UNL     1      -7.869  -4.093  28.082  0.00  0.00    +0.000 OA
ATOM      5  O   UNL     1      -8.249  -7.763  25.901  0.00  0.00    +0.000 OA
ATOM      6  O   UNL     1      -6.855  -5.749  26.946  0.00  0.00    +0.000 OA
ATOM      7  C   UNL     1     -12.970  -9.735  26.337  0.00  0.00    +0.000 C 
ATOM      8  C   UNL     1     -12.722  -8.422  26.897  0.00  0.00    +0.000 A 
ATOM      9  C   UNL     1     -14.407 -10.022  26.571  0.00  0.00    +0.000 C 
ATOM     10  C   UNL     1     -13.958  -7.997  27.395  0.00  0.00    +0.000 A 
ATOM     11  C   UNL     1     -11.602  -7.623  27.028  0.00  0.00    +0.000 A 
ATOM     12  C   UNL     1     -11.686  -6.379  27.652  0.00  0.00    +0.000 A 
ATOM     13  C   UNL     1     -12.284 -10.951  26.586  0.00  0.00    +0.000 C 
ATOM     14  C   UNL     1     -10.427  -5.626  27.788  0.00  0.00    +0.000 A 
ATOM     15  C   UNL     1     -12.965  -5.955  28.111  0.00  0.00    +0.000 A 
ATOM     16  C   UNL     1     -14.105  -6.776  28.013  0.00  0.00    +0.000 A 
ATOM     17  C   UNL     1     -10.362  -4.406  28.499  0.00  0.00    +0.000 A 
ATOM     18  C   UNL     1      -9.246  -6.061  27.261  0.00  0.00    +0.000 A 
ATOM     19  C   UNL     1     -13.225 -11.624  26.885  0.00  0.00    +0.000 C 
ATOM     20  C   UNL     1      -9.041  -3.750  28.561  0.00  0.00    +0.000 A 
ATOM     21  C   UNL     1      -9.226  -7.342  26.503  0.00  0.00    +0.000 A 
ATOM     22  C   UNL     1      -7.902  -5.305  27.402  0.00  0.00    +0.000 A 
ENDROOT
BRANCH  15  23
ATOM     23  O   UNL     1     -13.120  -4.747  28.756  0.00  0.00    +0.000 OA
ATOM     24  C   UNL     1     -14.345  -4.151  28.410  0.00  0.00    +0.000 C 
ENDBRANCH  15  23
TORSDOF 1
ENDMDL
MODEL 9
REMARK VINA RESULT:      -5.2      1.356      6.764
REMARK  Name = AFLATOXIN.pdbqt.pdb
REMARK  1 active torsions:
REMARK  status: ('A' for Active; 'I' for Inactive)
REMARK    1  A    between atoms: C_15  and  O_23
REMARK                            x       y       z     vdW  Elec       q    Type
REMARK                         _______ _______ _______ _____ _____    ______ ____
ROOT
ATOM      1  O   UNL     1      11.754 -11.107  11.159  0.00  0.00    +0.000 OA
ATOM      2  O   UNL     1      12.437  -8.744  11.397  0.00  0.00    +0.000 OA
ATOM      3  O   UNL     1       7.248  -9.739  11.148  0.00  0.00    +0.000 OA
ATOM      4  O   UNL     1       3.346 -12.537  12.493  0.00  0.00    +0.000 OA
ATOM      5  O   UNL     1       5.140  -8.978  10.918  0.00  0.00    +0.000 OA
ATOM      6  O   UNL     1       3.091 -10.394  11.859  0.00  0.00    +0.000 OA
ATOM      7  C   UNL     1      10.259  -9.351  10.777  0.00  0.00    +0.000 C 
ATOM      8  C   UNL     1       9.497 -10.526  11.149  0.00  0.00    +0.000 A 
ATOM      9  C   UNL     1      11.685  -9.762  10.781  0.00  0.00    +0.000 C 
ATOM     10  C   UNL     1      10.448 -11.537  11.328  0.00  0.00    +0.000 A 
ATOM     11  C   UNL     1       8.155 -10.782  11.354  0.00  0.00    +0.000 A 
ATOM     12  C   UNL     1       7.725 -12.052  11.737  0.00  0.00    +0.000 A 
ATOM     13  C   UNL     1      10.226  -8.053  11.350  0.00  0.00    +0.000 C 
ATOM     14  C   UNL     1       6.280 -12.210  11.981  0.00  0.00    +0.000 A 
ATOM     15  C   UNL     1       8.709 -13.071  11.870  0.00  0.00    +0.000 A 
ATOM     16  C   UNL     1      10.082 -12.812  11.696  0.00  0.00    +0.000 A 
ATOM     17  C   UNL     1       5.737 -13.416  12.479  0.00  0.00    +0.000 A 
ATOM     18  C   UNL     1       5.380 -11.206  11.765  0.00  0.00    +0.000 A 
ATOM     19  C   UNL     1      11.394  -7.932  11.573  0.00  0.00    +0.000 C 
ATOM     20  C   UNL     1       4.274 -13.446  12.679  0.00  0.00    +0.000 A 
ATOM     21  C   UNL     1       5.872  -9.901  11.248  0.00  0.00    +0.000 A 
ATOM     22  C   UNL     1       3.860 -11.333  12.030  0.00  0.00    +0.000 A 
ENDROOT
BRANCH  15  23
ATOM     23  O   UNL     1       8.360 -14.345  12.264  0.00  0.00    +0.000 OA
ATOM     24  C   UNL     1       8.749 -15.290  11.300  0.00  0.00    +0.000 C 
ENDBRANCH  15  23
TORSDOF 1
ENDMDL
