REMARK  Name = AFLATOXIN.pdbqt.pdb
REMARK  1 active torsions:
REMARK  status: ('A' for Active; 'I' for Inactive)
REMARK    1  A    between atoms: C_15  and  O_23
REMARK                            x       y       z     vdW  Elec       q    Type
REMARK                         _______ _______ _______ _____ _____    ______ ____
ROOT
ATOM      1  O   UNL     1       3.677  -1.249  -0.151  0.00  0.00    +0.000 OA
ATOM      2  O   UNL     1       5.097   0.677   0.466  0.00  0.00    +0.000 OA
ATOM      3  O   UNL     1      -0.054   1.621  -0.279  0.00  0.00    +0.000 OA
ATOM      4  O   UNL     1      -4.806   0.262   0.384  0.00  0.00    +0.000 OA
ATOM      5  O   UNL     1      -1.732   3.101  -0.543  0.00  0.00    +0.000 OA
ATOM      6  O   UNL     1      -4.236   2.411   0.044  0.00  0.00    +0.000 OA
ATOM      7  C   UNL     1       2.929   0.953  -0.382  0.00  0.00    +0.000 C 
ATOM      8  C   UNL     1       1.773   0.092  -0.234  0.00  0.00    +0.000 A 
ATOM      9  C   UNL     1       4.117   0.065  -0.338  0.00  0.00    +0.000 C 
ATOM     10  C   UNL     1       2.292  -1.203  -0.135  0.00  0.00    +0.000 A 
ATOM     11  C   UNL     1       0.410   0.309  -0.160  0.00  0.00    +0.000 A 
ATOM     12  C   UNL     1      -0.470  -0.759   0.008  0.00  0.00    +0.000 A 
ATOM     13  C   UNL     1       3.278   2.108   0.365  0.00  0.00    +0.000 C 
ATOM     14  C   UNL     1      -1.899  -0.420   0.127  0.00  0.00    +0.000 A 
ATOM     15  C   UNL     1       0.083  -2.070   0.063  0.00  0.00    +0.000 A 
ATOM     16  C   UNL     1       1.472  -2.297   0.023  0.00  0.00    +0.000 A 
ATOM     17  C   UNL     1      -2.876  -1.401   0.411  0.00  0.00    +0.000 A 
ATOM     18  C   UNL     1      -2.369   0.855  -0.006  0.00  0.00    +0.000 A 
ATOM     19  C   UNL     1       4.383   1.782   0.683  0.00  0.00    +0.000 C 
ATOM     20  C   UNL     1      -4.273  -0.931   0.503  0.00  0.00    +0.000 A 
ATOM     21  C   UNL     1      -1.404   1.949  -0.298  0.00  0.00    +0.000 A 
ATOM     22  C   UNL     1      -3.860   1.248   0.133  0.00  0.00    +0.000 A 
ENDROOT
BRANCH  15  23
ATOM     23  O   UNL     1      -0.725  -3.171   0.248  0.00  0.00    +0.000 OA
ATOM     24  C   UNL     1      -0.809  -3.931  -0.931  0.00  0.00    +0.000 C 
ENDBRANCH  15  23
TORSDOF 1
