MODEL 1
REMARK VINA RESULT:      -6.9      0.000      0.000
REMARK  Name = AZD4547.pdbqt.pdb
REMARK  6 active torsions:
REMARK  status: ('A' for Active; 'I' for Inactive)
REMARK    1  A    between atoms: C_3  and  C_23
REMARK    2  A    between atoms: C_8  and  C_11
REMARK    3  A    between atoms: C_12  and  C_13
REMARK    4  A    between atoms: C_15  and  O_19
REMARK    5  A    between atoms: C_17  and  O_21
REMARK    6  A    between atoms: C_26  and  N_29
REMARK                            x       y       z     vdW  Elec       q    Type
REMARK                         _______ _______ _______ _____ _____    ______ ____
ROOT
ATOM      1  O   UNL     1       5.936  -8.447  12.457  0.00  0.00    +0.000 OA
ATOM      2  N   UNL     1       5.278  -8.975  10.300  0.00  0.00    +0.000 N 
ATOM      3  C   UNL     1       5.514  -9.247  11.629  0.00  0.00    +0.000 C 
ATOM      4  H   UNL     1       4.932  -9.668   9.654  0.00  0.00    +0.000 HD
ATOM      5  C   UNL     1       5.482  -7.751   9.710  0.00  0.00    +0.000 A 
ATOM      6  N   UNL     1       5.218  -7.611   8.407  0.00  0.00    +0.000 NA
ATOM      7  N   UNL     1       5.518  -6.323   8.157  0.00  0.00    +0.000 N 
ATOM      8  C   UNL     1       5.960  -5.641   9.251  0.00  0.00    +0.000 A 
ATOM      9  H   UNL     1       5.397  -5.971   7.213  0.00  0.00    +0.000 HD
ATOM     10  C   UNL     1       5.951  -6.544  10.285  0.00  0.00    +0.000 A 
ENDROOT
BRANCH   3  11
ATOM     11  C   UNL     1       5.224 -10.636  12.068  0.00  0.00    +0.000 A 
ATOM     12  C   UNL     1       6.292 -11.455  12.432  0.00  0.00    +0.000 A 
ATOM     13  C   UNL     1       6.059 -12.763  12.849  0.00  0.00    +0.000 A 
ATOM     14  C   UNL     1       4.761 -13.288  12.898  0.00  0.00    +0.000 A 
ATOM     15  C   UNL     1       3.698 -12.445  12.546  0.00  0.00    +0.000 A 
ATOM     16  C   UNL     1       3.925 -11.134  12.128  0.00  0.00    +0.000 A 
BRANCH  14  17
ATOM     17  N   UNL     1       4.522 -14.603  13.364  0.00  0.00    +0.000 N 
ATOM     18  C   UNL     1       3.514 -15.421  12.668  0.00  0.00    +0.000 C 
ATOM     19  C   UNL     1       2.376 -16.185  13.061  0.00  0.00    +0.000 C 
ATOM     20  N   UNL     1       2.076 -16.211  14.457  0.00  0.00    +0.000 N 
ATOM     21  C   UNL     1       1.510 -16.899  12.086  0.00  0.00    +0.000 C 
ATOM     22  C   UNL     1       2.928 -15.478  15.337  0.00  0.00    +0.000 C 
ATOM     23  H   UNL     1       1.273 -16.712  14.806  0.00  0.00    +0.000 HD
ATOM     24  C   UNL     1       4.016 -14.778  14.736  0.00  0.00    +0.000 C 
ATOM     25  C   UNL     1       2.649 -15.424  16.796  0.00  0.00    +0.000 C 
ENDBRANCH  14  17
ENDBRANCH   3  11
BRANCH   8  26
ATOM     26  C   UNL     1       6.340  -4.278   9.267  0.00  0.00    +0.000 C 
ATOM     27  C   UNL     1       6.750  -2.801   9.280  0.00  0.00    +0.000 C 
BRANCH  27  28
ATOM     28  C   UNL     1       7.128  -1.428   9.284  0.00  0.00    +0.000 A 
ATOM     29  C   UNL     1       8.317  -1.034   8.677  0.00  0.00    +0.000 A 
ATOM     30  C   UNL     1       8.691   0.312   8.673  0.00  0.00    +0.000 A 
ATOM     31  C   UNL     1       7.857   1.256   9.279  0.00  0.00    +0.000 A 
ATOM     32  C   UNL     1       6.666   0.864   9.892  0.00  0.00    +0.000 A 
ATOM     33  C   UNL     1       6.304  -0.484   9.890  0.00  0.00    +0.000 A 
BRANCH  30  34
ATOM     34  O   UNL     1       9.834   0.811   8.100  0.00  0.00    +0.000 OA
ATOM     35  C   UNL     1       9.720   1.177   6.754  0.00  0.00    +0.000 C 
ENDBRANCH  30  34
BRANCH  32  36
ATOM     36  O   UNL     1       5.928   1.877  10.454  0.00  0.00    +0.000 OA
ATOM     37  C   UNL     1       4.543   1.795  10.252  0.00  0.00    +0.000 C 
ENDBRANCH  32  36
ENDBRANCH  27  28
ENDBRANCH   8  26
TORSDOF 6
ENDMDL
MODEL 2
REMARK VINA RESULT:      -6.8      1.824      2.368
REMARK  Name = AZD4547.pdbqt.pdb
REMARK  6 active torsions:
REMARK  status: ('A' for Active; 'I' for Inactive)
REMARK    1  A    between atoms: C_3  and  C_23
REMARK    2  A    between atoms: C_8  and  C_11
REMARK    3  A    between atoms: C_12  and  C_13
REMARK    4  A    between atoms: C_15  and  O_19
REMARK    5  A    between atoms: C_17  and  O_21
REMARK    6  A    between atoms: C_26  and  N_29
REMARK                            x       y       z     vdW  Elec       q    Type
REMARK                         _______ _______ _______ _____ _____    ______ ____
ROOT
ATOM      1  O   UNL     1       6.781  -7.944  11.867  0.00  0.00    +0.000 OA
ATOM      2  N   UNL     1       5.572  -8.114   9.900  0.00  0.00    +0.000 N 
ATOM      3  C   UNL     1       6.191  -8.611  11.025  0.00  0.00    +0.000 C 
ATOM      4  H   UNL     1       5.100  -8.704   9.231  0.00  0.00    +0.000 HD
ATOM      5  C   UNL     1       5.524  -6.783   9.564  0.00  0.00    +0.000 A 
ATOM      6  N   UNL     1       4.892  -6.424   8.441  0.00  0.00    +0.000 NA
ATOM      7  N   UNL     1       5.029  -5.085   8.413  0.00  0.00    +0.000 N 
ATOM      8  C   UNL     1       5.720  -4.582   9.474  0.00  0.00    +0.000 A 
ATOM      9  H   UNL     1       4.623  -4.572   7.637  0.00  0.00    +0.000 HD
ATOM     10  C   UNL     1       6.061  -5.664  10.247  0.00  0.00    +0.000 A 
ENDROOT
BRANCH   3  11
ATOM     11  C   UNL     1       6.125 -10.083  11.205  0.00  0.00    +0.000 A 
ATOM     12  C   UNL     1       5.009 -10.627  11.839  0.00  0.00    +0.000 A 
ATOM     13  C   UNL     1       4.913 -12.004  12.026  0.00  0.00    +0.000 A 
ATOM     14  C   UNL     1       5.931 -12.866  11.600  0.00  0.00    +0.000 A 
ATOM     15  C   UNL     1       7.037 -12.304  10.949  0.00  0.00    +0.000 A 
ATOM     16  C   UNL     1       7.140 -10.926  10.758  0.00  0.00    +0.000 A 
BRANCH  14  17
ATOM     17  N   UNL     1       5.812 -14.268  11.751  0.00  0.00    +0.000 N 
ATOM     18  C   UNL     1       4.466 -14.842  11.927  0.00  0.00    +0.000 C 
ATOM     19  C   UNL     1       3.853 -15.731  12.858  0.00  0.00    +0.000 C 
ATOM     20  N   UNL     1       4.684 -16.229  13.908  0.00  0.00    +0.000 N 
ATOM     21  C   UNL     1       2.417 -16.110  12.784  0.00  0.00    +0.000 C 
ATOM     22  C   UNL     1       6.045 -15.800  13.941  0.00  0.00    +0.000 C 
ATOM     23  H   UNL     1       4.313 -16.843  14.616  0.00  0.00    +0.000 HD
ATOM     24  C   UNL     1       6.458 -14.905  12.911  0.00  0.00    +0.000 C 
ATOM     25  C   UNL     1       6.954 -16.243  15.031  0.00  0.00    +0.000 C 
ENDBRANCH  14  17
ENDBRANCH   3  11
BRANCH   8  26
ATOM     26  C   UNL     1       6.004  -3.213   9.691  0.00  0.00    +0.000 C 
ATOM     27  C   UNL     1       6.307  -1.729   9.928  0.00  0.00    +0.000 C 
BRANCH  27  28
ATOM     28  C   UNL     1       6.579  -0.349  10.151  0.00  0.00    +0.000 A 
ATOM     29  C   UNL     1       7.799   0.038  10.701  0.00  0.00    +0.000 A 
ATOM     30  C   UNL     1       8.074   1.390  10.917  0.00  0.00    +0.000 A 
ATOM     31  C   UNL     1       7.116   2.347  10.573  0.00  0.00    +0.000 A 
ATOM     32  C   UNL     1       5.890   1.964  10.026  0.00  0.00    +0.000 A 
ATOM     33  C   UNL     1       5.627   0.609   9.815  0.00  0.00    +0.000 A 
BRANCH  30  34
ATOM     34  O   UNL     1       9.242   1.882  11.444  0.00  0.00    +0.000 OA
ATOM     35  C   UNL     1       9.258   2.029  12.836  0.00  0.00    +0.000 C 
ENDBRANCH  30  34
BRANCH  32  36
ATOM     36  O   UNL     1       5.028   2.989   9.727  0.00  0.00    +0.000 OA
ATOM     37  C   UNL     1       4.873   3.266   8.362  0.00  0.00    +0.000 C 
ENDBRANCH  32  36
ENDBRANCH  27  28
ENDBRANCH   8  26
TORSDOF 6
ENDMDL
MODEL 3
REMARK VINA RESULT:      -6.7      0.526      2.136
REMARK  Name = AZD4547.pdbqt.pdb
REMARK  6 active torsions:
REMARK  status: ('A' for Active; 'I' for Inactive)
REMARK    1  A    between atoms: C_3  and  C_23
REMARK    2  A    between atoms: C_8  and  C_11
REMARK    3  A    between atoms: C_12  and  C_13
REMARK    4  A    between atoms: C_15  and  O_19
REMARK    5  A    between atoms: C_17  and  O_21
REMARK    6  A    between atoms: C_26  and  N_29
REMARK                            x       y       z     vdW  Elec       q    Type
REMARK                         _______ _______ _______ _____ _____    ______ ____
ROOT
ATOM      1  O   UNL     1       5.891  -8.385  12.493  0.00  0.00    +0.000 OA
ATOM      2  N   UNL     1       5.295  -8.932  10.324  0.00  0.00    +0.000 N 
ATOM      3  C   UNL     1       5.503  -9.196  11.659  0.00  0.00    +0.000 C 
ATOM      4  H   UNL     1       4.976  -9.633   9.672  0.00  0.00    +0.000 HD
ATOM      5  C   UNL     1       5.491  -7.706   9.734  0.00  0.00    +0.000 A 
ATOM      6  N   UNL     1       5.256  -7.576   8.424  0.00  0.00    +0.000 NA
ATOM      7  N   UNL     1       5.539  -6.283   8.177  0.00  0.00    +0.000 N 
ATOM      8  C   UNL     1       5.943  -5.590   9.278  0.00  0.00    +0.000 A 
ATOM      9  H   UNL     1       5.435  -5.936   7.229  0.00  0.00    +0.000 HD
ATOM     10  C   UNL     1       5.925  -6.489  10.315  0.00  0.00    +0.000 A 
ENDROOT
BRANCH   3  11
ATOM     11  C   UNL     1       5.228 -10.587  12.096  0.00  0.00    +0.000 A 
ATOM     12  C   UNL     1       6.295 -11.371  12.533  0.00  0.00    +0.000 A 
ATOM     13  C   UNL     1       6.074 -12.681  12.951  0.00  0.00    +0.000 A 
ATOM     14  C   UNL     1       4.791 -13.244  12.927  0.00  0.00    +0.000 A 
ATOM     15  C   UNL     1       3.728 -12.436  12.502  0.00  0.00    +0.000 A 
ATOM     16  C   UNL     1       3.942 -11.123  12.083  0.00  0.00    +0.000 A 
BRANCH  14  17
ATOM     17  N   UNL     1       4.563 -14.560  13.394  0.00  0.00    +0.000 N 
ATOM     18  C   UNL     1       3.570 -15.390  12.690  0.00  0.00    +0.000 C 
ATOM     19  C   UNL     1       2.437 -16.166  13.074  0.00  0.00    +0.000 C 
ATOM     20  N   UNL     1       2.124 -16.193  14.467  0.00  0.00    +0.000 N 
ATOM     21  C   UNL     1       1.588 -16.892  12.092  0.00  0.00    +0.000 C 
ATOM     22  C   UNL     1       2.959 -15.449  15.353  0.00  0.00    +0.000 C 
ATOM     23  H   UNL     1       1.324 -16.702  14.810  0.00  0.00    +0.000 HD
ATOM     24  C   UNL     1       4.045 -14.738  14.761  0.00  0.00    +0.000 C 
ATOM     25  C   UNL     1       2.666 -15.396  16.809  0.00  0.00    +0.000 C 
ENDBRANCH  14  17
ENDBRANCH   3  11
BRANCH   8  26
ATOM     26  C   UNL     1       6.298  -4.220   9.298  0.00  0.00    +0.000 C 
ATOM     27  C   UNL     1       6.686  -2.738   9.322  0.00  0.00    +0.000 C 
BRANCH  27  28
ATOM     28  C   UNL     1       7.055  -1.362   9.350  0.00  0.00    +0.000 A 
ATOM     29  C   UNL     1       6.257  -0.443  10.026  0.00  0.00    +0.000 A 
ATOM     30  C   UNL     1       6.616   0.906  10.060  0.00  0.00    +0.000 A 
ATOM     31  C   UNL     1       7.783   1.321   9.414  0.00  0.00    +0.000 A 
ATOM     32  C   UNL     1       8.583   0.404   8.730  0.00  0.00    +0.000 A 
ATOM     33  C   UNL     1       8.214  -0.942   8.703  0.00  0.00    +0.000 A 
BRANCH  30  34
ATOM     34  O   UNL     1       5.910   1.893  10.701  0.00  0.00    +0.000 OA
ATOM     35  C   UNL     1       6.267   2.117  12.036  0.00  0.00    +0.000 C 
ENDBRANCH  30  34
BRANCH  32  36
ATOM     36  O   UNL     1       9.706   0.924   8.134  0.00  0.00    +0.000 OA
ATOM     37  C   UNL     1      10.570  -0.015   7.555  0.00  0.00    +0.000 C 
ENDBRANCH  32  36
ENDBRANCH  27  28
ENDBRANCH   8  26
TORSDOF 6
ENDMDL
MODEL 4
REMARK VINA RESULT:      -6.6      3.185     13.976
REMARK  Name = AZD4547.pdbqt.pdb
REMARK  6 active torsions:
REMARK  status: ('A' for Active; 'I' for Inactive)
REMARK    1  A    between atoms: C_3  and  C_23
REMARK    2  A    between atoms: C_8  and  C_11
REMARK    3  A    between atoms: C_12  and  C_13
REMARK    4  A    between atoms: C_15  and  O_19
REMARK    5  A    between atoms: C_17  and  O_21
REMARK    6  A    between atoms: C_26  and  N_29
REMARK                            x       y       z     vdW  Elec       q    Type
REMARK                         _______ _______ _______ _____ _____    ______ ____
ROOT
ATOM      1  O   UNL     1       6.567  -4.066  11.359  0.00  0.00    +0.000 OA
ATOM      2  N   UNL     1       6.720  -4.816   9.174  0.00  0.00    +0.000 N 
ATOM      3  C   UNL     1       6.845  -3.883  10.179  0.00  0.00    +0.000 C 
ATOM      4  H   UNL     1       6.959  -4.618   8.214  0.00  0.00    +0.000 HD
ATOM      5  C   UNL     1       6.266  -6.100   9.357  0.00  0.00    +0.000 A 
ATOM      6  N   UNL     1       6.187  -6.913   8.299  0.00  0.00    +0.000 NA
ATOM      7  N   UNL     1       5.718  -8.064   8.815  0.00  0.00    +0.000 N 
ATOM      8  C   UNL     1       5.497  -8.012  10.159  0.00  0.00    +0.000 A 
ATOM      9  H   UNL     1       5.570  -8.851   8.192  0.00  0.00    +0.000 HD
ATOM     10  C   UNL     1       5.843  -6.742  10.548  0.00  0.00    +0.000 A 
ENDROOT
BRANCH   3  11
ATOM     11  C   UNL     1       7.359  -2.553   9.770  0.00  0.00    +0.000 A 
ATOM     12  C   UNL     1       6.538  -1.440   9.942  0.00  0.00    +0.000 A 
ATOM     13  C   UNL     1       6.987  -0.175   9.569  0.00  0.00    +0.000 A 
ATOM     14  C   UNL     1       8.256   0.006   9.004  0.00  0.00    +0.000 A 
ATOM     15  C   UNL     1       9.075  -1.121   8.856  0.00  0.00    +0.000 A 
ATOM     16  C   UNL     1       8.632  -2.390   9.227  0.00  0.00    +0.000 A 
BRANCH  14  17
ATOM     17  N   UNL     1       8.728   1.297   8.667  0.00  0.00    +0.000 N 
ATOM     18  C   UNL     1       7.752   2.395   8.563  0.00  0.00    +0.000 C 
ATOM     19  C   UNL     1       7.437   3.387   7.588  0.00  0.00    +0.000 C 
ATOM     20  N   UNL     1       8.215   3.376   6.391  0.00  0.00    +0.000 N 
ATOM     21  C   UNL     1       6.337   4.372   7.768  0.00  0.00    +0.000 C 
ATOM     22  C   UNL     1       9.234   2.384   6.266  0.00  0.00    +0.000 C 
ATOM     23  H   UNL     1       8.034   4.033   5.648  0.00  0.00    +0.000 HD
ATOM     24  C   UNL     1       9.385   1.484   7.362  0.00  0.00    +0.000 C 
ATOM     25  C   UNL     1      10.052   2.286   5.029  0.00  0.00    +0.000 C 
ENDBRANCH  14  17
ENDBRANCH   3  11
BRANCH   8  26
ATOM     26  C   UNL     1       5.009  -9.079  10.950  0.00  0.00    +0.000 C 
ATOM     27  C   UNL     1       4.482 -10.233  11.810  0.00  0.00    +0.000 C 
BRANCH  27  28
ATOM     28  C   UNL     1       3.997 -11.302  12.617  0.00  0.00    +0.000 A 
ATOM     29  C   UNL     1       4.358 -12.614  12.321  0.00  0.00    +0.000 A 
ATOM     30  C   UNL     1       3.889 -13.666  13.112  0.00  0.00    +0.000 A 
ATOM     31  C   UNL     1       3.062 -13.387  14.202  0.00  0.00    +0.000 A 
ATOM     32  C   UNL     1       2.693 -12.074  14.499  0.00  0.00    +0.000 A 
ATOM     33  C   UNL     1       3.168 -11.031  13.701  0.00  0.00    +0.000 A 
BRANCH  30  34
ATOM     34  O   UNL     1       4.188 -14.992  12.917  0.00  0.00    +0.000 OA
ATOM     35  C   UNL     1       3.512 -15.610  11.858  0.00  0.00    +0.000 C 
ENDBRANCH  30  34
BRANCH  32  36
ATOM     36  O   UNL     1       1.877 -11.919  15.592  0.00  0.00    +0.000 OA
ATOM     37  C   UNL     1       2.183 -12.732  16.692  0.00  0.00    +0.000 C 
ENDBRANCH  32  36
ENDBRANCH  27  28
ENDBRANCH   8  26
TORSDOF 6
ENDMDL
MODEL 5
REMARK VINA RESULT:      -6.5     20.796     23.224
REMARK  Name = AZD4547.pdbqt.pdb
REMARK  6 active torsions:
REMARK  status: ('A' for Active; 'I' for Inactive)
REMARK    1  A    between atoms: C_3  and  C_23
REMARK    2  A    between atoms: C_8  and  C_11
REMARK    3  A    between atoms: C_12  and  C_13
REMARK    4  A    between atoms: C_15  and  O_19
REMARK    5  A    between atoms: C_17  and  O_21
REMARK    6  A    between atoms: C_26  and  N_29
REMARK                            x       y       z     vdW  Elec       q    Type
REMARK                         _______ _______ _______ _____ _____    ______ ____
ROOT
ATOM      1  O   UNL     1      -9.711   6.016   2.156  0.00  0.00    +0.000 OA
ATOM      2  N   UNL     1     -11.345   5.080   3.504  0.00  0.00    +0.000 N 
ATOM      3  C   UNL     1     -10.731   5.351   2.301  0.00  0.00    +0.000 C 
ATOM      4  H   UNL     1     -12.186   4.529   3.574  0.00  0.00    +0.000 HD
ATOM      5  C   UNL     1     -10.890   5.519   4.724  0.00  0.00    +0.000 A 
ATOM      6  N   UNL     1     -11.577   5.190   5.824  0.00  0.00    +0.000 NA
ATOM      7  N   UNL     1     -10.878   5.765   6.819  0.00  0.00    +0.000 N 
ATOM      8  C   UNL     1      -9.775   6.443   6.394  0.00  0.00    +0.000 A 
ATOM      9  H   UNL     1     -11.210   5.655   7.772  0.00  0.00    +0.000 HD
ATOM     10  C   UNL     1      -9.752   6.305   5.029  0.00  0.00    +0.000 A 
ENDROOT
BRANCH   3  11
ATOM     11  C   UNL     1     -11.382   4.778   1.097  0.00  0.00    +0.000 A 
ATOM     12  C   UNL     1     -12.067   3.571   1.221  0.00  0.00    +0.000 A 
ATOM     13  C   UNL     1     -12.690   3.004   0.111  0.00  0.00    +0.000 A 
ATOM     14  C   UNL     1     -12.631   3.617  -1.147  0.00  0.00    +0.000 A 
ATOM     15  C   UNL     1     -11.953   4.840  -1.249  0.00  0.00    +0.000 A 
ATOM     16  C   UNL     1     -11.327   5.413  -0.142  0.00  0.00    +0.000 A 
BRANCH  14  17
ATOM     17  N   UNL     1     -13.302   3.063  -2.262  0.00  0.00    +0.000 N 
ATOM     18  C   UNL     1     -13.674   1.638  -2.219  0.00  0.00    +0.000 C 
ATOM     19  C   UNL     1     -13.494   0.513  -3.077  0.00  0.00    +0.000 C 
ATOM     20  N   UNL     1     -12.787   0.747  -4.296  0.00  0.00    +0.000 N 
ATOM     21  C   UNL     1     -13.976  -0.849  -2.730  0.00  0.00    +0.000 C 
ATOM     22  C   UNL     1     -12.322   2.071  -4.555  0.00  0.00    +0.000 C 
ATOM     23  H   UNL     1     -12.602  -0.006  -4.941  0.00  0.00    +0.000 HD
ATOM     24  C   UNL     1     -12.609   3.054  -3.562  0.00  0.00    +0.000 C 
ATOM     25  C   UNL     1     -11.541   2.376  -5.782  0.00  0.00    +0.000 C 
ENDBRANCH  14  17
ENDBRANCH   3  11
BRANCH   8  26
ATOM     26  C   UNL     1      -8.866   7.134   7.231  0.00  0.00    +0.000 C 
ATOM     27  C   UNL     1      -7.879   7.882   8.134  0.00  0.00    +0.000 C 
BRANCH  27  28
ATOM     28  C   UNL     1      -6.955   8.575   8.968  0.00  0.00    +0.000 A 
ATOM     29  C   UNL     1      -5.594   8.538   8.676  0.00  0.00    +0.000 A 
ATOM     30  C   UNL     1      -4.684   9.220   9.487  0.00  0.00    +0.000 A 
ATOM     31  C   UNL     1      -5.153   9.939  10.588  0.00  0.00    +0.000 A 
ATOM     32  C   UNL     1      -6.516   9.974  10.888  0.00  0.00    +0.000 A 
ATOM     33  C   UNL     1      -7.416   9.289  10.070  0.00  0.00    +0.000 A 
BRANCH  30  34
ATOM     34  O   UNL     1      -3.326   9.258   9.287  0.00  0.00    +0.000 OA
ATOM     35  C   UNL     1      -2.646  10.269   9.975  0.00  0.00    +0.000 C 
ENDBRANCH  30  34
BRANCH  32  36
ATOM     36  O   UNL     1      -6.862  10.712  11.993  0.00  0.00    +0.000 OA
ATOM     37  C   UNL     1      -8.237  10.818  12.240  0.00  0.00    +0.000 C 
ENDBRANCH  32  36
ENDBRANCH  27  28
ENDBRANCH   8  26
TORSDOF 6
ENDMDL
MODEL 6
REMARK VINA RESULT:      -6.5      3.742     14.249
REMARK  Name = AZD4547.pdbqt.pdb
REMARK  6 active torsions:
REMARK  status: ('A' for Active; 'I' for Inactive)
REMARK    1  A    between atoms: C_3  and  C_23
REMARK    2  A    between atoms: C_8  and  C_11
REMARK    3  A    between atoms: C_12  and  C_13
REMARK    4  A    between atoms: C_15  and  O_19
REMARK    5  A    between atoms: C_17  and  O_21
REMARK    6  A    between atoms: C_26  and  N_29
REMARK                            x       y       z     vdW  Elec       q    Type
REMARK                         _______ _______ _______ _____ _____    ______ ____
ROOT
ATOM      1  O   UNL     1       7.622  -2.820  10.786  0.00  0.00    +0.000 OA
ATOM      2  N   UNL     1       6.059  -3.015   9.089  0.00  0.00    +0.000 N 
ATOM      3  C   UNL     1       6.919  -2.324   9.912  0.00  0.00    +0.000 C 
ATOM      4  H   UNL     1       5.497  -2.563   8.384  0.00  0.00    +0.000 HD
ATOM      5  C   UNL     1       5.870  -4.376   9.130  0.00  0.00    +0.000 A 
ATOM      6  N   UNL     1       5.003  -4.933   8.277  0.00  0.00    +0.000 NA
ATOM      7  N   UNL     1       5.058  -6.243   8.577  0.00  0.00    +0.000 N 
ATOM      8  C   UNL     1       5.927  -6.539   9.585  0.00  0.00    +0.000 A 
ATOM      9  H   UNL     1       4.474  -6.886   8.053  0.00  0.00    +0.000 HD
ATOM     10  C   UNL     1       6.475  -5.342   9.971  0.00  0.00    +0.000 A 
ENDROOT
BRANCH   3  11
ATOM     11  C   UNL     1       6.978  -0.856   9.702  0.00  0.00    +0.000 A 
ATOM     12  C   UNL     1       5.907  -0.078  10.137  0.00  0.00    +0.000 A 
ATOM     13  C   UNL     1       5.927   1.304   9.956  0.00  0.00    +0.000 A 
ATOM     14  C   UNL     1       7.007   1.937   9.327  0.00  0.00    +0.000 A 
ATOM     15  C   UNL     1       8.084   1.141   8.913  0.00  0.00    +0.000 A 
ATOM     16  C   UNL     1       8.070  -0.243   9.091  0.00  0.00    +0.000 A 
BRANCH  14  17
ATOM     17  N   UNL     1       7.047   3.344   9.185  0.00  0.00    +0.000 N 
ATOM     18  C   UNL     1       6.433   4.172  10.237  0.00  0.00    +0.000 C 
ATOM     19  C   UNL     1       5.488   5.240  10.269  0.00  0.00    +0.000 C 
ATOM     20  N   UNL     1       4.961   5.665   9.012  0.00  0.00    +0.000 N 
ATOM     21  C   UNL     1       5.031   5.872  11.535  0.00  0.00    +0.000 C 
ATOM     22  C   UNL     1       5.416   4.995   7.837  0.00  0.00    +0.000 C 
ATOM     23  H   UNL     1       4.271   6.399   8.959  0.00  0.00    +0.000 HD
ATOM     24  C   UNL     1       6.368   3.950   8.026  0.00  0.00    +0.000 C 
ATOM     25  C   UNL     1       4.877   5.355   6.499  0.00  0.00    +0.000 C 
ENDBRANCH  14  17
ENDBRANCH   3  11
BRANCH   8  26
ATOM     26  C   UNL     1       6.179  -7.836  10.094  0.00  0.00    +0.000 C 
ATOM     27  C   UNL     1       6.451  -9.238  10.649  0.00  0.00    +0.000 C 
BRANCH  27  28
ATOM     28  C   UNL     1       6.704 -10.538  11.174  0.00  0.00    +0.000 A 
ATOM     29  C   UNL     1       5.683 -11.243  11.804  0.00  0.00    +0.000 A 
ATOM     30  C   UNL     1       5.924 -12.520  12.316  0.00  0.00    +0.000 A 
ATOM     31  C   UNL     1       7.196 -13.081  12.185  0.00  0.00    +0.000 A 
ATOM     32  C   UNL     1       8.225 -12.375  11.559  0.00  0.00    +0.000 A 
ATOM     33  C   UNL     1       7.971 -11.100  11.052  0.00  0.00    +0.000 A 
BRANCH  30  34
ATOM     34  O   UNL     1       4.990 -13.305  12.947  0.00  0.00    +0.000 OA
ATOM     35  C   UNL     1       4.070 -12.618  13.748  0.00  0.00    +0.000 C 
ENDBRANCH  30  34
BRANCH  32  36
ATOM     36  O   UNL     1       9.432 -13.025  11.488  0.00  0.00    +0.000 OA
ATOM     37  C   UNL     1       9.404 -14.386  11.823  0.00  0.00    +0.000 C 
ENDBRANCH  32  36
ENDBRANCH  27  28
ENDBRANCH   8  26
TORSDOF 6
ENDMDL
MODEL 7
REMARK VINA RESULT:      -6.4      3.789     14.089
REMARK  Name = AZD4547.pdbqt.pdb
REMARK  6 active torsions:
REMARK  status: ('A' for Active; 'I' for Inactive)
REMARK    1  A    between atoms: C_3  and  C_23
REMARK    2  A    between atoms: C_8  and  C_11
REMARK    3  A    between atoms: C_12  and  C_13
REMARK    4  A    between atoms: C_15  and  O_19
REMARK    5  A    between atoms: C_17  and  O_21
REMARK    6  A    between atoms: C_26  and  N_29
REMARK                            x       y       z     vdW  Elec       q    Type
REMARK                         _______ _______ _______ _____ _____    ______ ____
ROOT
ATOM      1  O   UNL     1       7.678  -2.743  10.769  0.00  0.00    +0.000 OA
ATOM      2  N   UNL     1       6.091  -2.940   9.095  0.00  0.00    +0.000 N 
ATOM      3  C   UNL     1       6.956  -2.247   9.911  0.00  0.00    +0.000 C 
ATOM      4  H   UNL     1       5.512  -2.487   8.404  0.00  0.00    +0.000 HD
ATOM      5  C   UNL     1       5.919  -4.303   9.124  0.00  0.00    +0.000 A 
ATOM      6  N   UNL     1       5.045  -4.861   8.280  0.00  0.00    +0.000 NA
ATOM      7  N   UNL     1       5.121  -6.174   8.565  0.00  0.00    +0.000 N 
ATOM      8  C   UNL     1       6.009  -6.470   9.555  0.00  0.00    +0.000 A 
ATOM      9  H   UNL     1       4.536  -6.818   8.043  0.00  0.00    +0.000 HD
ATOM     10  C   UNL     1       6.549  -5.270   9.945  0.00  0.00    +0.000 A 
ENDROOT
BRANCH   3  11
ATOM     11  C   UNL     1       6.994  -0.776   9.717  0.00  0.00    +0.000 A 
ATOM     12  C   UNL     1       5.937  -0.011  10.209  0.00  0.00    +0.000 A 
ATOM     13  C   UNL     1       5.939   1.372  10.044  0.00  0.00    +0.000 A 
ATOM     14  C   UNL     1       6.984   2.021   9.374  0.00  0.00    +0.000 A 
ATOM     15  C   UNL     1       8.046   1.239   8.901  0.00  0.00    +0.000 A 
ATOM     16  C   UNL     1       8.051  -0.146   9.063  0.00  0.00    +0.000 A 
BRANCH  14  17
ATOM     17  N   UNL     1       7.006   3.430   9.246  0.00  0.00    +0.000 N 
ATOM     18  C   UNL     1       6.363   4.239  10.296  0.00  0.00    +0.000 C 
ATOM     19  C   UNL     1       5.403   5.293  10.323  0.00  0.00    +0.000 C 
ATOM     20  N   UNL     1       4.891   5.724   9.061  0.00  0.00    +0.000 N 
ATOM     21  C   UNL     1       4.916   5.905  11.588  0.00  0.00    +0.000 C 
ATOM     22  C   UNL     1       5.376   5.072   7.888  0.00  0.00    +0.000 C 
ATOM     23  H   UNL     1       4.192   6.448   9.005  0.00  0.00    +0.000 HD
ATOM     24  C   UNL     1       6.339   4.039   8.082  0.00  0.00    +0.000 C 
ATOM     25  C   UNL     1       4.854   5.439   6.545  0.00  0.00    +0.000 C 
ENDBRANCH  14  17
ENDBRANCH   3  11
BRANCH   8  26
ATOM     26  C   UNL     1       6.284  -7.768  10.046  0.00  0.00    +0.000 C 
ATOM     27  C   UNL     1       6.582  -9.173  10.582  0.00  0.00    +0.000 C 
BRANCH  27  28
ATOM     28  C   UNL     1       6.858 -10.475  11.088  0.00  0.00    +0.000 A 
ATOM     29  C   UNL     1       8.147 -10.994  11.005  0.00  0.00    +0.000 A 
ATOM     30  C   UNL     1       8.425 -12.268  11.505  0.00  0.00    +0.000 A 
ATOM     31  C   UNL     1       7.398 -13.012  12.091  0.00  0.00    +0.000 A 
ATOM     32  C   UNL     1       6.103 -12.499  12.172  0.00  0.00    +0.000 A 
ATOM     33  C   UNL     1       5.838 -11.223  11.669  0.00  0.00    +0.000 A 
BRANCH  30  34
ATOM     34  O   UNL     1       9.658 -12.872  11.483  0.00  0.00    +0.000 OA
ATOM     35  C   UNL     1      10.478 -12.605  12.585  0.00  0.00    +0.000 C 
ENDBRANCH  30  34
BRANCH  32  36
ATOM     36  O   UNL     1       5.175 -13.318  12.768  0.00  0.00    +0.000 OA
ATOM     37  C   UNL     1       3.896 -13.295  12.196  0.00  0.00    +0.000 C 
ENDBRANCH  32  36
ENDBRANCH  27  28
ENDBRANCH   8  26
TORSDOF 6
ENDMDL
MODEL 8
REMARK VINA RESULT:      -6.1     17.838     19.548
REMARK  Name = AZD4547.pdbqt.pdb
REMARK  6 active torsions:
REMARK  status: ('A' for Active; 'I' for Inactive)
REMARK    1  A    between atoms: C_3  and  C_23
REMARK    2  A    between atoms: C_8  and  C_11
REMARK    3  A    between atoms: C_12  and  C_13
REMARK    4  A    between atoms: C_15  and  O_19
REMARK    5  A    between atoms: C_17  and  O_21
REMARK    6  A    between atoms: C_26  and  N_29
REMARK                            x       y       z     vdW  Elec       q    Type
REMARK                         _______ _______ _______ _____ _____    ______ ____
ROOT
ATOM      1  O   UNL     1     -10.278 -16.035   5.344  0.00  0.00    +0.000 OA
ATOM      2  N   UNL     1      -9.512 -13.980   6.088  0.00  0.00    +0.000 N 
ATOM      3  C   UNL     1     -10.192 -15.171   6.210  0.00  0.00    +0.000 C 
ATOM      4  H   UNL     1      -9.472 -13.296   6.828  0.00  0.00    +0.000 HD
ATOM      5  C   UNL     1      -8.821 -13.592   4.965  0.00  0.00    +0.000 A 
ATOM      6  N   UNL     1      -8.201 -12.407   4.968  0.00  0.00    +0.000 NA
ATOM      7  N   UNL     1      -7.636 -12.341   3.748  0.00  0.00    +0.000 N 
ATOM      8  C   UNL     1      -7.872 -13.437   2.974  0.00  0.00    +0.000 A 
ATOM      9  H   UNL     1      -7.098 -11.515   3.506  0.00  0.00    +0.000 HD
ATOM     10  C   UNL     1      -8.646 -14.276   3.737  0.00  0.00    +0.000 A 
ENDROOT
BRANCH   3  11
ATOM     11  C   UNL     1     -10.871 -15.400   7.510  0.00  0.00    +0.000 A 
ATOM     12  C   UNL     1     -12.259 -15.531   7.521  0.00  0.00    +0.000 A 
ATOM     13  C   UNL     1     -12.931 -15.747   8.723  0.00  0.00    +0.000 A 
ATOM     14  C   UNL     1     -12.238 -15.821   9.938  0.00  0.00    +0.000 A 
ATOM     15  C   UNL     1     -10.841 -15.705   9.905  0.00  0.00    +0.000 A 
ATOM     16  C   UNL     1     -10.163 -15.490   8.705  0.00  0.00    +0.000 A 
BRANCH  14  17
ATOM     17  N   UNL     1     -12.917 -16.084  11.151  0.00  0.00    +0.000 N 
ATOM     18  C   UNL     1     -13.623 -17.369  11.294  0.00  0.00    +0.000 C 
ATOM     19  C   UNL     1     -14.937 -17.770  11.675  0.00  0.00    +0.000 C 
ATOM     20  N   UNL     1     -15.851 -16.726  12.014  0.00  0.00    +0.000 N 
ATOM     21  C   UNL     1     -15.371 -19.192  11.694  0.00  0.00    +0.000 C 
ATOM     22  C   UNL     1     -15.381 -15.380  11.944  0.00  0.00    +0.000 C 
ATOM     23  H   UNL     1     -16.804 -16.933  12.270  0.00  0.00    +0.000 HD
ATOM     24  C   UNL     1     -14.026 -15.197  11.539  0.00  0.00    +0.000 C 
ATOM     25  C   UNL     1     -16.291 -14.242  12.240  0.00  0.00    +0.000 C 
ENDBRANCH  14  17
ENDBRANCH   3  11
BRANCH   8  26
ATOM     26  C   UNL     1      -7.395 -13.626   1.655  0.00  0.00    +0.000 C 
ATOM     27  C   UNL     1      -6.874 -13.829   0.228  0.00  0.00    +0.000 C 
BRANCH  27  28
ATOM     28  C   UNL     1      -6.382 -14.013  -1.096  0.00  0.00    +0.000 A 
ATOM     29  C   UNL     1      -6.343 -12.937  -1.978  0.00  0.00    +0.000 A 
ATOM     30  C   UNL     1      -5.857 -13.110  -3.276  0.00  0.00    +0.000 A 
ATOM     31  C   UNL     1      -5.407 -14.371  -3.676  0.00  0.00    +0.000 A 
ATOM     32  C   UNL     1      -5.449 -15.454  -2.797  0.00  0.00    +0.000 A 
ATOM     33  C   UNL     1      -5.938 -15.268  -1.502  0.00  0.00    +0.000 A 
BRANCH  30  34
ATOM     34  O   UNL     1      -5.766 -12.120  -4.222  0.00  0.00    +0.000 OA
ATOM     35  C   UNL     1      -5.873 -12.546  -5.551  0.00  0.00    +0.000 C 
ENDBRANCH  30  34
BRANCH  32  36
ATOM     36  O   UNL     1      -4.982 -16.644  -3.298  0.00  0.00    +0.000 OA
ATOM     37  C   UNL     1      -5.866 -17.727  -3.202  0.00  0.00    +0.000 C 
ENDBRANCH  32  36
ENDBRANCH  27  28
ENDBRANCH   8  26
TORSDOF 6
ENDMDL
MODEL 9
REMARK VINA RESULT:      -6.1     20.580     24.656
REMARK  Name = AZD4547.pdbqt.pdb
REMARK  6 active torsions:
REMARK  status: ('A' for Active; 'I' for Inactive)
REMARK    1  A    between atoms: C_3  and  C_23
REMARK    2  A    between atoms: C_8  and  C_11
REMARK    3  A    between atoms: C_12  and  C_13
REMARK    4  A    between atoms: C_15  and  O_19
REMARK    5  A    between atoms: C_17  and  O_21
REMARK    6  A    between atoms: C_26  and  N_29
REMARK                            x       y       z     vdW  Elec       q    Type
REMARK                         _______ _______ _______ _____ _____    ______ ____
ROOT
ATOM      1  O   UNL     1      -7.939   6.652   2.067  0.00  0.00    +0.000 OA
ATOM      2  N   UNL     1      -9.235   6.585   3.985  0.00  0.00    +0.000 N 
ATOM      3  C   UNL     1      -8.139   6.955   3.238  0.00  0.00    +0.000 C 
ATOM      4  H   UNL     1      -9.355   6.856   4.949  0.00  0.00    +0.000 HD
ATOM      5  C   UNL     1     -10.273   5.819   3.513  0.00  0.00    +0.000 A 
ATOM      6  N   UNL     1     -11.283   5.523   4.338  0.00  0.00    +0.000 NA
ATOM      7  N   UNL     1     -12.108   4.780   3.578  0.00  0.00    +0.000 N 
ATOM      8  C   UNL     1     -11.662   4.594   2.304  0.00  0.00    +0.000 A 
ATOM      9  H   UNL     1     -12.965   4.429   3.992  0.00  0.00    +0.000 HD
ATOM     10  C   UNL     1     -10.463   5.259   2.226  0.00  0.00    +0.000 A 
ENDROOT
BRANCH   3  11
ATOM     11  C   UNL     1      -7.129   7.789   3.937  0.00  0.00    +0.000 A 
ATOM     12  C   UNL     1      -6.302   8.612   3.174  0.00  0.00    +0.000 A 
ATOM     13  C   UNL     1      -5.342   9.408   3.795  0.00  0.00    +0.000 A 
ATOM     14  C   UNL     1      -5.176   9.392   5.186  0.00  0.00    +0.000 A 
ATOM     15  C   UNL     1      -6.029   8.572   5.939  0.00  0.00    +0.000 A 
ATOM     16  C   UNL     1      -6.992   7.773   5.323  0.00  0.00    +0.000 A 
BRANCH  14  17
ATOM     17  N   UNL     1      -4.232  10.234   5.819  0.00  0.00    +0.000 N 
ATOM     18  C   UNL     1      -2.804  10.043   5.511  0.00  0.00    +0.000 C 
ATOM     19  C   UNL     1      -1.613   9.867   6.274  0.00  0.00    +0.000 C 
ATOM     20  N   UNL     1      -1.761   9.862   7.695  0.00  0.00    +0.000 N 
ATOM     21  C   UNL     1      -0.280   9.662   5.650  0.00  0.00    +0.000 C 
ATOM     22  C   UNL     1      -3.073  10.031   8.230  0.00  0.00    +0.000 C 
ATOM     23  H   UNL     1      -0.965   9.720   8.298  0.00  0.00    +0.000 HD
ATOM     24  C   UNL     1      -4.131  10.192   7.288  0.00  0.00    +0.000 C 
ATOM     25  C   UNL     1      -3.305   9.991   9.698  0.00  0.00    +0.000 C 
ENDBRANCH  14  17
ENDBRANCH   3  11
BRANCH   8  26
ATOM     26  C   UNL     1     -12.335   3.857   1.300  0.00  0.00    +0.000 C 
ATOM     27  C   UNL     1     -13.060   3.060   0.211  0.00  0.00    +0.000 C 
BRANCH  27  28
ATOM     28  C   UNL     1     -13.727   2.320  -0.808  0.00  0.00    +0.000 A 
ATOM     29  C   UNL     1     -13.259   2.366  -2.118  0.00  0.00    +0.000 A 
ATOM     30  C   UNL     1     -13.905   1.638  -3.120  0.00  0.00    +0.000 A 
ATOM     31  C   UNL     1     -15.020   0.863  -2.792  0.00  0.00    +0.000 A 
ATOM     32  C   UNL     1     -15.496   0.819  -1.480  0.00  0.00    +0.000 A 
ATOM     33  C   UNL     1     -14.841   1.551  -0.488  0.00  0.00    +0.000 A 
BRANCH  30  34
ATOM     34  O   UNL     1     -13.526   1.605  -4.439  0.00  0.00    +0.000 OA
ATOM     35  C   UNL     1     -12.220   1.160  -4.677  0.00  0.00    +0.000 C 
ENDBRANCH  30  34
BRANCH  32  36
ATOM     36  O   UNL     1     -16.598   0.025  -1.275  0.00  0.00    +0.000 OA
ATOM     37  C   UNL     1     -17.353   0.327  -0.134  0.00  0.00    +0.000 C 
ENDBRANCH  32  36
ENDBRANCH  27  28
ENDBRANCH   8  26
TORSDOF 6
ENDMDL
