MODEL 1
REMARK VINA RESULT:      -6.0      0.000      0.000
REMARK  Name = Belinostat.pdbqt.pdb
REMARK  6 active torsions:
REMARK  status: ('A' for Active; 'I' for Inactive)
REMARK    1  A    between atoms: C_1  and  S_7
REMARK    2  A    between atoms: C_3  and  C_18
REMARK    3  A    between atoms: S_7  and  N_10
REMARK    4  A    between atoms: N_10  and  C_12
REMARK    5  A    between atoms: C_19  and  C_20
REMARK    6  A    between atoms: N_22  and  O_24
REMARK                            x       y       z     vdW  Elec       q    Type
REMARK                         _______ _______ _______ _____ _____    ______ ____
ROOT
ATOM      1  C   UNL     1      -0.021 -13.134  19.593  0.00  0.00    +0.000 A 
ATOM      2  C   UNL     1       0.533 -13.020  18.323  0.00  0.00    +0.000 A 
ATOM      3  C   UNL     1       1.244 -11.870  17.997  0.00  0.00    +0.000 A 
ATOM      4  C   UNL     1       0.144 -12.138  20.550  0.00  0.00    +0.000 A 
ATOM      5  C   UNL     1       1.406 -10.855  18.939  0.00  0.00    +0.000 A 
ATOM      6  C   UNL     1       0.858 -10.990  20.215  0.00  0.00    +0.000 A 
ENDROOT
BRANCH   1   7
ATOM      7  S   UNL     1      -0.885 -14.599  20.028  0.00  0.00    +0.000 S 
ATOM      8  O   UNL     1      -1.031 -14.593  21.468  0.00  0.00    +0.000 OA
ATOM      9  O   UNL     1      -0.263 -15.711  19.344  0.00  0.00    +0.000 OA
BRANCH   7  10
ATOM     10  N   UNL     1      -2.416 -14.350  19.396  0.00  0.00    +0.000 N 
ATOM     11  H   UNL     1      -2.642 -13.374  19.209  0.00  0.00    +0.000 HD
BRANCH  10  12
ATOM     12  C   UNL     1      -3.185 -15.378  18.782  0.00  0.00    +0.000 A 
ATOM     13  C   UNL     1      -3.724 -16.446  19.496  0.00  0.00    +0.000 A 
ATOM     14  C   UNL     1      -4.537 -17.381  18.861  0.00  0.00    +0.000 A 
ATOM     15  C   UNL     1      -4.839 -17.235  17.510  0.00  0.00    +0.000 A 
ATOM     16  C   UNL     1      -4.334 -16.150  16.799  0.00  0.00    +0.000 A 
ATOM     17  C   UNL     1      -3.520 -15.218  17.437  0.00  0.00    +0.000 A 
ENDBRANCH  10  12
ENDBRANCH   7  10
ENDBRANCH   1   7
BRANCH   3  18
ATOM     18  C   UNL     1       1.808 -11.730  16.694  0.00  0.00    +0.000 C 
ATOM     19  C   UNL     1       2.284 -11.609  15.598  0.00  0.00    +0.000 C 
BRANCH  19  20
ATOM     20  C   UNL     1       2.857 -11.464  14.283  0.00  0.00    +0.000 C 
ATOM     21  O   UNL     1       3.841 -10.755  14.108  0.00  0.00    +0.000 OA
ATOM     22  N   UNL     1       2.241 -12.163  13.282  0.00  0.00    +0.000 N 
ATOM     23  H   UNL     1       1.463 -12.797  13.420  0.00  0.00    +0.000 HD
BRANCH  22  24
ATOM     24  O   UNL     1       2.803 -12.083  11.989  0.00  0.00    +0.000 OA
ATOM     25  H   UNL     1       2.136 -11.558  11.496  0.00  0.00    +0.000 HD
ENDBRANCH  22  24
ENDBRANCH  19  20
ENDBRANCH   3  18
TORSDOF 6
ENDMDL
MODEL 2
REMARK VINA RESULT:      -5.6      3.544      4.864
REMARK  Name = Belinostat.pdbqt.pdb
REMARK  6 active torsions:
REMARK  status: ('A' for Active; 'I' for Inactive)
REMARK    1  A    between atoms: C_1  and  S_7
REMARK    2  A    between atoms: C_3  and  C_18
REMARK    3  A    between atoms: S_7  and  N_10
REMARK    4  A    between atoms: N_10  and  C_12
REMARK    5  A    between atoms: C_19  and  C_20
REMARK    6  A    between atoms: N_22  and  O_24
REMARK                            x       y       z     vdW  Elec       q    Type
REMARK                         _______ _______ _______ _____ _____    ______ ____
ROOT
ATOM      1  C   UNL     1      -2.952 -15.624  18.977  0.00  0.00    +0.000 A 
ATOM      2  C   UNL     1      -2.157 -14.503  18.763  0.00  0.00    +0.000 A 
ATOM      3  C   UNL     1      -1.199 -14.164  19.713  0.00  0.00    +0.000 A 
ATOM      4  C   UNL     1      -2.790 -16.426  20.101  0.00  0.00    +0.000 A 
ATOM      5  C   UNL     1      -1.034 -14.949  20.854  0.00  0.00    +0.000 A 
ATOM      6  C   UNL     1      -1.828 -16.081  21.046  0.00  0.00    +0.000 A 
ENDROOT
BRANCH   1   7
ATOM      7  S   UNL     1      -4.137 -16.084  17.765  0.00  0.00    +0.000 S 
ATOM      8  O   UNL     1      -4.125 -17.530  17.689  0.00  0.00    +0.000 OA
ATOM      9  O   UNL     1      -3.919 -15.272  16.588  0.00  0.00    +0.000 OA
BRANCH   7  10
ATOM     10  N   UNL     1      -5.596 -15.658  18.467  0.00  0.00    +0.000 N 
ATOM     11  H   UNL     1      -6.004 -14.798  18.104  0.00  0.00    +0.000 HD
BRANCH  10  12
ATOM     12  C   UNL     1      -6.415 -16.574  19.185  0.00  0.00    +0.000 A 
ATOM     13  C   UNL     1      -6.393 -16.678  20.574  0.00  0.00    +0.000 A 
ATOM     14  C   UNL     1      -7.274 -17.532  21.233  0.00  0.00    +0.000 A 
ATOM     15  C   UNL     1      -8.202 -18.269  20.503  0.00  0.00    +0.000 A 
ATOM     16  C   UNL     1      -8.254 -18.144  19.117  0.00  0.00    +0.000 A 
ATOM     17  C   UNL     1      -7.371 -17.289  18.463  0.00  0.00    +0.000 A 
ENDBRANCH  10  12
ENDBRANCH   7  10
ENDBRANCH   1   7
BRANCH   3  18
ATOM     18  C   UNL     1      -0.384 -13.010  19.517  0.00  0.00    +0.000 C 
ATOM     19  C   UNL     1       0.300 -12.036  19.354  0.00  0.00    +0.000 C 
BRANCH  19  20
ATOM     20  C   UNL     1       1.120 -10.867  19.158  0.00  0.00    +0.000 C 
ATOM     21  O   UNL     1       1.736 -10.707  18.110  0.00  0.00    +0.000 OA
ATOM     22  N   UNL     1       1.149  -9.976  20.194  0.00  0.00    +0.000 N 
ATOM     23  H   UNL     1       0.602 -10.064  21.043  0.00  0.00    +0.000 HD
BRANCH  22  24
ATOM     24  O   UNL     1       1.904  -8.795  20.020  0.00  0.00    +0.000 OA
ATOM     25  H   UNL     1       2.796  -9.061  20.332  0.00  0.00    +0.000 HD
ENDBRANCH  22  24
ENDBRANCH  19  20
ENDBRANCH   3  18
TORSDOF 6
ENDMDL
MODEL 3
REMARK VINA RESULT:      -5.5     20.805     22.357
REMARK  Name = Belinostat.pdbqt.pdb
REMARK  6 active torsions:
REMARK  status: ('A' for Active; 'I' for Inactive)
REMARK    1  A    between atoms: C_1  and  S_7
REMARK    2  A    between atoms: C_3  and  C_18
REMARK    3  A    between atoms: S_7  and  N_10
REMARK    4  A    between atoms: N_10  and  C_12
REMARK    5  A    between atoms: C_19  and  C_20
REMARK    6  A    between atoms: N_22  and  O_24
REMARK                            x       y       z     vdW  Elec       q    Type
REMARK                         _______ _______ _______ _____ _____    ______ ____
ROOT
ATOM      1  C   UNL     1     -20.941  -4.028  20.302  0.00  0.00    +0.000 A 
ATOM      2  C   UNL     1     -20.337  -2.778  20.358  0.00  0.00    +0.000 A 
ATOM      3  C   UNL     1     -19.491  -2.484  21.423  0.00  0.00    +0.000 A 
ATOM      4  C   UNL     1     -20.696  -4.998  21.268  0.00  0.00    +0.000 A 
ATOM      5  C   UNL     1     -19.246  -3.440  22.409  0.00  0.00    +0.000 A 
ATOM      6  C   UNL     1     -19.847  -4.697  22.330  0.00  0.00    +0.000 A 
ENDROOT
BRANCH   1   7
ATOM      7  S   UNL     1     -21.978  -4.424  18.941  0.00  0.00    +0.000 S 
ATOM      8  O   UNL     1     -21.637  -3.514  17.869  0.00  0.00    +0.000 OA
ATOM      9  O   UNL     1     -23.337  -4.534  19.426  0.00  0.00    +0.000 OA
BRANCH   7  10
ATOM     10  N   UNL     1     -21.438  -5.938  18.469  0.00  0.00    +0.000 N 
ATOM     11  H   UNL     1     -22.126  -6.682  18.568  0.00  0.00    +0.000 HD
BRANCH  10  12
ATOM     12  C   UNL     1     -20.307  -6.136  17.627  0.00  0.00    +0.000 A 
ATOM     13  C   UNL     1     -19.034  -5.673  17.953  0.00  0.00    +0.000 A 
ATOM     14  C   UNL     1     -17.946  -5.966  17.134  0.00  0.00    +0.000 A 
ATOM     15  C   UNL     1     -18.123  -6.748  15.997  0.00  0.00    +0.000 A 
ATOM     16  C   UNL     1     -19.386  -7.244  15.685  0.00  0.00    +0.000 A 
ATOM     17  C   UNL     1     -20.471  -6.948  16.506  0.00  0.00    +0.000 A 
ENDBRANCH  10  12
ENDBRANCH   7  10
ENDBRANCH   1   7
BRANCH   3  18
ATOM     18  C   UNL     1     -18.873  -1.201  21.505  0.00  0.00    +0.000 C 
ATOM     19  C   UNL     1     -18.350  -0.122  21.574  0.00  0.00    +0.000 C 
BRANCH  19  20
ATOM     20  C   UNL     1     -17.721   1.173  21.658  0.00  0.00    +0.000 C 
ATOM     21  O   UNL     1     -18.313   2.120  22.163  0.00  0.00    +0.000 OA
ATOM     22  N   UNL     1     -16.454   1.256  21.154  0.00  0.00    +0.000 N 
ATOM     23  H   UNL     1     -15.930   0.470  20.786  0.00  0.00    +0.000 HD
BRANCH  22  24
ATOM     24  O   UNL     1     -15.788   2.497  21.262  0.00  0.00    +0.000 OA
ATOM     25  H   UNL     1     -15.802   2.666  22.229  0.00  0.00    +0.000 HD
ENDBRANCH  22  24
ENDBRANCH  19  20
ENDBRANCH   3  18
TORSDOF 6
ENDMDL
MODEL 4
REMARK VINA RESULT:      -5.5     14.106     15.538
REMARK  Name = Belinostat.pdbqt.pdb
REMARK  6 active torsions:
REMARK  status: ('A' for Active; 'I' for Inactive)
REMARK    1  A    between atoms: C_1  and  S_7
REMARK    2  A    between atoms: C_3  and  C_18
REMARK    3  A    between atoms: S_7  and  N_10
REMARK    4  A    between atoms: N_10  and  C_12
REMARK    5  A    between atoms: C_19  and  C_20
REMARK    6  A    between atoms: N_22  and  O_24
REMARK                            x       y       z     vdW  Elec       q    Type
REMARK                         _______ _______ _______ _____ _____    ______ ____
ROOT
ATOM      1  C   UNL     1      -8.982  -7.059  27.274  0.00  0.00    +0.000 A 
ATOM      2  C   UNL     1      -9.320  -5.711  27.236  0.00  0.00    +0.000 A 
ATOM      3  C   UNL     1      -8.599  -4.857  26.407  0.00  0.00    +0.000 A 
ATOM      4  C   UNL     1      -7.962  -7.575  26.481  0.00  0.00    +0.000 A 
ATOM      5  C   UNL     1      -7.564  -5.355  25.617  0.00  0.00    +0.000 A 
ATOM      6  C   UNL     1      -7.247  -6.714  25.653  0.00  0.00    +0.000 A 
ENDROOT
BRANCH   1   7
ATOM      7  S   UNL     1      -9.910  -8.153  28.286  0.00  0.00    +0.000 S 
ATOM      8  O   UNL     1     -11.221  -7.563  28.457  0.00  0.00    +0.000 OA
ATOM      9  O   UNL     1      -9.097  -8.513  29.427  0.00  0.00    +0.000 OA
BRANCH   7  10
ATOM     10  N   UNL     1     -10.121  -9.499  27.312  0.00  0.00    +0.000 N 
ATOM     11  H   UNL     1      -9.316 -10.124  27.275  0.00  0.00    +0.000 HD
BRANCH  10  12
ATOM     12  C   UNL     1     -11.398  -9.975  26.901  0.00  0.00    +0.000 A 
ATOM     13  C   UNL     1     -12.116  -9.402  25.854  0.00  0.00    +0.000 A 
ATOM     14  C   UNL     1     -13.323  -9.958  25.439  0.00  0.00    +0.000 A 
ATOM     15  C   UNL     1     -13.805 -11.110  26.055  0.00  0.00    +0.000 A 
ATOM     16  C   UNL     1     -13.075 -11.708  27.078  0.00  0.00    +0.000 A 
ATOM     17  C   UNL     1     -11.869 -11.149  27.490  0.00  0.00    +0.000 A 
ENDBRANCH  10  12
ENDBRANCH   7  10
ENDBRANCH   1   7
BRANCH   3  18
ATOM     18  C   UNL     1      -8.923  -3.468  26.366  0.00  0.00    +0.000 C 
ATOM     19  C   UNL     1      -9.192  -2.299  26.330  0.00  0.00    +0.000 C 
BRANCH  19  20
ATOM     20  C   UNL     1      -9.515  -0.894  26.287  0.00  0.00    +0.000 C 
ATOM     21  O   UNL     1     -10.608  -0.520  25.876  0.00  0.00    +0.000 OA
ATOM     22  N   UNL     1      -8.543  -0.043  26.732  0.00  0.00    +0.000 N 
ATOM     23  H   UNL     1      -7.658  -0.339  27.128  0.00  0.00    +0.000 HD
BRANCH  22  24
ATOM     24  O   UNL     1      -8.842   1.337  26.750  0.00  0.00    +0.000 OA
ATOM     25  H   UNL     1      -7.975   1.743  26.968  0.00  0.00    +0.000 HD
ENDBRANCH  22  24
ENDBRANCH  19  20
ENDBRANCH   3  18
TORSDOF 6
ENDMDL
MODEL 5
REMARK VINA RESULT:      -5.3     19.972     22.067
REMARK  Name = Belinostat.pdbqt.pdb
REMARK  6 active torsions:
REMARK  status: ('A' for Active; 'I' for Inactive)
REMARK    1  A    between atoms: C_1  and  S_7
REMARK    2  A    between atoms: C_3  and  C_18
REMARK    3  A    between atoms: S_7  and  N_10
REMARK    4  A    between atoms: N_10  and  C_12
REMARK    5  A    between atoms: C_19  and  C_20
REMARK    6  A    between atoms: N_22  and  O_24
REMARK                            x       y       z     vdW  Elec       q    Type
REMARK                         _______ _______ _______ _____ _____    ______ ____
ROOT
ATOM      1  C   UNL     1     -12.523  -8.406   2.021  0.00  0.00    +0.000 A 
ATOM      2  C   UNL     1     -13.812  -7.887   1.995  0.00  0.00    +0.000 A 
ATOM      3  C   UNL     1     -14.442  -7.707   0.767  0.00  0.00    +0.000 A 
ATOM      4  C   UNL     1     -11.863  -8.774   0.853  0.00  0.00    +0.000 A 
ATOM      5  C   UNL     1     -13.789  -8.056  -0.414  0.00  0.00    +0.000 A 
ATOM      6  C   UNL     1     -12.501  -8.591  -0.370  0.00  0.00    +0.000 A 
ENDROOT
BRANCH   1   7
ATOM      7  S   UNL     1     -11.734  -8.676   3.567  0.00  0.00    +0.000 S 
ATOM      8  O   UNL     1     -11.379  -7.376   4.095  0.00  0.00    +0.000 OA
ATOM      9  O   UNL     1     -10.737  -9.709   3.391  0.00  0.00    +0.000 OA
BRANCH   7  10
ATOM     10  N   UNL     1     -12.968  -9.260   4.536  0.00  0.00    +0.000 N 
ATOM     11  H   UNL     1     -13.109 -10.268   4.480  0.00  0.00    +0.000 HD
BRANCH  10  12
ATOM     12  C   UNL     1     -13.504  -8.538   5.639  0.00  0.00    +0.000 A 
ATOM     13  C   UNL     1     -14.685  -7.803   5.558  0.00  0.00    +0.000 A 
ATOM     14  C   UNL     1     -15.209  -7.182   6.690  0.00  0.00    +0.000 A 
ATOM     15  C   UNL     1     -14.566  -7.318   7.916  0.00  0.00    +0.000 A 
ATOM     16  C   UNL     1     -13.406  -8.081   8.012  0.00  0.00    +0.000 A 
ATOM     17  C   UNL     1     -12.885  -8.699   6.879  0.00  0.00    +0.000 A 
ENDBRANCH  10  12
ENDBRANCH   7  10
ENDBRANCH   1   7
BRANCH   3  18
ATOM     18  C   UNL     1     -15.760  -7.162   0.720  0.00  0.00    +0.000 C 
ATOM     19  C   UNL     1     -16.870  -6.706   0.682  0.00  0.00    +0.000 C 
BRANCH  19  20
ATOM     20  C   UNL     1     -18.203  -6.158   0.638  0.00  0.00    +0.000 C 
ATOM     21  O   UNL     1     -19.137  -6.751   1.166  0.00  0.00    +0.000 OA
ATOM     22  N   UNL     1     -18.336  -4.962  -0.009  0.00  0.00    +0.000 N 
ATOM     23  H   UNL     1     -17.566  -4.431  -0.400  0.00  0.00    +0.000 HD
BRANCH  22  24
ATOM     24  O   UNL     1     -19.619  -4.370  -0.031  0.00  0.00    +0.000 OA
ATOM     25  H   UNL     1     -19.533  -3.695  -0.739  0.00  0.00    +0.000 HD
ENDBRANCH  22  24
ENDBRANCH  19  20
ENDBRANCH   3  18
TORSDOF 6
ENDMDL
MODEL 6
REMARK VINA RESULT:      -5.3      9.633     13.687
REMARK  Name = Belinostat.pdbqt.pdb
REMARK  6 active torsions:
REMARK  status: ('A' for Active; 'I' for Inactive)
REMARK    1  A    between atoms: C_1  and  S_7
REMARK    2  A    between atoms: C_3  and  C_18
REMARK    3  A    between atoms: S_7  and  N_10
REMARK    4  A    between atoms: N_10  and  C_12
REMARK    5  A    between atoms: C_19  and  C_20
REMARK    6  A    between atoms: N_22  and  O_24
REMARK                            x       y       z     vdW  Elec       q    Type
REMARK                         _______ _______ _______ _____ _____    ______ ____
ROOT
ATOM      1  C   UNL     1       9.739  -9.271  10.804  0.00  0.00    +0.000 A 
ATOM      2  C   UNL     1       8.626 -10.091  10.946  0.00  0.00    +0.000 A 
ATOM      3  C   UNL     1       8.813 -11.441  11.227  0.00  0.00    +0.000 A 
ATOM      4  C   UNL     1      11.030  -9.763  10.966  0.00  0.00    +0.000 A 
ATOM      5  C   UNL     1      10.101 -11.954  11.378  0.00  0.00    +0.000 A 
ATOM      6  C   UNL     1      11.208 -11.115  11.249  0.00  0.00    +0.000 A 
ENDROOT
BRANCH   1   7
ATOM      7  S   UNL     1       9.513  -7.558  10.489  0.00  0.00    +0.000 S 
ATOM      8  O   UNL     1      10.583  -7.144   9.608  0.00  0.00    +0.000 OA
ATOM      9  O   UNL     1       9.286  -6.892  11.754  0.00  0.00    +0.000 OA
BRANCH   7  10
ATOM     10  N   UNL     1       8.107  -7.512   9.581  0.00  0.00    +0.000 N 
ATOM     11  H   UNL     1       7.663  -8.419   9.443  0.00  0.00    +0.000 HD
BRANCH  10  12
ATOM     12  C   UNL     1       7.354  -6.324   9.366  0.00  0.00    +0.000 A 
ATOM     13  C   UNL     1       7.926  -5.054   9.388  0.00  0.00    +0.000 A 
ATOM     14  C   UNL     1       7.160  -3.929   9.090  0.00  0.00    +0.000 A 
ATOM     15  C   UNL     1       5.821  -4.074   8.740  0.00  0.00    +0.000 A 
ATOM     16  C   UNL     1       5.252  -5.343   8.681  0.00  0.00    +0.000 A 
ATOM     17  C   UNL     1       6.021  -6.465   8.981  0.00  0.00    +0.000 A 
ENDBRANCH  10  12
ENDBRANCH   7  10
ENDBRANCH   1   7
BRANCH   3  18
ATOM     18  C   UNL     1       7.682 -12.301  11.362  0.00  0.00    +0.000 C 
ATOM     19  C   UNL     1       6.732 -13.026  11.473  0.00  0.00    +0.000 C 
BRANCH  19  20
ATOM     20  C   UNL     1       5.590 -13.897  11.605  0.00  0.00    +0.000 C 
ATOM     21  O   UNL     1       5.718 -15.111  11.496  0.00  0.00    +0.000 OA
ATOM     22  N   UNL     1       4.396 -13.283  11.862  0.00  0.00    +0.000 N 
ATOM     23  H   UNL     1       4.283 -12.287  12.011  0.00  0.00    +0.000 HD
BRANCH  22  24
ATOM     24  O   UNL     1       3.264 -14.107  12.045  0.00  0.00    +0.000 OA
ATOM     25  H   UNL     1       3.460 -14.556  12.897  0.00  0.00    +0.000 HD
ENDBRANCH  22  24
ENDBRANCH  19  20
ENDBRANCH   3  18
TORSDOF 6
ENDMDL
MODEL 7
REMARK VINA RESULT:      -5.2     13.500     15.169
REMARK  Name = Belinostat.pdbqt.pdb
REMARK  6 active torsions:
REMARK  status: ('A' for Active; 'I' for Inactive)
REMARK    1  A    between atoms: C_1  and  S_7
REMARK    2  A    between atoms: C_3  and  C_18
REMARK    3  A    between atoms: S_7  and  N_10
REMARK    4  A    between atoms: N_10  and  C_12
REMARK    5  A    between atoms: C_19  and  C_20
REMARK    6  A    between atoms: N_22  and  O_24
REMARK                            x       y       z     vdW  Elec       q    Type
REMARK                         _______ _______ _______ _____ _____    ______ ____
ROOT
ATOM      1  C   UNL     1      -6.827  -7.030  28.058  0.00  0.00    +0.000 A 
ATOM      2  C   UNL     1      -7.956  -7.814  27.857  0.00  0.00    +0.000 A 
ATOM      3  C   UNL     1      -8.713  -7.625  26.705  0.00  0.00    +0.000 A 
ATOM      4  C   UNL     1      -6.422  -6.084  27.121  0.00  0.00    +0.000 A 
ATOM      5  C   UNL     1      -8.331  -6.670  25.763  0.00  0.00    +0.000 A 
ATOM      6  C   UNL     1      -7.185  -5.901  25.971  0.00  0.00    +0.000 A 
ENDROOT
BRANCH   1   7
ATOM      7  S   UNL     1      -5.841  -7.288  29.488  0.00  0.00    +0.000 S 
ATOM      8  O   UNL     1      -6.522  -8.273  30.300  0.00  0.00    +0.000 OA
ATOM      9  O   UNL     1      -5.479  -5.996  30.027  0.00  0.00    +0.000 OA
BRANCH   7  10
ATOM     10  N   UNL     1      -4.470  -8.038  28.884  0.00  0.00    +0.000 N 
ATOM     11  H   UNL     1      -4.653  -8.746  28.176  0.00  0.00    +0.000 HD
BRANCH  10  12
ATOM     12  C   UNL     1      -3.162  -7.490  29.007  0.00  0.00    +0.000 A 
ATOM     13  C   UNL     1      -2.386  -7.638  30.155  0.00  0.00    +0.000 A 
ATOM     14  C   UNL     1      -1.081  -7.153  30.192  0.00  0.00    +0.000 A 
ATOM     15  C   UNL     1      -0.536  -6.540  29.068  0.00  0.00    +0.000 A 
ATOM     16  C   UNL     1      -1.293  -6.421  27.905  0.00  0.00    +0.000 A 
ATOM     17  C   UNL     1      -2.597  -6.907  27.873  0.00  0.00    +0.000 A 
ENDBRANCH  10  12
ENDBRANCH   7  10
ENDBRANCH   1   7
BRANCH   3  18
ATOM     18  C   UNL     1      -9.884  -8.411  26.488  0.00  0.00    +0.000 C 
ATOM     19  C   UNL     1     -10.871  -9.070  26.306  0.00  0.00    +0.000 C 
BRANCH  19  20
ATOM     20  C   UNL     1     -12.057  -9.861  26.086  0.00  0.00    +0.000 C 
ATOM     21  O   UNL     1     -12.256 -10.877  26.741  0.00  0.00    +0.000 OA
ATOM     22  N   UNL     1     -12.915  -9.398  25.129  0.00  0.00    +0.000 N 
ATOM     23  H   UNL     1     -12.794  -8.531  24.620  0.00  0.00    +0.000 HD
BRANCH  22  24
ATOM     24  O   UNL     1     -14.111 -10.121  24.920  0.00  0.00    +0.000 OA
ATOM     25  H   UNL     1     -14.360 -10.394  25.830  0.00  0.00    +0.000 HD
ENDBRANCH  22  24
ENDBRANCH  19  20
ENDBRANCH   3  18
TORSDOF 6
ENDMDL
MODEL 8
REMARK VINA RESULT:      -5.2     21.712     23.275
REMARK  Name = Belinostat.pdbqt.pdb
REMARK  6 active torsions:
REMARK  status: ('A' for Active; 'I' for Inactive)
REMARK    1  A    between atoms: C_1  and  S_7
REMARK    2  A    between atoms: C_3  and  C_18
REMARK    3  A    between atoms: S_7  and  N_10
REMARK    4  A    between atoms: N_10  and  C_12
REMARK    5  A    between atoms: C_19  and  C_20
REMARK    6  A    between atoms: N_22  and  O_24
REMARK                            x       y       z     vdW  Elec       q    Type
REMARK                         _______ _______ _______ _____ _____    ______ ____
ROOT
ATOM      1  C   UNL     1     -19.475  -2.137  21.491  0.00  0.00    +0.000 A 
ATOM      2  C   UNL     1     -19.426  -2.852  20.300  0.00  0.00    +0.000 A 
ATOM      3  C   UNL     1     -19.522  -4.239  20.341  0.00  0.00    +0.000 A 
ATOM      4  C   UNL     1     -19.647  -2.775  22.716  0.00  0.00    +0.000 A 
ATOM      5  C   UNL     1     -19.679  -4.896  21.561  0.00  0.00    +0.000 A 
ATOM      6  C   UNL     1     -19.743  -4.164  22.747  0.00  0.00    +0.000 A 
ENDROOT
BRANCH   1   7
ATOM      7  S   UNL     1     -19.397  -0.383  21.448  0.00  0.00    +0.000 S 
ATOM      8  O   UNL     1     -18.105  -0.004  21.978  0.00  0.00    +0.000 OA
ATOM      9  O   UNL     1     -20.621   0.138  22.017  0.00  0.00    +0.000 OA
BRANCH   7  10
ATOM     10  N   UNL     1     -19.358  -0.036  19.810  0.00  0.00    +0.000 N 
ATOM     11  H   UNL     1     -18.645  -0.544  19.288  0.00  0.00    +0.000 HD
BRANCH  10  12
ATOM     12  C   UNL     1     -20.443   0.566  19.113  0.00  0.00    +0.000 A 
ATOM     13  C   UNL     1     -20.432   1.899  18.708  0.00  0.00    +0.000 A 
ATOM     14  C   UNL     1     -21.485   2.417  17.956  0.00  0.00    +0.000 A 
ATOM     15  C   UNL     1     -22.542   1.592  17.583  0.00  0.00    +0.000 A 
ATOM     16  C   UNL     1     -22.541   0.250  17.953  0.00  0.00    +0.000 A 
ATOM     17  C   UNL     1     -21.488  -0.263  18.705  0.00  0.00    +0.000 A 
ENDBRANCH  10  12
ENDBRANCH   7  10
ENDBRANCH   1   7
BRANCH   3  18
ATOM     18  C   UNL     1     -19.459  -4.991  19.130  0.00  0.00    +0.000 C 
ATOM     19  C   UNL     1     -19.404  -5.621  18.109  0.00  0.00    +0.000 C 
BRANCH  19  20
ATOM     20  C   UNL     1     -19.338  -6.377  16.883  0.00  0.00    +0.000 C 
ATOM     21  O   UNL     1     -20.175  -7.237  16.637  0.00  0.00    +0.000 OA
ATOM     22  N   UNL     1     -18.308  -6.062  16.042  0.00  0.00    +0.000 N 
ATOM     23  H   UNL     1     -17.642  -5.315  16.203  0.00  0.00    +0.000 HD
BRANCH  22  24
ATOM     24  O   UNL     1     -18.238  -6.749  14.809  0.00  0.00    +0.000 OA
ATOM     25  H   UNL     1     -18.038  -6.029  14.172  0.00  0.00    +0.000 HD
ENDBRANCH  22  24
ENDBRANCH  19  20
ENDBRANCH   3  18
TORSDOF 6
ENDMDL
MODEL 9
REMARK VINA RESULT:      -5.1      5.048     10.380
REMARK  Name = Belinostat.pdbqt.pdb
REMARK  6 active torsions:
REMARK  status: ('A' for Active; 'I' for Inactive)
REMARK    1  A    between atoms: C_1  and  S_7
REMARK    2  A    between atoms: C_3  and  C_18
REMARK    3  A    between atoms: S_7  and  N_10
REMARK    4  A    between atoms: N_10  and  C_12
REMARK    5  A    between atoms: C_19  and  C_20
REMARK    6  A    between atoms: N_22  and  O_24
REMARK                            x       y       z     vdW  Elec       q    Type
REMARK                         _______ _______ _______ _____ _____    ______ ____
ROOT
ATOM      1  C   UNL     1       4.770 -12.844  12.649  0.00  0.00    +0.000 A 
ATOM      2  C   UNL     1       4.001 -12.831  13.807  0.00  0.00    +0.000 A 
ATOM      3  C   UNL     1       3.172 -11.741  14.054  0.00  0.00    +0.000 A 
ATOM      4  C   UNL     1       4.707 -11.809  11.722  0.00  0.00    +0.000 A 
ATOM      5  C   UNL     1       3.108 -10.687  13.142  0.00  0.00    +0.000 A 
ATOM      6  C   UNL     1       3.874 -10.723  11.976  0.00  0.00    +0.000 A 
ENDROOT
BRANCH   1   7
ATOM      7  S   UNL     1       5.789 -14.233  12.307  0.00  0.00    +0.000 S 
ATOM      8  O   UNL     1       6.109 -14.187  10.896  0.00  0.00    +0.000 OA
ATOM      9  O   UNL     1       5.172 -15.402  12.896  0.00  0.00    +0.000 OA
BRANCH   7  10
ATOM     10  N   UNL     1       7.207 -13.886  13.127  0.00  0.00    +0.000 N 
ATOM     11  H   UNL     1       7.329 -14.401  13.998  0.00  0.00    +0.000 HD
BRANCH  10  12
ATOM     12  C   UNL     1       8.334 -13.271  12.512  0.00  0.00    +0.000 A 
ATOM     13  C   UNL     1       8.353 -11.928  12.144  0.00  0.00    +0.000 A 
ATOM     14  C   UNL     1       9.511 -11.355  11.621  0.00  0.00    +0.000 A 
ATOM     15  C   UNL     1      10.666 -12.120  11.491  0.00  0.00    +0.000 A 
ATOM     16  C   UNL     1      10.665 -13.454  11.892  0.00  0.00    +0.000 A 
ATOM     17  C   UNL     1       9.505 -14.022  12.413  0.00  0.00    +0.000 A 
ENDBRANCH  10  12
ENDBRANCH   7  10
ENDBRANCH   1   7
BRANCH   3  18
ATOM     18  C   UNL     1       2.386 -11.703  15.244  0.00  0.00    +0.000 C 
ATOM     19  C   UNL     1       1.725 -11.667  16.246  0.00  0.00    +0.000 C 
BRANCH  19  20
ATOM     20  C   UNL     1       0.932 -11.625  17.449  0.00  0.00    +0.000 C 
ATOM     21  O   UNL     1       0.818 -10.581  18.082  0.00  0.00    +0.000 OA
ATOM     22  N   UNL     1       0.329 -12.797  17.810  0.00  0.00    +0.000 N 
ATOM     23  H   UNL     1       0.365 -13.652  17.267  0.00  0.00    +0.000 HD
BRANCH  22  24
ATOM     24  O   UNL     1      -0.496 -12.782  18.956  0.00  0.00    +0.000 OA
ATOM     25  H   UNL     1      -1.107 -13.532  18.792  0.00  0.00    +0.000 HD
ENDBRANCH  22  24
ENDBRANCH  19  20
ENDBRANCH   3  18
TORSDOF 6
ENDMDL
