MODEL 1
REMARK VINA RESULT:      -7.2      0.000      0.000
REMARK  Name = Benzo[a]pyrene.pdbqt.pdb
REMARK  0 active torsions:
REMARK  status: ('A' for Active; 'I' for Inactive)
REMARK                            x       y       z     vdW  Elec       q    Type
REMARK                         _______ _______ _______ _____ _____    ______ ____
ROOT
ATOM      1  C   UNL     1      -7.000   7.364   4.078  0.00  0.00    +0.000 A 
ATOM      2  C   UNL     1      -7.546   6.959   5.316  0.00  0.00    +0.000 A 
ATOM      3  C   UNL     1      -6.166   8.502   4.002  0.00  0.00    +0.000 A 
ATOM      4  C   UNL     1      -7.299   6.617   2.918  0.00  0.00    +0.000 A 
ATOM      5  C   UNL     1      -5.633   8.886   2.747  0.00  0.00    +0.000 A 
ATOM      6  C   UNL     1      -7.260   7.690   6.486  0.00  0.00    +0.000 A 
ATOM      7  C   UNL     1      -8.378   5.821   5.386  0.00  0.00    +0.000 A 
ATOM      8  C   UNL     1      -5.945   8.124   1.597  0.00  0.00    +0.000 A 
ATOM      9  C   UNL     1      -6.768   7.006   1.693  0.00  0.00    +0.000 A 
ATOM     10  C   UNL     1      -5.903   9.208   5.189  0.00  0.00    +0.000 A 
ATOM     11  C   UNL     1      -8.123   5.495   3.003  0.00  0.00    +0.000 A 
ATOM     12  C   UNL     1      -6.439   8.812   6.413  0.00  0.00    +0.000 A 
ATOM     13  C   UNL     1      -8.659   5.099   4.228  0.00  0.00    +0.000 A 
ATOM     14  C   UNL     1      -7.803   7.283   7.705  0.00  0.00    +0.000 A 
ATOM     15  C   UNL     1      -8.911   5.430   6.614  0.00  0.00    +0.000 A 
ATOM     16  C   UNL     1      -4.797  10.004   2.588  0.00  0.00    +0.000 A 
ATOM     17  C   UNL     1      -5.431   8.484   0.352  0.00  0.00    +0.000 A 
ATOM     18  C   UNL     1      -8.624   6.158   7.769  0.00  0.00    +0.000 A 
ATOM     19  C   UNL     1      -4.287  10.358   1.341  0.00  0.00    +0.000 A 
ATOM     20  C   UNL     1      -4.604   9.597   0.222  0.00  0.00    +0.000 A 
ENDROOT
TORSDOF 0
ENDMDL
MODEL 2
REMARK VINA RESULT:      -6.5      1.265      2.232
REMARK  Name = Benzo[a]pyrene.pdbqt.pdb
REMARK  0 active torsions:
REMARK  status: ('A' for Active; 'I' for Inactive)
REMARK                            x       y       z     vdW  Elec       q    Type
REMARK                         _______ _______ _______ _____ _____    ______ ____
ROOT
ATOM      1  C   UNL     1      -5.817   8.663   3.263  0.00  0.00    +0.000 A 
ATOM      2  C   UNL     1      -6.101   8.665   4.647  0.00  0.00    +0.000 A 
ATOM      3  C   UNL     1      -4.980   9.655   2.703  0.00  0.00    +0.000 A 
ATOM      4  C   UNL     1      -6.378   7.658   2.448  0.00  0.00    +0.000 A 
ATOM      5  C   UNL     1      -4.712   9.629   1.312  0.00  0.00    +0.000 A 
ATOM      6  C   UNL     1      -5.550   9.660   5.479  0.00  0.00    +0.000 A 
ATOM      7  C   UNL     1      -6.936   7.672   5.200  0.00  0.00    +0.000 A 
ATOM      8  C   UNL     1      -5.285   8.613   0.513  0.00  0.00    +0.000 A 
ATOM      9  C   UNL     1      -6.106   7.644   1.084  0.00  0.00    +0.000 A 
ATOM     10  C   UNL     1      -4.449  10.632   3.563  0.00  0.00    +0.000 A 
ATOM     11  C   UNL     1      -7.202   6.683   3.009  0.00  0.00    +0.000 A 
ATOM     12  C   UNL     1      -4.726  10.639   4.929  0.00  0.00    +0.000 A 
ATOM     13  C   UNL     1      -7.480   6.689   4.376  0.00  0.00    +0.000 A 
ATOM     14  C   UNL     1      -5.836   9.655   6.844  0.00  0.00    +0.000 A 
ATOM     15  C   UNL     1      -7.210   7.684   6.568  0.00  0.00    +0.000 A 
ATOM     16  C   UNL     1      -3.892  10.579   0.681  0.00  0.00    +0.000 A 
ATOM     17  C   UNL     1      -5.034   8.568  -0.858  0.00  0.00    +0.000 A 
ATOM     18  C   UNL     1      -6.662   8.671   7.386  0.00  0.00    +0.000 A 
ATOM     19  C   UNL     1      -3.646  10.528  -0.689  0.00  0.00    +0.000 A 
ATOM     20  C   UNL     1      -4.217   9.522  -1.459  0.00  0.00    +0.000 A 
ENDROOT
TORSDOF 0
ENDMDL
MODEL 3
REMARK VINA RESULT:      -6.4     24.338     25.256
REMARK  Name = Benzo[a]pyrene.pdbqt.pdb
REMARK  0 active torsions:
REMARK  status: ('A' for Active; 'I' for Inactive)
REMARK                            x       y       z     vdW  Elec       q    Type
REMARK                         _______ _______ _______ _____ _____    ______ ____
ROOT
ATOM      1  C   UNL     1     -13.282 -15.607  10.714  0.00  0.00    +0.000 A 
ATOM      2  C   UNL     1     -14.139 -15.373  11.813  0.00  0.00    +0.000 A 
ATOM      3  C   UNL     1     -12.046 -16.266  10.899  0.00  0.00    +0.000 A 
ATOM      4  C   UNL     1     -13.677 -15.174   9.430  0.00  0.00    +0.000 A 
ATOM      5  C   UNL     1     -11.207 -16.487   9.779  0.00  0.00    +0.000 A 
ATOM      6  C   UNL     1     -13.764 -15.797  13.103  0.00  0.00    +0.000 A 
ATOM      7  C   UNL     1     -15.372 -14.715  11.622  0.00  0.00    +0.000 A 
ATOM      8  C   UNL     1     -11.621 -16.045   8.502  0.00  0.00    +0.000 A 
ATOM      9  C   UNL     1     -12.843 -15.398   8.340  0.00  0.00    +0.000 A 
ATOM     10  C   UNL     1     -11.704 -16.675  12.199  0.00  0.00    +0.000 A 
ATOM     11  C   UNL     1     -14.899 -14.525   9.258  0.00  0.00    +0.000 A 
ATOM     12  C   UNL     1     -12.546 -16.447  13.286  0.00  0.00    +0.000 A 
ATOM     13  C   UNL     1     -15.741 -14.296  10.345  0.00  0.00    +0.000 A 
ATOM     14  C   UNL     1     -14.616 -15.562  14.182  0.00  0.00    +0.000 A 
ATOM     15  C   UNL     1     -16.210 -14.489  12.714  0.00  0.00    +0.000 A 
ATOM     16  C   UNL     1      -9.963 -17.134   9.880  0.00  0.00    +0.000 A 
ATOM     17  C   UNL     1     -10.810 -16.252   7.386  0.00  0.00    +0.000 A 
ATOM     18  C   UNL     1     -15.833 -14.911  13.988  0.00  0.00    +0.000 A 
ATOM     19  C   UNL     1      -9.159 -17.338   8.762  0.00  0.00    +0.000 A 
ATOM     20  C   UNL     1      -9.583 -16.897   7.514  0.00  0.00    +0.000 A 
ENDROOT
TORSDOF 0
ENDMDL
MODEL 4
REMARK VINA RESULT:      -6.3     23.705     24.395
REMARK  Name = Benzo[a]pyrene.pdbqt.pdb
REMARK  0 active torsions:
REMARK  status: ('A' for Active; 'I' for Inactive)
REMARK                            x       y       z     vdW  Elec       q    Type
REMARK                         _______ _______ _______ _____ _____    ______ ____
ROOT
ATOM      1  C   UNL     1       8.526 -10.058  10.925  0.00  0.00    +0.000 A 
ATOM      2  C   UNL     1       9.436 -11.091  11.243  0.00  0.00    +0.000 A 
ATOM      3  C   UNL     1       8.997  -8.770  10.582  0.00  0.00    +0.000 A 
ATOM      4  C   UNL     1       7.141 -10.329  10.953  0.00  0.00    +0.000 A 
ATOM      5  C   UNL     1       8.062  -7.754  10.267  0.00  0.00    +0.000 A 
ATOM      6  C   UNL     1      10.822 -10.842  11.220  0.00  0.00    +0.000 A 
ATOM      7  C   UNL     1       8.959 -12.374  11.584  0.00  0.00    +0.000 A 
ATOM      8  C   UNL     1       6.680  -8.045  10.302  0.00  0.00    +0.000 A 
ATOM      9  C   UNL     1       6.235  -9.320  10.642  0.00  0.00    +0.000 A 
ATOM     10  C   UNL     1      10.387  -8.558  10.569  0.00  0.00    +0.000 A 
ATOM     11  C   UNL     1       6.686 -11.602  11.293  0.00  0.00    +0.000 A 
ATOM     12  C   UNL     1      11.288  -9.574  10.883  0.00  0.00    +0.000 A 
ATOM     13  C   UNL     1       7.587 -12.619  11.606  0.00  0.00    +0.000 A 
ATOM     14  C   UNL     1      11.713 -11.867  11.536  0.00  0.00    +0.000 A 
ATOM     15  C   UNL     1       9.867 -13.386  11.896  0.00  0.00    +0.000 A 
ATOM     16  C   UNL     1       8.451  -6.449   9.917  0.00  0.00    +0.000 A 
ATOM     17  C   UNL     1       5.742  -7.060   9.996  0.00  0.00    +0.000 A 
ATOM     18  C   UNL     1      11.238 -13.134  11.872  0.00  0.00    +0.000 A 
ATOM     19  C   UNL     1       7.509  -5.469   9.612  0.00  0.00    +0.000 A 
ATOM     20  C   UNL     1       6.154  -5.775   9.652  0.00  0.00    +0.000 A 
ENDROOT
TORSDOF 0
ENDMDL
MODEL 5
REMARK VINA RESULT:      -6.3     24.379     27.721
REMARK  Name = Benzo[a]pyrene.pdbqt.pdb
REMARK  0 active torsions:
REMARK  status: ('A' for Active; 'I' for Inactive)
REMARK                            x       y       z     vdW  Elec       q    Type
REMARK                         _______ _______ _______ _____ _____    ______ ____
ROOT
ATOM      1  C   UNL     1      -9.676  -5.798  27.277  0.00  0.00    +0.000 A 
ATOM      2  C   UNL     1      -8.977  -4.650  26.842  0.00  0.00    +0.000 A 
ATOM      3  C   UNL     1      -9.343  -7.074  26.768  0.00  0.00    +0.000 A 
ATOM      4  C   UNL     1     -10.710  -5.655  28.226  0.00  0.00    +0.000 A 
ATOM      5  C   UNL     1     -10.060  -8.208  27.222  0.00  0.00    +0.000 A 
ATOM      6  C   UNL     1      -7.941  -4.771  25.894  0.00  0.00    +0.000 A 
ATOM      7  C   UNL     1      -9.314  -3.379  27.353  0.00  0.00    +0.000 A 
ATOM      8  C   UNL     1     -11.092  -8.042  28.174  0.00  0.00    +0.000 A 
ATOM      9  C   UNL     1     -11.405  -6.777  28.663  0.00  0.00    +0.000 A 
ATOM     10  C   UNL     1      -8.304  -7.157  25.824  0.00  0.00    +0.000 A 
ATOM     11  C   UNL     1     -11.032  -4.392  28.723  0.00  0.00    +0.000 A 
ATOM     12  C   UNL     1      -7.612  -6.027  25.392  0.00  0.00    +0.000 A 
ATOM     13  C   UNL     1     -10.340  -3.262  28.290  0.00  0.00    +0.000 A 
ATOM     14  C   UNL     1      -7.257  -3.632  25.470  0.00  0.00    +0.000 A 
ATOM     15  C   UNL     1      -8.618  -2.253  26.916  0.00  0.00    +0.000 A 
ATOM     16  C   UNL     1      -9.789  -9.509  26.765  0.00  0.00    +0.000 A 
ATOM     17  C   UNL     1     -11.811  -9.145  28.635  0.00  0.00    +0.000 A 
ATOM     18  C   UNL     1      -7.594  -2.379  25.979  0.00  0.00    +0.000 A 
ATOM     19  C   UNL     1     -10.511 -10.606  27.229  0.00  0.00    +0.000 A 
ATOM     20  C   UNL     1     -11.522 -10.424  28.165  0.00  0.00    +0.000 A 
ENDROOT
TORSDOF 0
ENDMDL
MODEL 6
REMARK VINA RESULT:      -6.2     28.217     30.500
REMARK  Name = Benzo[a]pyrene.pdbqt.pdb
REMARK  0 active torsions:
REMARK  status: ('A' for Active; 'I' for Inactive)
REMARK                            x       y       z     vdW  Elec       q    Type
REMARK                         _______ _______ _______ _____ _____    ______ ____
ROOT
ATOM      1  C   UNL     1      -7.383 -16.488  22.655  0.00  0.00    +0.000 A 
ATOM      2  C   UNL     1      -7.603 -16.493  24.050  0.00  0.00    +0.000 A 
ATOM      3  C   UNL     1      -6.089 -16.715  22.134  0.00  0.00    +0.000 A 
ATOM      4  C   UNL     1      -8.472 -16.255  21.788  0.00  0.00    +0.000 A 
ATOM      5  C   UNL     1      -5.897 -16.704  20.730  0.00  0.00    +0.000 A 
ATOM      6  C   UNL     1      -6.530 -16.724  24.933  0.00  0.00    +0.000 A 
ATOM      7  C   UNL     1      -8.897 -16.267  24.564  0.00  0.00    +0.000 A 
ATOM      8  C   UNL     1      -7.001 -16.469  19.880  0.00  0.00    +0.000 A 
ATOM      9  C   UNL     1      -8.269 -16.248  20.412  0.00  0.00    +0.000 A 
ATOM     10  C   UNL     1      -5.042 -16.941  23.044  0.00  0.00    +0.000 A 
ATOM     11  C   UNL     1      -9.745 -16.033  22.311  0.00  0.00    +0.000 A 
ATOM     12  C   UNL     1      -5.254 -16.947  24.422  0.00  0.00    +0.000 A 
ATOM     13  C   UNL     1      -9.958 -16.039  23.689  0.00  0.00    +0.000 A 
ATOM     14  C   UNL     1      -6.756 -16.727  26.309  0.00  0.00    +0.000 A 
ATOM     15  C   UNL     1      -9.103 -16.273  25.943  0.00  0.00    +0.000 A 
ATOM     16  C   UNL     1      -4.643 -16.920  20.136  0.00  0.00    +0.000 A 
ATOM     17  C   UNL     1      -6.835 -16.454  18.495  0.00  0.00    +0.000 A 
ATOM     18  C   UNL     1      -8.037 -16.502  26.812  0.00  0.00    +0.000 A 
ATOM     19  C   UNL     1      -4.483 -16.905  18.752  0.00  0.00    +0.000 A 
ATOM     20  C   UNL     1      -5.581 -16.672  17.931  0.00  0.00    +0.000 A 
ENDROOT
TORSDOF 0
ENDMDL
MODEL 7
REMARK VINA RESULT:      -6.2     26.528     28.341
REMARK  Name = Benzo[a]pyrene.pdbqt.pdb
REMARK  0 active torsions:
REMARK  status: ('A' for Active; 'I' for Inactive)
REMARK                            x       y       z     vdW  Elec       q    Type
REMARK                         _______ _______ _______ _____ _____    ______ ____
ROOT
ATOM      1  C   UNL     1     -12.310  -7.927  27.083  0.00  0.00    +0.000 A 
ATOM      2  C   UNL     1     -13.669  -8.121  27.414  0.00  0.00    +0.000 A 
ATOM      3  C   UNL     1     -11.662  -6.713  27.404  0.00  0.00    +0.000 A 
ATOM      4  C   UNL     1     -11.607  -8.962  26.429  0.00  0.00    +0.000 A 
ATOM      5  C   UNL     1     -10.298  -6.546  27.060  0.00  0.00    +0.000 A 
ATOM      6  C   UNL     1     -14.389  -7.101  28.067  0.00  0.00    +0.000 A 
ATOM      7  C   UNL     1     -14.311  -9.336  27.092  0.00  0.00    +0.000 A 
ATOM      8  C   UNL     1      -9.612  -7.594  26.405  0.00  0.00    +0.000 A 
ATOM      9  C   UNL     1     -10.268  -8.783  26.098  0.00  0.00    +0.000 A 
ATOM     10  C   UNL     1     -12.410  -5.717  28.055  0.00  0.00    +0.000 A 
ATOM     11  C   UNL     1     -12.255 -10.157  26.117  0.00  0.00    +0.000 A 
ATOM     12  C   UNL     1     -13.752  -5.904  28.383  0.00  0.00    +0.000 A 
ATOM     13  C   UNL     1     -13.597 -10.344  26.446  0.00  0.00    +0.000 A 
ATOM     14  C   UNL     1     -15.731  -7.301  28.390  0.00  0.00    +0.000 A 
ATOM     15  C   UNL     1     -15.653  -9.516  27.423  0.00  0.00    +0.000 A 
ATOM     16  C   UNL     1      -9.584  -5.369  27.344  0.00  0.00    +0.000 A 
ATOM     17  C   UNL     1      -8.269  -7.451  26.058  0.00  0.00    +0.000 A 
ATOM     18  C   UNL     1     -16.360  -8.503  28.069  0.00  0.00    +0.000 A 
ATOM     19  C   UNL     1      -8.242  -5.233  26.994  0.00  0.00    +0.000 A 
ATOM     20  C   UNL     1      -7.585  -6.274  26.351  0.00  0.00    +0.000 A 
ENDROOT
TORSDOF 0
ENDMDL
MODEL 8
REMARK VINA RESULT:      -6.1     26.954     28.942
REMARK  Name = Benzo[a]pyrene.pdbqt.pdb
REMARK  0 active torsions:
REMARK  status: ('A' for Active; 'I' for Inactive)
REMARK                            x       y       z     vdW  Elec       q    Type
REMARK                         _______ _______ _______ _____ _____    ______ ____
ROOT
ATOM      1  C   UNL     1     -13.290  -8.199  27.222  0.00  0.00    +0.000 A 
ATOM      2  C   UNL     1     -14.465  -8.982  27.197  0.00  0.00    +0.000 A 
ATOM      3  C   UNL     1     -12.090  -8.693  26.661  0.00  0.00    +0.000 A 
ATOM      4  C   UNL     1     -13.330  -6.918  27.812  0.00  0.00    +0.000 A 
ATOM      5  C   UNL     1     -10.926  -7.886  26.700  0.00  0.00    +0.000 A 
ATOM      6  C   UNL     1     -14.447 -10.264  26.612  0.00  0.00    +0.000 A 
ATOM      7  C   UNL     1     -15.660  -8.485  27.758  0.00  0.00    +0.000 A 
ATOM      8  C   UNL     1     -10.987  -6.605  27.296  0.00  0.00    +0.000 A 
ATOM      9  C   UNL     1     -12.179  -6.137  27.843  0.00  0.00    +0.000 A 
ATOM     10  C   UNL     1     -12.108  -9.975  26.086  0.00  0.00    +0.000 A 
ATOM     11  C   UNL     1     -14.518  -6.440  28.363  0.00  0.00    +0.000 A 
ATOM     12  C   UNL     1     -13.266 -10.752  26.060  0.00  0.00    +0.000 A 
ATOM     13  C   UNL     1     -15.676  -7.216  28.336  0.00  0.00    +0.000 A 
ATOM     14  C   UNL     1     -15.612 -11.030  26.593  0.00  0.00    +0.000 A 
ATOM     15  C   UNL     1     -16.815  -9.266  27.728  0.00  0.00    +0.000 A 
ATOM     16  C   UNL     1      -9.696  -8.304  26.165  0.00  0.00    +0.000 A 
ATOM     17  C   UNL     1      -9.854  -5.794  27.345  0.00  0.00    +0.000 A 
ATOM     18  C   UNL     1     -16.791 -10.534  27.148  0.00  0.00    +0.000 A 
ATOM     19  C   UNL     1      -8.568  -7.489  26.217  0.00  0.00    +0.000 A 
ATOM     20  C   UNL     1      -8.647  -6.233  26.808  0.00  0.00    +0.000 A 
ENDROOT
TORSDOF 0
ENDMDL
MODEL 9
REMARK VINA RESULT:      -6.0      2.642      4.629
REMARK  Name = Benzo[a]pyrene.pdbqt.pdb
REMARK  0 active torsions:
REMARK  status: ('A' for Active; 'I' for Inactive)
REMARK                            x       y       z     vdW  Elec       q    Type
REMARK                         _______ _______ _______ _____ _____    ______ ____
ROOT
ATOM      1  C   UNL     1      -4.656   9.580   1.296  0.00  0.00    +0.000 A 
ATOM      2  C   UNL     1      -4.793   9.823   2.681  0.00  0.00    +0.000 A 
ATOM      3  C   UNL     1      -3.747  10.338   0.523  0.00  0.00    +0.000 A 
ATOM      4  C   UNL     1      -5.438   8.571   0.695  0.00  0.00    +0.000 A 
ATOM      5  C   UNL     1      -3.630  10.072  -0.863  0.00  0.00    +0.000 A 
ATOM      6  C   UNL     1      -4.021  10.826   3.301  0.00  0.00    +0.000 A 
ATOM      7  C   UNL     1      -5.702   9.064   3.447  0.00  0.00    +0.000 A 
ATOM      8  C   UNL     1      -4.423   9.057  -1.446  0.00  0.00    +0.000 A 
ATOM      9  C   UNL     1      -5.313   8.322  -0.667  0.00  0.00    +0.000 A 
ATOM     10  C   UNL     1      -2.994  11.330   1.175  0.00  0.00    +0.000 A 
ATOM     11  C   UNL     1      -6.332   7.829   1.466  0.00  0.00    +0.000 A 
ATOM     12  C   UNL     1      -3.126  11.573   2.541  0.00  0.00    +0.000 A 
ATOM     13  C   UNL     1      -6.464   8.072   2.832  0.00  0.00    +0.000 A 
ATOM     14  C   UNL     1      -4.163  11.059   4.668  0.00  0.00    +0.000 A 
ATOM     15  C   UNL     1      -5.829   9.313   4.814  0.00  0.00    +0.000 A 
ATOM     16  C   UNL     1      -2.751  10.781  -1.699  0.00  0.00    +0.000 A 
ATOM     17  C   UNL     1      -4.325   8.779  -2.809  0.00  0.00    +0.000 A 
ATOM     18  C   UNL     1      -5.062  10.306   5.422  0.00  0.00    +0.000 A 
ATOM     19  C   UNL     1      -2.657  10.498  -3.060  0.00  0.00    +0.000 A 
ATOM     20  C   UNL     1      -3.444   9.497  -3.615  0.00  0.00    +0.000 A 
ENDROOT
TORSDOF 0
ENDMDL
