MODEL 1
REMARK VINA RESULT:      -6.4      0.000      0.000
REMARK  Name = Bicalutamide.pdbqt.pdb
REMARK  8 active torsions:
REMARK  status: ('A' for Active; 'I' for Inactive)
REMARK    1  A    between atoms: C_2  and  N_13
REMARK    2  A    between atoms: C_5  and  C_9
REMARK    3  A    between atoms: C_6  and  C_8
REMARK    4  A    between atoms: C_14  and  C_17
REMARK    5  A    between atoms: C_17  and  O_19
REMARK    6  A    between atoms: C_17  and  C_21
REMARK    7  A    between atoms: C_21  and  S_22
REMARK    8  A    between atoms: S_22  and  C_25
REMARK                            x       y       z     vdW  Elec       q    Type
REMARK                         _______ _______ _______ _____ _____    ______ ____
ROOT
ATOM      1  N   UNL     1       5.591  -9.728  11.716  0.00  0.00    +0.000 N 
ATOM      2  C   UNL     1       4.455 -10.514  11.895  0.00  0.00    +0.000 C 
ATOM      3  O   UNL     1       3.338 -10.247  11.441  0.00  0.00    +0.000 OA
ATOM      4  H   UNL     1       6.471 -10.115  12.059  0.00  0.00    +0.000 HD
ENDROOT
BRANCH   1   5
ATOM      5  C   UNL     1       5.645  -8.498  11.040  0.00  0.00    +0.000 A 
ATOM      6  C   UNL     1       5.736  -7.338  11.807  0.00  0.00    +0.000 A 
ATOM      7  C   UNL     1       5.601  -8.395   9.653  0.00  0.00    +0.000 A 
ATOM      8  C   UNL     1       5.786  -6.073  11.209  0.00  0.00    +0.000 A 
ATOM      9  C   UNL     1       5.742  -5.983   9.810  0.00  0.00    +0.000 A 
ATOM     10  C   UNL     1       5.649  -7.145   9.041  0.00  0.00    +0.000 A 
BRANCH   8  11
ATOM     11  C   UNL     1       5.883  -4.856  12.083  0.00  0.00    +0.000 C 
ATOM     12  F   UNL     1       4.854  -3.982  11.903  0.00  0.00    +0.000 F 
ATOM     13  F   UNL     1       5.878  -5.168  13.406  0.00  0.00    +0.000 F 
ATOM     14  F   UNL     1       7.018  -4.144  11.856  0.00  0.00    +0.000 F 
ENDBRANCH   8  11
BRANCH   9  16
ATOM     15  N   UNL     1       5.816  -3.706   8.577  0.00  0.00    +0.000 NA
ATOM     16  C   UNL     1       5.788  -4.728   9.123  0.00  0.00    +0.000 C 
ENDBRANCH   9  16
ENDBRANCH   1   5
BRANCH   2  17
ATOM     17  C   UNL     1       4.662 -11.806  12.785  0.00  0.00    +0.000 C 
ATOM     18  C   UNL     1       3.339 -12.611  12.929  0.00  0.00    +0.000 C 
BRANCH  17  19
ATOM     19  O   UNL     1       5.074 -11.442  14.092  0.00  0.00    +0.000 OA
ATOM     20  H   UNL     1       4.295 -11.615  14.654  0.00  0.00    +0.000 HD
ENDBRANCH  17  19
BRANCH  17  21
ATOM     21  C   UNL     1       5.685 -12.602  12.180  0.00  0.00    +0.000 C 
BRANCH  21  22
ATOM     22  S   UNL     1       6.998 -13.592  11.658  0.00  0.00    +0.000 S 
ATOM     23  O   UNL     1       6.434 -14.023  10.404  0.00  0.00    +0.000 OA
ATOM     24  O   UNL     1       7.092 -14.390  12.856  0.00  0.00    +0.000 OA
BRANCH  22  25
ATOM     25  C   UNL     1       8.401 -12.603  11.429  0.00  0.00    +0.000 A 
ATOM     26  C   UNL     1       9.631 -13.106  11.839  0.00  0.00    +0.000 A 
ATOM     27  C   UNL     1      10.770 -12.321  11.687  0.00  0.00    +0.000 A 
ATOM     28  C   UNL     1      10.655 -11.049  11.133  0.00  0.00    +0.000 A 
ATOM     29  F   UNL     1      11.753 -10.294  10.987  0.00  0.00    +0.000 F 
ATOM     30  C   UNL     1       9.421 -10.547  10.731  0.00  0.00    +0.000 A 
ATOM     31  C   UNL     1       8.281 -11.329  10.882  0.00  0.00    +0.000 A 
ENDBRANCH  22  25
ENDBRANCH  21  22
ENDBRANCH  17  21
ENDBRANCH   2  17
TORSDOF 8
ENDMDL
MODEL 2
REMARK VINA RESULT:      -6.2      3.984      7.740
REMARK  Name = Bicalutamide.pdbqt.pdb
REMARK  8 active torsions:
REMARK  status: ('A' for Active; 'I' for Inactive)
REMARK    1  A    between atoms: C_2  and  N_13
REMARK    2  A    between atoms: C_5  and  C_9
REMARK    3  A    between atoms: C_6  and  C_8
REMARK    4  A    between atoms: C_14  and  C_17
REMARK    5  A    between atoms: C_17  and  O_19
REMARK    6  A    between atoms: C_17  and  C_21
REMARK    7  A    between atoms: C_21  and  S_22
REMARK    8  A    between atoms: S_22  and  C_25
REMARK                            x       y       z     vdW  Elec       q    Type
REMARK                         _______ _______ _______ _____ _____    ______ ____
ROOT
ATOM      1  N   UNL     1       7.467  -9.237  11.199  0.00  0.00    +0.000 N 
ATOM      2  C   UNL     1       8.278  -8.634  12.157  0.00  0.00    +0.000 C 
ATOM      3  O   UNL     1       8.463  -9.072  13.297  0.00  0.00    +0.000 OA
ATOM      4  H   UNL     1       7.482  -8.825  10.265  0.00  0.00    +0.000 HD
ENDROOT
BRANCH   1   5
ATOM      5  C   UNL     1       6.701 -10.400  11.380  0.00  0.00    +0.000 A 
ATOM      6  C   UNL     1       5.360 -10.247  11.732  0.00  0.00    +0.000 A 
ATOM      7  C   UNL     1       7.224 -11.681  11.236  0.00  0.00    +0.000 A 
ATOM      8  C   UNL     1       4.532 -11.356  11.939  0.00  0.00    +0.000 A 
ATOM      9  C   UNL     1       5.072 -12.642  11.789  0.00  0.00    +0.000 A 
ATOM     10  C   UNL     1       6.415 -12.796  11.439  0.00  0.00    +0.000 A 
BRANCH   8  11
ATOM     11  C   UNL     1       3.096 -11.135  12.316  0.00  0.00    +0.000 C 
ATOM     12  F   UNL     1       2.670 -11.957  13.315  0.00  0.00    +0.000 F 
ATOM     13  F   UNL     1       2.866  -9.869  12.753  0.00  0.00    +0.000 F 
ATOM     14  F   UNL     1       2.248 -11.346  11.275  0.00  0.00    +0.000 F 
ENDBRANCH   8  11
BRANCH   9  16
ATOM     15  N   UNL     1       3.653 -14.783  12.128  0.00  0.00    +0.000 NA
ATOM     16  C   UNL     1       4.292 -13.827  11.983  0.00  0.00    +0.000 C 
ENDBRANCH   9  16
ENDBRANCH   1   5
BRANCH   2  17
ATOM     17  C   UNL     1       8.952  -7.273  11.711  0.00  0.00    +0.000 C 
ATOM     18  C   UNL     1      10.395  -7.503  11.182  0.00  0.00    +0.000 C 
BRANCH  17  19
ATOM     19  O   UNL     1       9.046  -6.387  12.815  0.00  0.00    +0.000 OA
ATOM     20  H   UNL     1       8.199  -6.490  13.288  0.00  0.00    +0.000 HD
ENDBRANCH  17  19
BRANCH  17  21
ATOM     21  C   UNL     1       8.125  -6.677  10.707  0.00  0.00    +0.000 C 
BRANCH  21  22
ATOM     22  S   UNL     1       7.080  -6.167   9.433  0.00  0.00    +0.000 S 
ATOM     23  O   UNL     1       5.948  -6.995   9.762  0.00  0.00    +0.000 OA
ATOM     24  O   UNL     1       8.008  -6.402   8.353  0.00  0.00    +0.000 OA
BRANCH  22  25
ATOM     25  C   UNL     1       6.727  -4.483   9.625  0.00  0.00    +0.000 A 
ATOM     26  C   UNL     1       5.397  -4.080   9.557  0.00  0.00    +0.000 A 
ATOM     27  C   UNL     1       5.089  -2.729   9.685  0.00  0.00    +0.000 A 
ATOM     28  C   UNL     1       6.117  -1.809   9.874  0.00  0.00    +0.000 A 
ATOM     29  F   UNL     1       5.820  -0.508   9.997  0.00  0.00    +0.000 F 
ATOM     30  C   UNL     1       7.447  -2.215   9.934  0.00  0.00    +0.000 A 
ATOM     31  C   UNL     1       7.757  -3.565   9.806  0.00  0.00    +0.000 A 
ENDBRANCH  22  25
ENDBRANCH  21  22
ENDBRANCH  17  21
ENDBRANCH   2  17
TORSDOF 8
ENDMDL
MODEL 3
REMARK VINA RESULT:      -6.1      3.717      5.978
REMARK  Name = Bicalutamide.pdbqt.pdb
REMARK  8 active torsions:
REMARK  status: ('A' for Active; 'I' for Inactive)
REMARK    1  A    between atoms: C_2  and  N_13
REMARK    2  A    between atoms: C_5  and  C_9
REMARK    3  A    between atoms: C_6  and  C_8
REMARK    4  A    between atoms: C_14  and  C_17
REMARK    5  A    between atoms: C_17  and  O_19
REMARK    6  A    between atoms: C_17  and  C_21
REMARK    7  A    between atoms: C_21  and  S_22
REMARK    8  A    between atoms: S_22  and  C_25
REMARK                            x       y       z     vdW  Elec       q    Type
REMARK                         _______ _______ _______ _____ _____    ______ ____
ROOT
ATOM      1  N   UNL     1       5.052  -9.852  12.590  0.00  0.00    +0.000 N 
ATOM      2  C   UNL     1       3.947 -10.618  12.227  0.00  0.00    +0.000 C 
ATOM      3  O   UNL     1       3.053 -10.243  11.461  0.00  0.00    +0.000 OA
ATOM      4  H   UNL     1       5.766 -10.320  13.150  0.00  0.00    +0.000 HD
ENDROOT
BRANCH   1   5
ATOM      5  C   UNL     1       5.309  -8.532  12.187  0.00  0.00    +0.000 A 
ATOM      6  C   UNL     1       5.386  -8.273  10.819  0.00  0.00    +0.000 A 
ATOM      7  C   UNL     1       5.499  -7.489  13.088  0.00  0.00    +0.000 A 
ATOM      8  C   UNL     1       5.648  -6.985  10.337  0.00  0.00    +0.000 A 
ATOM      9  C   UNL     1       5.836  -5.943  11.256  0.00  0.00    +0.000 A 
ATOM     10  C   UNL     1       5.761  -6.201  12.626  0.00  0.00    +0.000 A 
BRANCH   8  11
ATOM     11  C   UNL     1       5.720  -6.762   8.854  0.00  0.00    +0.000 C 
ATOM     12  F   UNL     1       4.869  -5.795   8.414  0.00  0.00    +0.000 F 
ATOM     13  F   UNL     1       6.959  -6.378   8.449  0.00  0.00    +0.000 F 
ATOM     14  F   UNL     1       5.410  -7.879   8.145  0.00  0.00    +0.000 F 
ENDBRANCH   8  11
BRANCH   9  16
ATOM     15  N   UNL     1       6.317  -3.506  10.518  0.00  0.00    +0.000 NA
ATOM     16  C   UNL     1       6.107  -4.599  10.843  0.00  0.00    +0.000 C 
ENDBRANCH   9  16
ENDBRANCH   1   5
BRANCH   2  17
ATOM     17  C   UNL     1       3.861 -12.044  12.908  0.00  0.00    +0.000 C 
ATOM     18  C   UNL     1       4.733 -13.086  12.151  0.00  0.00    +0.000 C 
BRANCH  17  19
ATOM     19  O   UNL     1       2.525 -12.521  12.885  0.00  0.00    +0.000 OA
ATOM     20  H   UNL     1       2.605 -13.466  12.656  0.00  0.00    +0.000 HD
ENDBRANCH  17  19
BRANCH  17  21
ATOM     21  C   UNL     1       4.283 -11.912  14.269  0.00  0.00    +0.000 C 
BRANCH  21  22
ATOM     22  S   UNL     1       4.748 -11.536  15.887  0.00  0.00    +0.000 S 
ATOM     23  O   UNL     1       5.196 -10.186  15.655  0.00  0.00    +0.000 OA
ATOM     24  O   UNL     1       5.602 -12.682  16.086  0.00  0.00    +0.000 OA
BRANCH  22  25
ATOM     25  C   UNL     1       3.351 -11.587  16.908  0.00  0.00    +0.000 A 
ATOM     26  C   UNL     1       3.537 -11.449  18.280  0.00  0.00    +0.000 A 
ATOM     27  C   UNL     1       2.431 -11.509  19.124  0.00  0.00    +0.000 A 
ATOM     28  C   UNL     1       1.166 -11.711  18.580  0.00  0.00    +0.000 A 
ATOM     29  F   UNL     1       0.102 -11.769  19.393  0.00  0.00    +0.000 F 
ATOM     30  C   UNL     1       0.986 -11.855  17.207  0.00  0.00    +0.000 A 
ATOM     31  C   UNL     1       2.089 -11.796  16.362  0.00  0.00    +0.000 A 
ENDBRANCH  22  25
ENDBRANCH  21  22
ENDBRANCH  17  21
ENDBRANCH   2  17
TORSDOF 8
ENDMDL
MODEL 4
REMARK VINA RESULT:      -6.0     16.233     17.867
REMARK  Name = Bicalutamide.pdbqt.pdb
REMARK  8 active torsions:
REMARK  status: ('A' for Active; 'I' for Inactive)
REMARK    1  A    between atoms: C_2  and  N_13
REMARK    2  A    between atoms: C_5  and  C_9
REMARK    3  A    between atoms: C_6  and  C_8
REMARK    4  A    between atoms: C_14  and  C_17
REMARK    5  A    between atoms: C_17  and  O_19
REMARK    6  A    between atoms: C_17  and  C_21
REMARK    7  A    between atoms: C_21  and  S_22
REMARK    8  A    between atoms: S_22  and  C_25
REMARK                            x       y       z     vdW  Elec       q    Type
REMARK                         _______ _______ _______ _____ _____    ______ ____
ROOT
ATOM      1  N   UNL     1      -4.615  -5.234   0.242  0.00  0.00    +0.000 N 
ATOM      2  C   UNL     1      -5.451  -6.307  -0.055  0.00  0.00    +0.000 C 
ATOM      3  O   UNL     1      -6.033  -6.467  -1.133  0.00  0.00    +0.000 OA
ATOM      4  H   UNL     1      -4.119  -5.277   1.133  0.00  0.00    +0.000 HD
ENDROOT
BRANCH   1   5
ATOM      5  C   UNL     1      -4.334  -4.149  -0.603  0.00  0.00    +0.000 A 
ATOM      6  C   UNL     1      -3.416  -4.349  -1.634  0.00  0.00    +0.000 A 
ATOM      7  C   UNL     1      -4.917  -2.895  -0.446  0.00  0.00    +0.000 A 
ATOM      8  C   UNL     1      -3.075  -3.316  -2.514  0.00  0.00    +0.000 A 
ATOM      9  C   UNL     1      -3.672  -2.058  -2.346  0.00  0.00    +0.000 A 
ATOM     10  C   UNL     1      -4.588  -1.855  -1.312  0.00  0.00    +0.000 A 
BRANCH   8  11
ATOM     11  C   UNL     1      -2.082  -3.586  -3.607  0.00  0.00    +0.000 C 
ATOM     12  F   UNL     1      -0.994  -2.768  -3.560  0.00  0.00    +0.000 F 
ATOM     13  F   UNL     1      -1.594  -4.854  -3.560  0.00  0.00    +0.000 F 
ATOM     14  F   UNL     1      -2.616  -3.422  -4.846  0.00  0.00    +0.000 F 
ENDBRANCH   8  11
BRANCH   9  16
ATOM     15  N   UNL     1      -3.144  -0.059  -3.908  0.00  0.00    +0.000 NA
ATOM     16  C   UNL     1      -3.375  -0.951  -3.203  0.00  0.00    +0.000 C 
ENDBRANCH   9  16
ENDBRANCH   1   5
BRANCH   2  17
ATOM     17  C   UNL     1      -5.666  -7.342   1.124  0.00  0.00    +0.000 C 
ATOM     18  C   UNL     1      -5.595  -6.642   2.510  0.00  0.00    +0.000 C 
BRANCH  17  19
ATOM     19  O   UNL     1      -4.650  -8.331   1.101  0.00  0.00    +0.000 OA
ATOM     20  H   UNL     1      -3.831  -7.849   1.324  0.00  0.00    +0.000 HD
ENDBRANCH  17  19
BRANCH  17  21
ATOM     21  C   UNL     1      -6.935  -7.975   0.933  0.00  0.00    +0.000 C 
BRANCH  21  22
ATOM     22  S   UNL     1      -8.350  -8.929   0.681  0.00  0.00    +0.000 S 
ATOM     23  O   UNL     1      -8.661  -8.475  -0.651  0.00  0.00    +0.000 OA
ATOM     24  O   UNL     1      -9.036  -8.531   1.886  0.00  0.00    +0.000 OA
BRANCH  22  25
ATOM     25  C   UNL     1      -7.919 -10.606   0.707  0.00  0.00    +0.000 A 
ATOM     26  C   UNL     1      -6.789 -10.981   1.427  0.00  0.00    +0.000 A 
ATOM     27  C   UNL     1      -6.410 -12.320   1.445  0.00  0.00    +0.000 A 
ATOM     28  C   UNL     1      -7.163 -13.254   0.739  0.00  0.00    +0.000 A 
ATOM     29  F   UNL     1      -6.797 -14.543   0.756  0.00  0.00    +0.000 F 
ATOM     30  C   UNL     1      -8.289 -12.873   0.014  0.00  0.00    +0.000 A 
ATOM     31  C   UNL     1      -8.670 -11.535  -0.005  0.00  0.00    +0.000 A 
ENDBRANCH  22  25
ENDBRANCH  21  22
ENDBRANCH  17  21
ENDBRANCH   2  17
TORSDOF 8
ENDMDL
MODEL 5
REMARK VINA RESULT:      -6.0      3.686      7.938
REMARK  Name = Bicalutamide.pdbqt.pdb
REMARK  8 active torsions:
REMARK  status: ('A' for Active; 'I' for Inactive)
REMARK    1  A    between atoms: C_2  and  N_13
REMARK    2  A    between atoms: C_5  and  C_9
REMARK    3  A    between atoms: C_6  and  C_8
REMARK    4  A    between atoms: C_14  and  C_17
REMARK    5  A    between atoms: C_17  and  O_19
REMARK    6  A    between atoms: C_17  and  C_21
REMARK    7  A    between atoms: C_21  and  S_22
REMARK    8  A    between atoms: S_22  and  C_25
REMARK                            x       y       z     vdW  Elec       q    Type
REMARK                         _______ _______ _______ _____ _____    ______ ____
ROOT
ATOM      1  N   UNL     1       5.473  -9.263  11.943  0.00  0.00    +0.000 N 
ATOM      2  C   UNL     1       5.634  -8.454  13.065  0.00  0.00    +0.000 C 
ATOM      3  O   UNL     1       5.538  -8.845  14.233  0.00  0.00    +0.000 OA
ATOM      4  H   UNL     1       5.679  -8.835  11.040  0.00  0.00    +0.000 HD
ENDROOT
BRANCH   1   5
ATOM      5  C   UNL     1       5.137 -10.627  11.951  0.00  0.00    +0.000 A 
ATOM      6  C   UNL     1       6.162 -11.550  11.744  0.00  0.00    +0.000 A 
ATOM      7  C   UNL     1       3.837 -11.085  12.141  0.00  0.00    +0.000 A 
ATOM      8  C   UNL     1       5.908 -12.926  11.728  0.00  0.00    +0.000 A 
ATOM      9  C   UNL     1       4.593 -13.375  11.923  0.00  0.00    +0.000 A 
ATOM     10  C   UNL     1       3.566 -12.451  12.127  0.00  0.00    +0.000 A 
BRANCH   8  11
ATOM     11  C   UNL     1       7.048 -13.876  11.502  0.00  0.00    +0.000 C 
ATOM     12  F   UNL     1       7.289 -14.689  12.568  0.00  0.00    +0.000 F 
ATOM     13  F   UNL     1       6.830 -14.703  10.446  0.00  0.00    +0.000 F 
ATOM     14  F   UNL     1       8.219 -13.232  11.255  0.00  0.00    +0.000 F 
ENDBRANCH   8  11
BRANCH   9  16
ATOM     15  N   UNL     1       3.975 -15.891  11.933  0.00  0.00    +0.000 NA
ATOM     16  C   UNL     1       4.252 -14.765  11.921  0.00  0.00    +0.000 C 
ENDBRANCH   9  16
ENDBRANCH   1   5
BRANCH   2  17
ATOM     17  C   UNL     1       5.917  -6.927  12.761  0.00  0.00    +0.000 C 
ATOM     18  C   UNL     1       7.182  -6.425  13.512  0.00  0.00    +0.000 C 
BRANCH  17  19
ATOM     19  O   UNL     1       4.828  -6.129  13.196  0.00  0.00    +0.000 OA
ATOM     20  H   UNL     1       4.627  -6.454  14.094  0.00  0.00    +0.000 HD
ENDBRANCH  17  19
BRANCH  17  21
ATOM     21  C   UNL     1       6.066  -6.777  11.346  0.00  0.00    +0.000 C 
BRANCH  21  22
ATOM     22  S   UNL     1       6.324  -6.391   9.684  0.00  0.00    +0.000 S 
ATOM     23  O   UNL     1       5.059  -6.855   9.174  0.00  0.00    +0.000 OA
ATOM     24  O   UNL     1       7.587  -7.075   9.549  0.00  0.00    +0.000 OA
BRANCH  22  25
ATOM     25  C   UNL     1       6.497  -4.676   9.517  0.00  0.00    +0.000 A 
ATOM     26  C   UNL     1       7.688  -4.186   8.992  0.00  0.00    +0.000 A 
ATOM     27  C   UNL     1       7.861  -2.810   8.869  0.00  0.00    +0.000 A 
ATOM     28  C   UNL     1       6.842  -1.954   9.278  0.00  0.00    +0.000 A 
ATOM     29  F   UNL     1       7.008  -0.630   9.159  0.00  0.00    +0.000 F 
ATOM     30  C   UNL     1       5.654  -2.449   9.810  0.00  0.00    +0.000 A 
ATOM     31  C   UNL     1       5.480  -3.823   9.933  0.00  0.00    +0.000 A 
ENDBRANCH  22  25
ENDBRANCH  21  22
ENDBRANCH  17  21
ENDBRANCH   2  17
TORSDOF 8
ENDMDL
MODEL 6
REMARK VINA RESULT:      -5.9      3.313      5.544
REMARK  Name = Bicalutamide.pdbqt.pdb
REMARK  8 active torsions:
REMARK  status: ('A' for Active; 'I' for Inactive)
REMARK    1  A    between atoms: C_2  and  N_13
REMARK    2  A    between atoms: C_5  and  C_9
REMARK    3  A    between atoms: C_6  and  C_8
REMARK    4  A    between atoms: C_14  and  C_17
REMARK    5  A    between atoms: C_17  and  O_19
REMARK    6  A    between atoms: C_17  and  C_21
REMARK    7  A    between atoms: C_21  and  S_22
REMARK    8  A    between atoms: S_22  and  C_25
REMARK                            x       y       z     vdW  Elec       q    Type
REMARK                         _______ _______ _______ _____ _____    ______ ____
ROOT
ATOM      1  N   UNL     1       5.162  -9.946  11.969  0.00  0.00    +0.000 N 
ATOM      2  C   UNL     1       3.959 -10.649  11.944  0.00  0.00    +0.000 C 
ATOM      3  O   UNL     1       2.957 -10.303  11.310  0.00  0.00    +0.000 OA
ATOM      4  H   UNL     1       5.941 -10.395  12.452  0.00  0.00    +0.000 HD
ENDROOT
BRANCH   1   5
ATOM      5  C   UNL     1       5.417  -8.725  11.325  0.00  0.00    +0.000 A 
ATOM      6  C   UNL     1       5.485  -7.576  12.112  0.00  0.00    +0.000 A 
ATOM      7  C   UNL     1       5.591  -8.617   9.948  0.00  0.00    +0.000 A 
ATOM      8  C   UNL     1       5.727  -6.320  11.545  0.00  0.00    +0.000 A 
ATOM      9  C   UNL     1       5.902  -6.226  10.156  0.00  0.00    +0.000 A 
ATOM     10  C   UNL     1       5.833  -7.375   9.367  0.00  0.00    +0.000 A 
BRANCH   8  11
ATOM     11  C   UNL     1       5.790  -5.116  12.438  0.00  0.00    +0.000 C 
ATOM     12  F   UNL     1       4.896  -4.146  12.099  0.00  0.00    +0.000 F 
ATOM     13  F   UNL     1       5.530  -5.421  13.737  0.00  0.00    +0.000 F 
ATOM     14  F   UNL     1       7.010  -4.517  12.418  0.00  0.00    +0.000 F 
ENDBRANCH   8  11
BRANCH   9  16
ATOM     15  N   UNL     1       6.372  -3.970   8.971  0.00  0.00    +0.000 NA
ATOM     16  C   UNL     1       6.154  -4.978   9.501  0.00  0.00    +0.000 C 
ENDBRANCH   9  16
ENDBRANCH   1   5
BRANCH   2  17
ATOM     17  C   UNL     1       3.920 -11.951  12.843  0.00  0.00    +0.000 C 
ATOM     18  C   UNL     1       4.793 -13.085  12.235  0.00  0.00    +0.000 C 
BRANCH  17  19
ATOM     19  O   UNL     1       2.594 -12.446  12.933  0.00  0.00    +0.000 OA
ATOM     20  H   UNL     1       2.380 -12.744  12.028  0.00  0.00    +0.000 HD
ENDBRANCH  17  19
BRANCH  17  21
ATOM     21  C   UNL     1       4.374 -11.600  14.153  0.00  0.00    +0.000 C 
BRANCH  21  22
ATOM     22  S   UNL     1       4.841 -11.374  15.798  0.00  0.00    +0.000 S 
ATOM     23  O   UNL     1       5.333 -10.025  15.682  0.00  0.00    +0.000 OA
ATOM     24  O   UNL     1       5.656 -12.560  15.904  0.00  0.00    +0.000 OA
BRANCH  22  25
ATOM     25  C   UNL     1       3.437 -11.465  16.808  0.00  0.00    +0.000 A 
ATOM     26  C   UNL     1       3.605 -11.308  18.179  0.00  0.00    +0.000 A 
ATOM     27  C   UNL     1       2.494 -11.399  19.014  0.00  0.00    +0.000 A 
ATOM     28  C   UNL     1       1.242 -11.652  18.461  0.00  0.00    +0.000 A 
ATOM     29  F   UNL     1       0.173 -11.740  19.265  0.00  0.00    +0.000 F 
ATOM     30  C   UNL     1       1.080 -11.816  17.088  0.00  0.00    +0.000 A 
ATOM     31  C   UNL     1       2.188 -11.725  16.252  0.00  0.00    +0.000 A 
ENDBRANCH  22  25
ENDBRANCH  21  22
ENDBRANCH  17  21
ENDBRANCH   2  17
TORSDOF 8
ENDMDL
MODEL 7
REMARK VINA RESULT:      -5.7     21.680     24.344
REMARK  Name = Bicalutamide.pdbqt.pdb
REMARK  8 active torsions:
REMARK  status: ('A' for Active; 'I' for Inactive)
REMARK    1  A    between atoms: C_2  and  N_13
REMARK    2  A    between atoms: C_5  and  C_9
REMARK    3  A    between atoms: C_6  and  C_8
REMARK    4  A    between atoms: C_14  and  C_17
REMARK    5  A    between atoms: C_17  and  O_19
REMARK    6  A    between atoms: C_17  and  C_21
REMARK    7  A    between atoms: C_21  and  S_22
REMARK    8  A    between atoms: S_22  and  C_25
REMARK                            x       y       z     vdW  Elec       q    Type
REMARK                         _______ _______ _______ _____ _____    ______ ____
ROOT
ATOM      1  N   UNL     1      -9.943  -8.522  26.831  0.00  0.00    +0.000 N 
ATOM      2  C   UNL     1      -9.654  -9.433  27.844  0.00  0.00    +0.000 C 
ATOM      3  O   UNL     1      -8.782  -9.272  28.705  0.00  0.00    +0.000 OA
ATOM      4  H   UNL     1     -10.754  -8.732  26.248  0.00  0.00    +0.000 HD
ENDROOT
BRANCH   1   5
ATOM      5  C   UNL     1      -9.275  -7.309  26.596  0.00  0.00    +0.000 A 
ATOM      6  C   UNL     1      -9.743  -6.172  27.254  0.00  0.00    +0.000 A 
ATOM      7  C   UNL     1      -8.188  -7.198  25.735  0.00  0.00    +0.000 A 
ATOM      8  C   UNL     1      -9.137  -4.924  27.066  0.00  0.00    +0.000 A 
ATOM      9  C   UNL     1      -8.041  -4.826  26.197  0.00  0.00    +0.000 A 
ATOM     10  C   UNL     1      -7.574  -5.964  25.536  0.00  0.00    +0.000 A 
BRANCH   8  11
ATOM     11  C   UNL     1      -9.681  -3.732  27.799  0.00  0.00    +0.000 C 
ATOM     12  F   UNL     1      -9.907  -2.660  26.989  0.00  0.00    +0.000 F 
ATOM     13  F   UNL     1     -10.868  -3.995  28.405  0.00  0.00    +0.000 F 
ATOM     14  F   UNL     1      -8.839  -3.291  28.770  0.00  0.00    +0.000 F 
ENDBRANCH   8  11
BRANCH   9  16
ATOM     15  N   UNL     1      -6.825  -2.579  25.767  0.00  0.00    +0.000 NA
ATOM     16  C   UNL     1      -7.368  -3.587  25.952  0.00  0.00    +0.000 C 
ENDBRANCH   9  16
ENDBRANCH   1   5
BRANCH   2  17
ATOM     17  C   UNL     1     -10.504 -10.767  27.815  0.00  0.00    +0.000 C 
ATOM     18  C   UNL     1     -10.569 -11.427  29.221  0.00  0.00    +0.000 C 
BRANCH  17  19
ATOM     19  O   UNL     1      -9.910 -11.710  26.937  0.00  0.00    +0.000 OA
ATOM     20  H   UNL     1     -10.586 -11.869  26.251  0.00  0.00    +0.000 HD
ENDBRANCH  17  19
BRANCH  17  21
ATOM     21  C   UNL     1     -11.814 -10.449  27.336  0.00  0.00    +0.000 C 
BRANCH  21  22
ATOM     22  S   UNL     1     -13.461 -10.248  26.866  0.00  0.00    +0.000 S 
ATOM     23  O   UNL     1     -14.017 -11.343  27.619  0.00  0.00    +0.000 OA
ATOM     24  O   UNL     1     -13.228 -10.239  25.442  0.00  0.00    +0.000 OA
BRANCH  22  25
ATOM     25  C   UNL     1     -14.034  -8.716  27.435  0.00  0.00    +0.000 A 
ATOM     26  C   UNL     1     -13.099  -7.715  27.675  0.00  0.00    +0.000 A 
ATOM     27  C   UNL     1     -13.533  -6.482  28.155  0.00  0.00    +0.000 A 
ATOM     28  C   UNL     1     -14.890  -6.278  28.389  0.00  0.00    +0.000 A 
ATOM     29  F   UNL     1     -15.307  -5.091  28.851  0.00  0.00    +0.000 F 
ATOM     30  C   UNL     1     -15.821  -7.286  28.154  0.00  0.00    +0.000 A 
ATOM     31  C   UNL     1     -15.390  -8.518  27.675  0.00  0.00    +0.000 A 
ENDBRANCH  22  25
ENDBRANCH  21  22
ENDBRANCH  17  21
ENDBRANCH   2  17
TORSDOF 8
ENDMDL
MODEL 8
REMARK VINA RESULT:      -5.6     16.561     19.005
REMARK  Name = Bicalutamide.pdbqt.pdb
REMARK  8 active torsions:
REMARK  status: ('A' for Active; 'I' for Inactive)
REMARK    1  A    between atoms: C_2  and  N_13
REMARK    2  A    between atoms: C_5  and  C_9
REMARK    3  A    between atoms: C_6  and  C_8
REMARK    4  A    between atoms: C_14  and  C_17
REMARK    5  A    between atoms: C_17  and  O_19
REMARK    6  A    between atoms: C_17  and  C_21
REMARK    7  A    between atoms: C_21  and  S_22
REMARK    8  A    between atoms: S_22  and  C_25
REMARK                            x       y       z     vdW  Elec       q    Type
REMARK                         _______ _______ _______ _____ _____    ______ ____
ROOT
ATOM      1  N   UNL     1      -5.217  -6.088   0.057  0.00  0.00    +0.000 N 
ATOM      2  C   UNL     1      -6.004  -7.227  -0.089  0.00  0.00    +0.000 C 
ATOM      3  O   UNL     1      -6.555  -7.570  -1.140  0.00  0.00    +0.000 OA
ATOM      4  H   UNL     1      -4.739  -5.976   0.953  0.00  0.00    +0.000 HD
ENDROOT
BRANCH   1   5
ATOM      5  C   UNL     1      -4.958  -5.131  -0.937  0.00  0.00    +0.000 A 
ATOM      6  C   UNL     1      -3.681  -5.104  -1.497  0.00  0.00    +0.000 A 
ATOM      7  C   UNL     1      -5.909  -4.212  -1.370  0.00  0.00    +0.000 A 
ATOM      8  C   UNL     1      -3.341  -4.175  -2.487  0.00  0.00    +0.000 A 
ATOM      9  C   UNL     1      -4.310  -3.256  -2.916  0.00  0.00    +0.000 A 
ATOM     10  C   UNL     1      -5.588  -3.280  -2.354  0.00  0.00    +0.000 A 
BRANCH   8  11
ATOM     11  C   UNL     1      -1.952  -4.191  -3.055  0.00  0.00    +0.000 C 
ATOM     12  F   UNL     1      -1.921  -4.456  -4.391  0.00  0.00    +0.000 F 
ATOM     13  F   UNL     1      -1.316  -3.000  -2.899  0.00  0.00    +0.000 F 
ATOM     14  F   UNL     1      -1.163  -5.131  -2.473  0.00  0.00    +0.000 F 
ENDBRANCH   8  11
BRANCH   9  16
ATOM     15  N   UNL     1      -3.812  -1.475  -4.730  0.00  0.00    +0.000 NA
ATOM     16  C   UNL     1      -4.040  -2.275  -3.923  0.00  0.00    +0.000 C 
ENDBRANCH   9  16
ENDBRANCH   1   5
BRANCH   2  17
ATOM     17  C   UNL     1      -6.206  -8.081   1.228  0.00  0.00    +0.000 C 
ATOM     18  C   UNL     1      -6.236  -7.175   2.491  0.00  0.00    +0.000 C 
BRANCH  17  19
ATOM     19  O   UNL     1      -5.132  -8.993   1.392  0.00  0.00    +0.000 OA
ATOM     20  H   UNL     1      -4.333  -8.473   1.181  0.00  0.00    +0.000 HD
ENDBRANCH  17  19
BRANCH  17  21
ATOM     21  C   UNL     1      -7.425  -8.819   1.096  0.00  0.00    +0.000 C 
BRANCH  21  22
ATOM     22  S   UNL     1      -8.765  -9.886   0.897  0.00  0.00    +0.000 S 
ATOM     23  O   UNL     1      -8.560 -10.685   2.079  0.00  0.00    +0.000 OA
ATOM     24  O   UNL     1      -8.458 -10.289  -0.454  0.00  0.00    +0.000 OA
BRANCH  22  25
ATOM     25  C   UNL     1     -10.236  -8.977   0.981  0.00  0.00    +0.000 A 
ATOM     26  C   UNL     1     -10.978  -9.037   2.156  0.00  0.00    +0.000 A 
ATOM     27  C   UNL     1     -12.176  -8.333   2.239  0.00  0.00    +0.000 A 
ATOM     28  C   UNL     1     -12.609  -7.588   1.145  0.00  0.00    +0.000 A 
ATOM     29  F   UNL     1     -13.762  -6.910   1.226  0.00  0.00    +0.000 F 
ATOM     30  C   UNL     1     -11.866  -7.536  -0.032  0.00  0.00    +0.000 A 
ATOM     31  C   UNL     1     -10.669  -8.239  -0.117  0.00  0.00    +0.000 A 
ENDBRANCH  22  25
ENDBRANCH  21  22
ENDBRANCH  17  21
ENDBRANCH   2  17
TORSDOF 8
ENDMDL
MODEL 9
REMARK VINA RESULT:      -5.4     21.856     24.376
REMARK  Name = Bicalutamide.pdbqt.pdb
REMARK  8 active torsions:
REMARK  status: ('A' for Active; 'I' for Inactive)
REMARK    1  A    between atoms: C_2  and  N_13
REMARK    2  A    between atoms: C_5  and  C_9
REMARK    3  A    between atoms: C_6  and  C_8
REMARK    4  A    between atoms: C_14  and  C_17
REMARK    5  A    between atoms: C_17  and  O_19
REMARK    6  A    between atoms: C_17  and  C_21
REMARK    7  A    between atoms: C_21  and  S_22
REMARK    8  A    between atoms: S_22  and  C_25
REMARK                            x       y       z     vdW  Elec       q    Type
REMARK                         _______ _______ _______ _____ _____    ______ ____
ROOT
ATOM      1  N   UNL     1      -9.752  -7.145  26.628  0.00  0.00    +0.000 N 
ATOM      2  C   UNL     1      -9.299  -8.366  27.122  0.00  0.00    +0.000 C 
ATOM      3  O   UNL     1      -8.217  -8.534  27.693  0.00  0.00    +0.000 OA
ATOM      4  H   UNL     1     -10.708  -7.126  26.269  0.00  0.00    +0.000 HD
ENDROOT
BRANCH   1   5
ATOM      5  C   UNL     1      -9.048  -5.931  26.657  0.00  0.00    +0.000 A 
ATOM      6  C   UNL     1      -9.513  -4.929  27.508  0.00  0.00    +0.000 A 
ATOM      7  C   UNL     1      -7.927  -5.687  25.869  0.00  0.00    +0.000 A 
ATOM      8  C   UNL     1      -8.873  -3.687  27.588  0.00  0.00    +0.000 A 
ATOM      9  C   UNL     1      -7.742  -3.456  26.790  0.00  0.00    +0.000 A 
ATOM     10  C   UNL     1      -7.277  -4.457  25.935  0.00  0.00    +0.000 A 
BRANCH   8  11
ATOM     11  C   UNL     1      -9.415  -2.645  28.522  0.00  0.00    +0.000 C 
ATOM     12  F   UNL     1      -8.511  -2.236  29.455  0.00  0.00    +0.000 F 
ATOM     13  F   UNL     1      -9.808  -1.520  27.869  0.00  0.00    +0.000 F 
ATOM     14  F   UNL     1     -10.495  -3.085  29.220  0.00  0.00    +0.000 F 
ENDBRANCH   8  11
BRANCH   9  16
ATOM     15  N   UNL     1      -6.465  -1.202  26.844  0.00  0.00    +0.000 NA
ATOM     16  C   UNL     1      -7.032  -2.213  26.814  0.00  0.00    +0.000 C 
ENDBRANCH   9  16
ENDBRANCH   1   5
BRANCH   2  17
ATOM     17  C   UNL     1     -10.262  -9.596  26.868  0.00  0.00    +0.000 C 
ATOM     18  C   UNL     1      -9.718 -10.888  27.541  0.00  0.00    +0.000 C 
BRANCH  17  19
ATOM     19  O   UNL     1     -10.366  -9.860  25.478  0.00  0.00    +0.000 OA
ATOM     20  H   UNL     1      -9.492  -9.621  25.115  0.00  0.00    +0.000 HD
ENDBRANCH  17  19
BRANCH  17  21
ATOM     21  C   UNL     1     -11.556  -9.258  27.374  0.00  0.00    +0.000 C 
BRANCH  21  22
ATOM     22  S   UNL     1     -13.091  -8.656  27.881  0.00  0.00    +0.000 S 
ATOM     23  O   UNL     1     -13.052  -7.398  27.178  0.00  0.00    +0.000 OA
ATOM     24  O   UNL     1     -12.881  -8.834  29.297  0.00  0.00    +0.000 OA
BRANCH  22  25
ATOM     25  C   UNL     1     -14.339  -9.694  27.278  0.00  0.00    +0.000 A 
ATOM     26  C   UNL     1     -13.985 -10.682  26.365  0.00  0.00    +0.000 A 
ATOM     27  C   UNL     1     -14.974 -11.514  25.848  0.00  0.00    +0.000 A 
ATOM     28  C   UNL     1     -16.295 -11.339  26.251  0.00  0.00    +0.000 A 
ATOM     29  F   UNL     1     -17.247 -12.141  25.754  0.00  0.00    +0.000 F 
ATOM     30  C   UNL     1     -16.645 -10.344  27.160  0.00  0.00    +0.000 A 
ATOM     31  C   UNL     1     -15.659  -9.511  27.677  0.00  0.00    +0.000 A 
ENDBRANCH  22  25
ENDBRANCH  21  22
ENDBRANCH  17  21
ENDBRANCH   2  17
TORSDOF 8
ENDMDL
