MODEL 1
REMARK VINA RESULT:      -5.1      0.000      0.000
REMARK  Name = Bisphenol_A.pdbqt.pdb
REMARK  4 active torsions:
REMARK  status: ('A' for Active; 'I' for Inactive)
REMARK    1  A    between atoms: C_1  and  C_4
REMARK    2  A    between atoms: C_1  and  C_12
REMARK    3  A    between atoms: C_7  and  O_10
REMARK    4  A    between atoms: C_15  and  O_18
REMARK                            x       y       z     vdW  Elec       q    Type
REMARK                         _______ _______ _______ _____ _____    ______ ____
ROOT
ATOM      1  C   UNL     1      -9.525  -7.330  28.012  0.00  0.00    +0.000 C 
ATOM      2  C   UNL     1     -10.016  -6.731  29.377  0.00  0.00    +0.000 C 
ATOM      3  C   UNL     1      -8.410  -8.392  28.319  0.00  0.00    +0.000 C 
ENDROOT
BRANCH   1   4
ATOM      4  C   UNL     1     -10.750  -7.970  27.340  0.00  0.00    +0.000 A 
ATOM      5  C   UNL     1     -10.610  -9.173  26.626  0.00  0.00    +0.000 A 
ATOM      6  C   UNL     1     -11.696  -9.771  25.989  0.00  0.00    +0.000 A 
ATOM      7  C   UNL     1     -12.942  -9.162  26.057  0.00  0.00    +0.000 A 
ATOM      8  C   UNL     1     -13.115  -7.969  26.747  0.00  0.00    +0.000 A 
ATOM      9  C   UNL     1     -12.021  -7.379  27.378  0.00  0.00    +0.000 A 
BRANCH   7  10
ATOM     10  O   UNL     1     -14.027  -9.722  25.450  0.00  0.00    +0.000 OA
ATOM     11  H   UNL     1     -14.623  -9.009  25.161  0.00  0.00    +0.000 HD
ENDBRANCH   7  10
ENDBRANCH   1   4
BRANCH   1  12
ATOM     12  C   UNL     1      -8.885  -6.260  27.116  0.00  0.00    +0.000 A 
ATOM     13  C   UNL     1      -9.229  -4.906  27.283  0.00  0.00    +0.000 A 
ATOM     14  C   UNL     1      -8.680  -3.912  26.477  0.00  0.00    +0.000 A 
ATOM     15  C   UNL     1      -7.776  -4.265  25.483  0.00  0.00    +0.000 A 
ATOM     16  C   UNL     1      -7.418  -5.593  25.285  0.00  0.00    +0.000 A 
ATOM     17  C   UNL     1      -7.976  -6.579  26.096  0.00  0.00    +0.000 A 
BRANCH  15  18
ATOM     18  O   UNL     1      -7.216  -3.317  24.679  0.00  0.00    +0.000 OA
ATOM     19  H   UNL     1      -6.970  -3.732  23.834  0.00  0.00    +0.000 HD
ENDBRANCH  15  18
ENDBRANCH   1  12
TORSDOF 4
ENDMDL
MODEL 2
REMARK VINA RESULT:      -4.9     16.733     18.451
REMARK  Name = Bisphenol_A.pdbqt.pdb
REMARK  4 active torsions:
REMARK  status: ('A' for Active; 'I' for Inactive)
REMARK    1  A    between atoms: C_1  and  C_4
REMARK    2  A    between atoms: C_1  and  C_12
REMARK    3  A    between atoms: C_7  and  O_10
REMARK    4  A    between atoms: C_15  and  O_18
REMARK                            x       y       z     vdW  Elec       q    Type
REMARK                         _______ _______ _______ _____ _____    ______ ____
ROOT
ATOM      1  C   UNL     1     -12.895 -17.260  12.236  0.00  0.00    +0.000 C 
ATOM      2  C   UNL     1     -12.345 -17.284  13.707  0.00  0.00    +0.000 C 
ATOM      3  C   UNL     1     -13.551 -18.655  11.938  0.00  0.00    +0.000 C 
ENDROOT
BRANCH   1   4
ATOM      4  C   UNL     1     -13.923 -16.121  12.165  0.00  0.00    +0.000 A 
ATOM      5  C   UNL     1     -14.553 -15.669  13.338  0.00  0.00    +0.000 A 
ATOM      6  C   UNL     1     -15.503 -14.650  13.307  0.00  0.00    +0.000 A 
ATOM      7  C   UNL     1     -15.840 -14.072  12.089  0.00  0.00    +0.000 A 
ATOM      8  C   UNL     1     -15.243 -14.499  10.909  0.00  0.00    +0.000 A 
ATOM      9  C   UNL     1     -14.296 -15.520  10.953  0.00  0.00    +0.000 A 
BRANCH   7  10
ATOM     10  O   UNL     1     -16.762 -13.071  12.023  0.00  0.00    +0.000 OA
ATOM     11  H   UNL     1     -16.317 -12.258  11.725  0.00  0.00    +0.000 HD
ENDBRANCH   7  10
ENDBRANCH   1   4
BRANCH   1  12
ATOM     12  C   UNL     1     -11.769 -17.070  11.210  0.00  0.00    +0.000 A 
ATOM     13  C   UNL     1     -11.517 -18.067  10.250  0.00  0.00    +0.000 A 
ATOM     14  C   UNL     1     -10.493 -17.935   9.316  0.00  0.00    +0.000 A 
ATOM     15  C   UNL     1      -9.700 -16.795   9.334  0.00  0.00    +0.000 A 
ATOM     16  C   UNL     1      -9.915 -15.792  10.272  0.00  0.00    +0.000 A 
ATOM     17  C   UNL     1     -10.941 -15.937  11.204  0.00  0.00    +0.000 A 
BRANCH  15  18
ATOM     18  O   UNL     1      -8.692 -16.630   8.430  0.00  0.00    +0.000 OA
ATOM     19  H   UNL     1      -8.622 -17.440   7.894  0.00  0.00    +0.000 HD
ENDBRANCH  15  18
ENDBRANCH   1  12
TORSDOF 4
ENDMDL
MODEL 3
REMARK VINA RESULT:      -4.7     27.233     29.314
REMARK  Name = Bisphenol_A.pdbqt.pdb
REMARK  4 active torsions:
REMARK  status: ('A' for Active; 'I' for Inactive)
REMARK    1  A    between atoms: C_1  and  C_4
REMARK    2  A    between atoms: C_1  and  C_12
REMARK    3  A    between atoms: C_7  and  O_10
REMARK    4  A    between atoms: C_15  and  O_18
REMARK                            x       y       z     vdW  Elec       q    Type
REMARK                         _______ _______ _______ _____ _____    ______ ____
ROOT
ATOM      1  C   UNL     1      -4.827  -5.966  -2.244  0.00  0.00    +0.000 C 
ATOM      2  C   UNL     1      -5.965  -6.836  -1.601  0.00  0.00    +0.000 C 
ATOM      3  C   UNL     1      -5.076  -5.906  -3.793  0.00  0.00    +0.000 C 
ENDROOT
BRANCH   1   4
ATOM      4  C   UNL     1      -4.913  -4.574  -1.600  0.00  0.00    +0.000 A 
ATOM      5  C   UNL     1      -5.216  -4.451  -0.232  0.00  0.00    +0.000 A 
ATOM      6  C   UNL     1      -5.320  -3.204   0.381  0.00  0.00    +0.000 A 
ATOM      7  C   UNL     1      -5.125  -2.056  -0.378  0.00  0.00    +0.000 A 
ATOM      8  C   UNL     1      -4.833  -2.140  -1.734  0.00  0.00    +0.000 A 
ATOM      9  C   UNL     1      -4.734  -3.393  -2.335  0.00  0.00    +0.000 A 
BRANCH   7  10
ATOM     10  O   UNL     1      -5.215  -0.820   0.190  0.00  0.00    +0.000 OA
ATOM     11  H   UNL     1      -4.506  -0.261  -0.171  0.00  0.00    +0.000 HD
ENDBRANCH   7  10
ENDBRANCH   1   4
BRANCH   1  12
ATOM     12  C   UNL     1      -3.442  -6.597  -2.041  0.00  0.00    +0.000 A 
ATOM     13  C   UNL     1      -3.327  -7.854  -1.418  0.00  0.00    +0.000 A 
ATOM     14  C   UNL     1      -2.085  -8.447  -1.203  0.00  0.00    +0.000 A 
ATOM     15  C   UNL     1      -0.935  -7.781  -1.608  0.00  0.00    +0.000 A 
ATOM     16  C   UNL     1      -1.011  -6.536  -2.220  0.00  0.00    +0.000 A 
ATOM     17  C   UNL     1      -2.258  -5.951  -2.427  0.00  0.00    +0.000 A 
BRANCH  15  18
ATOM     18  O   UNL     1       0.296  -8.336  -1.418  0.00  0.00    +0.000 OA
ATOM     19  H   UNL     1       0.185  -9.185  -0.955  0.00  0.00    +0.000 HD
ENDBRANCH  15  18
ENDBRANCH   1  12
TORSDOF 4
ENDMDL
MODEL 4
REMARK VINA RESULT:      -4.7     17.417     19.374
REMARK  Name = Bisphenol_A.pdbqt.pdb
REMARK  4 active torsions:
REMARK  status: ('A' for Active; 'I' for Inactive)
REMARK    1  A    between atoms: C_1  and  C_4
REMARK    2  A    between atoms: C_1  and  C_12
REMARK    3  A    between atoms: C_7  and  O_10
REMARK    4  A    between atoms: C_15  and  O_18
REMARK                            x       y       z     vdW  Elec       q    Type
REMARK                         _______ _______ _______ _____ _____    ______ ____
ROOT
ATOM      1  C   UNL     1     -13.050 -16.806  11.532  0.00  0.00    +0.000 C 
ATOM      2  C   UNL     1     -12.805 -16.147  12.936  0.00  0.00    +0.000 C 
ATOM      3  C   UNL     1     -13.698 -18.218  11.763  0.00  0.00    +0.000 C 
ENDROOT
BRANCH   1   4
ATOM      4  C   UNL     1     -13.990 -15.869  10.759  0.00  0.00    +0.000 A 
ATOM      5  C   UNL     1     -14.182 -16.051   9.377  0.00  0.00    +0.000 A 
ATOM      6  C   UNL     1     -15.013 -15.208   8.642  0.00  0.00    +0.000 A 
ATOM      7  C   UNL     1     -15.662 -14.162   9.286  0.00  0.00    +0.000 A 
ATOM      8  C   UNL     1     -15.490 -13.948  10.648  0.00  0.00    +0.000 A 
ATOM      9  C   UNL     1     -14.654 -14.796  11.372  0.00  0.00    +0.000 A 
BRANCH   7  10
ATOM     10  O   UNL     1     -16.486 -13.322   8.598  0.00  0.00    +0.000 OA
ATOM     11  H   UNL     1     -16.209 -12.405   8.771  0.00  0.00    +0.000 HD
ENDBRANCH   7  10
ENDBRANCH   1   4
BRANCH   1  12
ATOM     12  C   UNL     1     -11.736 -17.039  10.774  0.00  0.00    +0.000 A 
ATOM     13  C   UNL     1     -11.414 -18.325  10.303  0.00  0.00    +0.000 A 
ATOM     14  C   UNL     1     -10.222 -18.575   9.627  0.00  0.00    +0.000 A 
ATOM     15  C   UNL     1      -9.329 -17.531   9.417  0.00  0.00    +0.000 A 
ATOM     16  C   UNL     1      -9.611 -16.249   9.873  0.00  0.00    +0.000 A 
ATOM     17  C   UNL     1     -10.805 -16.013  10.551  0.00  0.00    +0.000 A 
BRANCH  15  18
ATOM     18  O   UNL     1      -8.156 -17.739   8.753  0.00  0.00    +0.000 OA
ATOM     19  H   UNL     1      -8.356 -18.136   7.887  0.00  0.00    +0.000 HD
ENDBRANCH  15  18
ENDBRANCH   1  12
TORSDOF 4
ENDMDL
MODEL 5
REMARK VINA RESULT:      -4.4     17.301     19.664
REMARK  Name = Bisphenol_A.pdbqt.pdb
REMARK  4 active torsions:
REMARK  status: ('A' for Active; 'I' for Inactive)
REMARK    1  A    between atoms: C_1  and  C_4
REMARK    2  A    between atoms: C_1  and  C_12
REMARK    3  A    between atoms: C_7  and  O_10
REMARK    4  A    between atoms: C_15  and  O_18
REMARK                            x       y       z     vdW  Elec       q    Type
REMARK                         _______ _______ _______ _____ _____    ______ ____
ROOT
ATOM      1  C   UNL     1     -11.047 -16.442   9.837  0.00  0.00    +0.000 C 
ATOM      2  C   UNL     1      -9.825 -15.462   9.943  0.00  0.00    +0.000 C 
ATOM      3  C   UNL     1     -11.823 -16.111   8.513  0.00  0.00    +0.000 C 
ENDROOT
BRANCH   1   4
ATOM      4  C   UNL     1     -10.475 -17.867   9.821  0.00  0.00    +0.000 A 
ATOM      5  C   UNL     1      -9.114 -18.073   9.528  0.00  0.00    +0.000 A 
ATOM      6  C   UNL     1      -8.566 -19.354   9.487  0.00  0.00    +0.000 A 
ATOM      7  C   UNL     1      -9.382 -20.450   9.734  0.00  0.00    +0.000 A 
ATOM      8  C   UNL     1     -10.732 -20.284  10.018  0.00  0.00    +0.000 A 
ATOM      9  C   UNL     1     -11.269 -18.999  10.054  0.00  0.00    +0.000 A 
BRANCH   7  10
ATOM     10  O   UNL     1      -8.877 -21.717   9.706  0.00  0.00    +0.000 OA
ATOM     11  H   UNL     1      -9.547 -22.326  10.063  0.00  0.00    +0.000 HD
ENDBRANCH   7  10
ENDBRANCH   1   4
BRANCH   1  12
ATOM     12  C   UNL     1     -12.038 -16.245  10.993  0.00  0.00    +0.000 A 
ATOM     13  C   UNL     1     -13.268 -15.601  10.764  0.00  0.00    +0.000 A 
ATOM     14  C   UNL     1     -14.182 -15.390  11.793  0.00  0.00    +0.000 A 
ATOM     15  C   UNL     1     -13.870 -15.822  13.076  0.00  0.00    +0.000 A 
ATOM     16  C   UNL     1     -12.663 -16.456  13.341  0.00  0.00    +0.000 A 
ATOM     17  C   UNL     1     -11.755 -16.658  12.304  0.00  0.00    +0.000 A 
BRANCH  15  18
ATOM     18  O   UNL     1     -14.745 -15.637  14.107  0.00  0.00    +0.000 OA
ATOM     19  H   UNL     1     -14.292 -15.145  14.813  0.00  0.00    +0.000 HD
ENDBRANCH  15  18
ENDBRANCH   1  12
TORSDOF 4
ENDMDL
MODEL 6
REMARK VINA RESULT:      -4.4     27.474     29.393
REMARK  Name = Bisphenol_A.pdbqt.pdb
REMARK  4 active torsions:
REMARK  status: ('A' for Active; 'I' for Inactive)
REMARK    1  A    between atoms: C_1  and  C_4
REMARK    2  A    between atoms: C_1  and  C_12
REMARK    3  A    between atoms: C_7  and  O_10
REMARK    4  A    between atoms: C_15  and  O_18
REMARK                            x       y       z     vdW  Elec       q    Type
REMARK                         _______ _______ _______ _____ _____    ______ ____
ROOT
ATOM      1  C   UNL     1      -4.518  -3.519  -1.199  0.00  0.00    +0.000 C 
ATOM      2  C   UNL     1      -5.548  -2.566  -0.496  0.00  0.00    +0.000 C 
ATOM      3  C   UNL     1      -3.076  -2.951  -0.944  0.00  0.00    +0.000 C 
ENDROOT
BRANCH   1   4
ATOM      4  C   UNL     1      -4.700  -4.910  -0.574  0.00  0.00    +0.000 A 
ATOM      5  C   UNL     1      -5.227  -5.032   0.725  0.00  0.00    +0.000 A 
ATOM      6  C   UNL     1      -5.390  -6.277   1.329  0.00  0.00    +0.000 A 
ATOM      7  C   UNL     1      -5.017  -7.422   0.636  0.00  0.00    +0.000 A 
ATOM      8  C   UNL     1      -4.486  -7.338  -0.645  0.00  0.00    +0.000 A 
ATOM      9  C   UNL     1      -4.326  -6.087  -1.238  0.00  0.00    +0.000 A 
BRANCH   7  10
ATOM     10  O   UNL     1      -5.167  -8.657   1.195  0.00  0.00    +0.000 OA
ATOM     11  H   UNL     1      -5.596  -8.554   2.062  0.00  0.00    +0.000 HD
ENDBRANCH   7  10
ENDBRANCH   1   4
BRANCH   1  12
ATOM     12  C   UNL     1      -4.718  -3.553  -2.721  0.00  0.00    +0.000 A 
ATOM     13  C   UNL     1      -3.611  -3.420  -3.579  0.00  0.00    +0.000 A 
ATOM     14  C   UNL     1      -3.760  -3.429  -4.964  0.00  0.00    +0.000 A 
ATOM     15  C   UNL     1      -5.030  -3.568  -5.510  0.00  0.00    +0.000 A 
ATOM     16  C   UNL     1      -6.146  -3.695  -4.693  0.00  0.00    +0.000 A 
ATOM     17  C   UNL     1      -5.986  -3.681  -3.309  0.00  0.00    +0.000 A 
BRANCH  15  18
ATOM     18  O   UNL     1      -5.211  -3.586  -6.861  0.00  0.00    +0.000 OA
ATOM     19  H   UNL     1      -4.342  -3.493  -7.291  0.00  0.00    +0.000 HD
ENDBRANCH  15  18
ENDBRANCH   1  12
TORSDOF 4
ENDMDL
MODEL 7
REMARK VINA RESULT:      -4.3     28.650     30.726
REMARK  Name = Bisphenol_A.pdbqt.pdb
REMARK  4 active torsions:
REMARK  status: ('A' for Active; 'I' for Inactive)
REMARK    1  A    between atoms: C_1  and  C_4
REMARK    2  A    between atoms: C_1  and  C_12
REMARK    3  A    between atoms: C_7  and  O_10
REMARK    4  A    between atoms: C_15  and  O_18
REMARK                            x       y       z     vdW  Elec       q    Type
REMARK                         _______ _______ _______ _____ _____    ______ ____
ROOT
ATOM      1  C   UNL     1      -4.639  -5.186  -2.550  0.00  0.00    +0.000 C 
ATOM      2  C   UNL     1      -3.236  -5.716  -2.087  0.00  0.00    +0.000 C 
ATOM      3  C   UNL     1      -5.702  -6.304  -2.258  0.00  0.00    +0.000 C 
ENDROOT
BRANCH   1   4
ATOM      4  C   UNL     1      -4.921  -3.909  -1.744  0.00  0.00    +0.000 A 
ATOM      5  C   UNL     1      -3.860  -3.059  -1.383  0.00  0.00    +0.000 A 
ATOM      6  C   UNL     1      -4.076  -1.902  -0.637  0.00  0.00    +0.000 A 
ATOM      7  C   UNL     1      -5.368  -1.585  -0.236  0.00  0.00    +0.000 A 
ATOM      8  C   UNL     1      -6.439  -2.406  -0.568  0.00  0.00    +0.000 A 
ATOM      9  C   UNL     1      -6.209  -3.561  -1.312  0.00  0.00    +0.000 A 
BRANCH   7  10
ATOM     10  O   UNL     1      -5.617  -0.459   0.491  0.00  0.00    +0.000 OA
ATOM     11  H   UNL     1      -4.912  -0.355   1.153  0.00  0.00    +0.000 HD
ENDBRANCH   7  10
ENDBRANCH   1   4
BRANCH   1  12
ATOM     12  C   UNL     1      -4.678  -4.920  -4.062  0.00  0.00    +0.000 A 
ATOM     13  C   UNL     1      -3.497  -4.579  -4.746  0.00  0.00    +0.000 A 
ATOM     14  C   UNL     1      -3.500  -4.314  -6.113  0.00  0.00    +0.000 A 
ATOM     15  C   UNL     1      -4.697  -4.383  -6.816  0.00  0.00    +0.000 A 
ATOM     16  C   UNL     1      -5.884  -4.710  -6.171  0.00  0.00    +0.000 A 
ATOM     17  C   UNL     1      -5.869  -4.970  -4.803  0.00  0.00    +0.000 A 
BRANCH  15  18
ATOM     18  O   UNL     1      -4.735  -4.136  -8.157  0.00  0.00    +0.000 OA
ATOM     19  H   UNL     1      -4.252  -4.844  -8.616  0.00  0.00    +0.000 HD
ENDBRANCH  15  18
ENDBRANCH   1  12
TORSDOF 4
ENDMDL
MODEL 8
REMARK VINA RESULT:      -4.3     30.504     33.252
REMARK  Name = Bisphenol_A.pdbqt.pdb
REMARK  4 active torsions:
REMARK  status: ('A' for Active; 'I' for Inactive)
REMARK    1  A    between atoms: C_1  and  C_4
REMARK    2  A    between atoms: C_1  and  C_12
REMARK    3  A    between atoms: C_7  and  O_10
REMARK    4  A    between atoms: C_15  and  O_18
REMARK                            x       y       z     vdW  Elec       q    Type
REMARK                         _______ _______ _______ _____ _____    ______ ____
ROOT
ATOM      1  C   UNL     1      -4.271   9.209  -2.695  0.00  0.00    +0.000 C 
ATOM      2  C   UNL     1      -5.681   8.841  -3.280  0.00  0.00    +0.000 C 
ATOM      3  C   UNL     1      -3.807  10.556  -3.354  0.00  0.00    +0.000 C 
ENDROOT
BRANCH   1   4
ATOM      4  C   UNL     1      -4.443   9.348  -1.175  0.00  0.00    +0.000 A 
ATOM      5  C   UNL     1      -5.333   8.503  -0.489  0.00  0.00    +0.000 A 
ATOM      6  C   UNL     1      -5.527   8.614   0.887  0.00  0.00    +0.000 A 
ATOM      7  C   UNL     1      -4.829   9.586   1.595  0.00  0.00    +0.000 A 
ATOM      8  C   UNL     1      -3.948  10.443   0.948  0.00  0.00    +0.000 A 
ATOM      9  C   UNL     1      -3.765  10.323  -0.429  0.00  0.00    +0.000 A 
BRANCH   7  10
ATOM     10  O   UNL     1      -4.992   9.719   2.942  0.00  0.00    +0.000 OA
ATOM     11  H   UNL     1      -5.709   9.127   3.228  0.00  0.00    +0.000 HD
ENDBRANCH   7  10
ENDBRANCH   1   4
BRANCH   1  12
ATOM     12  C   UNL     1      -3.213   8.154  -3.049  0.00  0.00    +0.000 A 
ATOM     13  C   UNL     1      -3.574   6.796  -3.132  0.00  0.00    +0.000 A 
ATOM     14  C   UNL     1      -2.637   5.812  -3.433  0.00  0.00    +0.000 A 
ATOM     15  C   UNL     1      -1.314   6.178  -3.653  0.00  0.00    +0.000 A 
ATOM     16  C   UNL     1      -0.921   7.508  -3.573  0.00  0.00    +0.000 A 
ATOM     17  C   UNL     1      -1.867   8.483  -3.267  0.00  0.00    +0.000 A 
BRANCH  15  18
ATOM     18  O   UNL     1      -0.371   5.240  -3.956  0.00  0.00    +0.000 OA
ATOM     19  H   UNL     1       0.504   5.665  -3.939  0.00  0.00    +0.000 HD
ENDBRANCH  15  18
ENDBRANCH   1  12
TORSDOF 4
ENDMDL
MODEL 9
REMARK VINA RESULT:      -4.2     19.350     22.955
REMARK  Name = Bisphenol_A.pdbqt.pdb
REMARK  4 active torsions:
REMARK  status: ('A' for Active; 'I' for Inactive)
REMARK    1  A    between atoms: C_1  and  C_4
REMARK    2  A    between atoms: C_1  and  C_12
REMARK    3  A    between atoms: C_7  and  O_10
REMARK    4  A    between atoms: C_15  and  O_18
REMARK                            x       y       z     vdW  Elec       q    Type
REMARK                         _______ _______ _______ _____ _____    ______ ____
ROOT
ATOM      1  C   UNL     1      -6.895  10.822  12.060  0.00  0.00    +0.000 C 
ATOM      2  C   UNL     1      -6.298  12.073  12.797  0.00  0.00    +0.000 C 
ATOM      3  C   UNL     1      -8.162  11.288  11.259  0.00  0.00    +0.000 C 
ENDROOT
BRANCH   1   4
ATOM      4  C   UNL     1      -5.797  10.288  11.128  0.00  0.00    +0.000 A 
ATOM      5  C   UNL     1      -4.463  10.696  11.310  0.00  0.00    +0.000 A 
ATOM      6  C   UNL     1      -3.445  10.246  10.472  0.00  0.00    +0.000 A 
ATOM      7  C   UNL     1      -3.755   9.380   9.431  0.00  0.00    +0.000 A 
ATOM      8  C   UNL     1      -5.063   8.962   9.217  0.00  0.00    +0.000 A 
ATOM      9  C   UNL     1      -6.073   9.422  10.061  0.00  0.00    +0.000 A 
BRANCH   7  10
ATOM     10  O   UNL     1      -2.783   8.916   8.595  0.00  0.00    +0.000 OA
ATOM     11  H   UNL     1      -3.145   8.175   8.079  0.00  0.00    +0.000 HD
ENDBRANCH   7  10
ENDBRANCH   1   4
BRANCH   1  12
ATOM     12  C   UNL     1      -7.367   9.748  13.051  0.00  0.00    +0.000 A 
ATOM     13  C   UNL     1      -6.495   9.284  14.053  0.00  0.00    +0.000 A 
ATOM     14  C   UNL     1      -6.885   8.298  14.956  0.00  0.00    +0.000 A 
ATOM     15  C   UNL     1      -8.161   7.757  14.862  0.00  0.00    +0.000 A 
ATOM     16  C   UNL     1      -9.046   8.187  13.881  0.00  0.00    +0.000 A 
ATOM     17  C   UNL     1      -8.644   9.171  12.982  0.00  0.00    +0.000 A 
BRANCH  15  18
ATOM     18  O   UNL     1      -8.577   6.795  15.734  0.00  0.00    +0.000 OA
ATOM     19  H   UNL     1      -8.430   7.114  16.642  0.00  0.00    +0.000 HD
ENDBRANCH  15  18
ENDBRANCH   1  12
TORSDOF 4
ENDMDL
