MODEL 1
REMARK VINA RESULT:      -5.4      0.000      0.000
REMARK  Name = BX795.pdbqt.pdb
REMARK  7 active torsions:
REMARK  status: ('A' for Active; 'I' for Inactive)
REMARK    1  A    between atoms: C_4  and  N_25
REMARK    2  A    between atoms: N_8  and  C_10
REMARK    3  A    between atoms: C_12  and  N_16
REMARK    4  A    between atoms: N_25  and  C_27
REMARK    5  A    between atoms: C_27  and  C_28
REMARK    6  A    between atoms: C_29  and  N_30
REMARK    7  A    between atoms: C_31  and  C_34
REMARK                            x       y       z     vdW  Elec       q    Type
REMARK                         _______ _______ _______ _____ _____    ______ ____
ROOT
ATOM      1  I   UNL     1       6.197  -8.827  12.075  0.00  0.00    +0.000 I 
ATOM      2  N   UNL     1       7.466  -4.977  10.572  0.00  0.00    +0.000 NA
ATOM      3  N   UNL     1       5.705  -5.704   9.191  0.00  0.00    +0.000 NA
ATOM      4  C   UNL     1       7.405  -6.109  11.303  0.00  0.00    +0.000 A 
ATOM      5  C   UNL     1       6.626  -4.804   9.541  0.00  0.00    +0.000 A 
ATOM      6  C   UNL     1       6.447  -7.066  11.034  0.00  0.00    +0.000 A 
ATOM      7  C   UNL     1       5.632  -6.806   9.960  0.00  0.00    +0.000 A 
ATOM      8  N   UNL     1       6.714  -3.665   8.746  0.00  0.00    +0.000 N 
ATOM      9  H   UNL     1       6.071  -3.707   7.969  0.00  0.00    +0.000 HD
ENDROOT
BRANCH   8  10
ATOM     10  C   UNL     1       7.383  -2.457   8.972  0.00  0.00    +0.000 A 
ATOM     11  C   UNL     1       6.956  -1.531   9.928  0.00  0.00    +0.000 A 
ATOM     12  C   UNL     1       7.683  -0.376  10.215  0.00  0.00    +0.000 A 
ATOM     13  C   UNL     1       8.884  -0.149   9.552  0.00  0.00    +0.000 A 
ATOM     14  C   UNL     1       9.338  -1.060   8.602  0.00  0.00    +0.000 A 
ATOM     15  C   UNL     1       8.592  -2.205   8.319  0.00  0.00    +0.000 A 
BRANCH  12  16
ATOM     16  N   UNL     1       7.129   0.526  11.141  0.00  0.00    +0.000 N 
ATOM     17  C   UNL     1       6.229   1.537  10.854  0.00  0.00    +0.000 C 
ATOM     18  O   UNL     1       5.900   1.867   9.715  0.00  0.00    +0.000 OA
ATOM     19  N   UNL     1       5.736   2.185  11.987  0.00  0.00    +0.000 N 
ATOM     20  C   UNL     1       5.972   2.016  13.318  0.00  0.00    +0.000 A 
ATOM     21  C   UNL     1       4.851   3.218  12.059  0.00  0.00    +0.000 A 
ATOM     22  C   UNL     1       5.282   2.916  14.349  0.00  0.00    +0.000 A 
ATOM     23  C   UNL     1       4.450   3.808  13.416  0.00  0.00    +0.000 A 
ATOM     24  H   UNL     1       7.480   0.473  12.089  0.00  0.00    +0.000 HD
ENDBRANCH  12  16
ENDBRANCH   8  10
BRANCH   4  25
ATOM     25  N   UNL     1       8.298  -6.263  12.395  0.00  0.00    +0.000 N 
ATOM     26  H   UNL     1       9.247  -6.052  12.094  0.00  0.00    +0.000 HD
BRANCH  25  27
ATOM     27  C   UNL     1       7.902  -5.611  13.640  0.00  0.00    +0.000 C 
BRANCH  27  28
ATOM     28  C   UNL     1       7.418  -4.865  14.888  0.00  0.00    +0.000 C 
ATOM     29  C   UNL     1       6.963  -4.039  16.094  0.00  0.00    +0.000 C 
BRANCH  29  30
ATOM     30  N   UNL     1       6.551  -3.267  17.125  0.00  0.00    +0.000 N 
ATOM     31  C   UNL     1       5.313  -3.236  17.750  0.00  0.00    +0.000 C 
ATOM     32  O   UNL     1       4.409  -3.998  17.406  0.00  0.00    +0.000 OA
ATOM     33  H   UNL     1       7.242  -2.587  17.421  0.00  0.00    +0.000 HD
BRANCH  31  34
ATOM     34  C   UNL     1       5.180  -2.239  18.799  0.00  0.00    +0.000 A 
ATOM     35  S   UNL     1       6.451  -1.113  19.078  0.00  0.00    +0.000 S 
ATOM     36  C   UNL     1       5.601  -0.388  20.353  0.00  0.00    +0.000 A 
ATOM     37  C   UNL     1       4.381  -0.961  20.581  0.00  0.00    +0.000 A 
ATOM     38  C   UNL     1       4.144  -2.026  19.684  0.00  0.00    +0.000 A 
ENDBRANCH  31  34
ENDBRANCH  29  30
ENDBRANCH  27  28
ENDBRANCH  25  27
ENDBRANCH   4  25
TORSDOF 7
ENDMDL
MODEL 2
REMARK VINA RESULT:      -4.7     21.423     22.242
REMARK  Name = BX795.pdbqt.pdb
REMARK  7 active torsions:
REMARK  status: ('A' for Active; 'I' for Inactive)
REMARK    1  A    between atoms: C_4  and  N_25
REMARK    2  A    between atoms: N_8  and  C_10
REMARK    3  A    between atoms: C_12  and  N_16
REMARK    4  A    between atoms: N_25  and  C_27
REMARK    5  A    between atoms: C_27  and  C_28
REMARK    6  A    between atoms: C_29  and  N_30
REMARK    7  A    between atoms: C_31  and  C_34
REMARK                            x       y       z     vdW  Elec       q    Type
REMARK                         _______ _______ _______ _____ _____    ______ ____
ROOT
ATOM      1  I   UNL     1      -4.818 -18.087  -2.287  0.00  0.00    +0.000 I 
ATOM      2  N   UNL     1      -6.480 -15.773   0.966  0.00  0.00    +0.000 NA
ATOM      3  N   UNL     1      -5.777 -14.240  -0.676  0.00  0.00    +0.000 NA
ATOM      4  C   UNL     1      -6.042 -16.815   0.229  0.00  0.00    +0.000 A 
ATOM      5  C   UNL     1      -6.336 -14.522   0.503  0.00  0.00    +0.000 A 
ATOM      6  C   UNL     1      -5.498 -16.608  -1.023  0.00  0.00    +0.000 A 
ATOM      7  C   UNL     1      -5.387 -15.296  -1.415  0.00  0.00    +0.000 A 
ATOM      8  N   UNL     1      -6.735 -13.437   1.276  0.00  0.00    +0.000 N 
ATOM      9  H   UNL     1      -6.498 -12.562   0.833  0.00  0.00    +0.000 HD
ENDROOT
BRANCH   8  10
ATOM     10  C   UNL     1      -7.546 -13.390   2.416  0.00  0.00    +0.000 A 
ATOM     11  C   UNL     1      -8.472 -12.366   2.635  0.00  0.00    +0.000 A 
ATOM     12  C   UNL     1      -9.345 -12.379   3.722  0.00  0.00    +0.000 A 
ATOM     13  C   UNL     1      -9.315 -13.455   4.603  0.00  0.00    +0.000 A 
ATOM     14  C   UNL     1      -8.410 -14.493   4.402  0.00  0.00    +0.000 A 
ATOM     15  C   UNL     1      -7.536 -14.460   3.315  0.00  0.00    +0.000 A 
BRANCH  12  16
ATOM     16  N   UNL     1     -10.187 -11.265   3.892  0.00  0.00    +0.000 N 
ATOM     17  C   UNL     1     -11.357 -11.014   3.197  0.00  0.00    +0.000 C 
ATOM     18  O   UNL     1     -11.743 -11.674   2.233  0.00  0.00    +0.000 OA
ATOM     19  N   UNL     1     -12.063  -9.910   3.673  0.00  0.00    +0.000 N 
ATOM     20  C   UNL     1     -11.823  -9.031   4.686  0.00  0.00    +0.000 A 
ATOM     21  C   UNL     1     -13.236  -9.389   3.217  0.00  0.00    +0.000 A 
ATOM     22  C   UNL     1     -12.795  -7.879   4.962  0.00  0.00    +0.000 A 
ATOM     23  C   UNL     1     -13.844  -8.144   3.872  0.00  0.00    +0.000 A 
ATOM     24  H   UNL     1      -9.864 -10.548   4.531  0.00  0.00    +0.000 HD
ENDBRANCH  12  16
ENDBRANCH   8  10
BRANCH   4  25
ATOM     25  N   UNL     1      -6.216 -18.128   0.736  0.00  0.00    +0.000 N 
ATOM     26  H   UNL     1      -5.357 -18.661   0.611  0.00  0.00    +0.000 HD
BRANCH  25  27
ATOM     27  C   UNL     1      -6.796 -18.225   2.073  0.00  0.00    +0.000 C 
BRANCH  27  28
ATOM     28  C   UNL     1      -7.450 -18.228   3.458  0.00  0.00    +0.000 C 
ATOM     29  C   UNL     1      -8.109 -18.138   4.837  0.00  0.00    +0.000 C 
BRANCH  29  30
ATOM     30  N   UNL     1      -8.717 -18.011   6.039  0.00  0.00    +0.000 N 
ATOM     31  C   UNL     1      -9.946 -17.439   6.336  0.00  0.00    +0.000 C 
ATOM     32  O   UNL     1     -10.665 -16.981   5.450  0.00  0.00    +0.000 OA
ATOM     33  H   UNL     1      -8.149 -18.332   6.814  0.00  0.00    +0.000 HD
BRANCH  31  34
ATOM     34  C   UNL     1     -10.282 -17.414   7.750  0.00  0.00    +0.000 A 
ATOM     35  S   UNL     1     -11.817 -16.821   8.257  0.00  0.00    +0.000 S 
ATOM     36  C   UNL     1     -11.440 -17.086   9.888  0.00  0.00    +0.000 A 
ATOM     37  C   UNL     1     -10.192 -17.612  10.074  0.00  0.00    +0.000 A 
ATOM     38  C   UNL     1      -9.530 -17.800   8.840  0.00  0.00    +0.000 A 
ENDBRANCH  31  34
ENDBRANCH  29  30
ENDBRANCH  27  28
ENDBRANCH  25  27
ENDBRANCH   4  25
TORSDOF 7
ENDMDL
MODEL 3
REMARK VINA RESULT:      -4.7     13.944     17.543
REMARK  Name = BX795.pdbqt.pdb
REMARK  7 active torsions:
REMARK  status: ('A' for Active; 'I' for Inactive)
REMARK    1  A    between atoms: C_4  and  N_25
REMARK    2  A    between atoms: N_8  and  C_10
REMARK    3  A    between atoms: C_12  and  N_16
REMARK    4  A    between atoms: N_25  and  C_27
REMARK    5  A    between atoms: C_27  and  C_28
REMARK    6  A    between atoms: C_29  and  N_30
REMARK    7  A    between atoms: C_31  and  C_34
REMARK                            x       y       z     vdW  Elec       q    Type
REMARK                         _______ _______ _______ _____ _____    ______ ____
ROOT
ATOM      1  I   UNL     1       2.561 -23.105  20.151  0.00  0.00    +0.000 I 
ATOM      2  N   UNL     1      -0.270 -19.906  19.480  0.00  0.00    +0.000 NA
ATOM      3  N   UNL     1      -0.369 -20.439  21.770  0.00  0.00    +0.000 NA
ATOM      4  C   UNL     1       0.649 -20.870  19.261  0.00  0.00    +0.000 A 
ATOM      5  C   UNL     1      -0.756 -19.717  20.716  0.00  0.00    +0.000 A 
ATOM      6  C   UNL     1       1.135 -21.625  20.309  0.00  0.00    +0.000 A 
ATOM      7  C   UNL     1       0.580 -21.364  21.538  0.00  0.00    +0.000 A 
ATOM      8  N   UNL     1      -1.742 -18.763  20.945  0.00  0.00    +0.000 N 
ATOM      9  H   UNL     1      -2.061 -18.785  21.902  0.00  0.00    +0.000 HD
ENDROOT
BRANCH   8  10
ATOM     10  C   UNL     1      -2.184 -17.709  20.137  0.00  0.00    +0.000 A 
ATOM     11  C   UNL     1      -1.385 -16.598  19.852  0.00  0.00    +0.000 A 
ATOM     12  C   UNL     1      -1.794 -15.600  18.967  0.00  0.00    +0.000 A 
ATOM     13  C   UNL     1      -3.022 -15.725  18.326  0.00  0.00    +0.000 A 
ATOM     14  C   UNL     1      -3.832 -16.828  18.583  0.00  0.00    +0.000 A 
ATOM     15  C   UNL     1      -3.413 -17.811  19.479  0.00  0.00    +0.000 A 
BRANCH  12  16
ATOM     16  N   UNL     1      -0.949 -14.488  18.807  0.00  0.00    +0.000 N 
ATOM     17  C   UNL     1      -0.694 -13.515  19.757  0.00  0.00    +0.000 C 
ATOM     18  O   UNL     1      -1.289 -13.424  20.830  0.00  0.00    +0.000 OA
ATOM     19  N   UNL     1       0.296 -12.609  19.377  0.00  0.00    +0.000 N 
ATOM     20  C   UNL     1       1.057 -12.496  18.253  0.00  0.00    +0.000 A 
ATOM     21  C   UNL     1       0.779 -11.537  20.066  0.00  0.00    +0.000 A 
ATOM     22  C   UNL     1       2.071 -11.356  18.112  0.00  0.00    +0.000 A 
ATOM     23  C   UNL     1       1.865 -10.644  19.457  0.00  0.00    +0.000 A 
ATOM     24  H   UNL     1      -0.550 -14.353  17.886  0.00  0.00    +0.000 HD
ENDBRANCH  12  16
ENDBRANCH   8  10
BRANCH   4  25
ATOM     25  N   UNL     1       1.154 -21.042  17.947  0.00  0.00    +0.000 N 
ATOM     26  H   UNL     1       0.597 -21.736  17.453  0.00  0.00    +0.000 HD
BRANCH  25  27
ATOM     27  C   UNL     1       1.398 -19.816  17.191  0.00  0.00    +0.000 C 
BRANCH  27  28
ATOM     28  C   UNL     1       1.728 -18.504  16.471  0.00  0.00    +0.000 C 
ATOM     29  C   UNL     1       1.977 -17.159  15.784  0.00  0.00    +0.000 C 
BRANCH  29  30
ATOM     30  N   UNL     1       2.166 -15.946  15.216  0.00  0.00    +0.000 N 
ATOM     31  C   UNL     1       3.339 -15.384  14.734  0.00  0.00    +0.000 C 
ATOM     32  O   UNL     1       4.399 -16.008  14.758  0.00  0.00    +0.000 OA
ATOM     33  H   UNL     1       1.333 -15.369  15.211  0.00  0.00    +0.000 HD
BRANCH  31  34
ATOM     34  C   UNL     1       3.206 -14.026  14.233  0.00  0.00    +0.000 A 
ATOM     35  S   UNL     1       3.759 -13.636  12.650  0.00  0.00    +0.000 S 
ATOM     36  C   UNL     1       3.303 -12.014  12.833  0.00  0.00    +0.000 A 
ATOM     37  C   UNL     1       2.741 -11.746  14.050  0.00  0.00    +0.000 A 
ATOM     38  C   UNL     1       2.687 -12.908  14.852  0.00  0.00    +0.000 A 
ENDBRANCH  31  34
ENDBRANCH  29  30
ENDBRANCH  27  28
ENDBRANCH  25  27
ENDBRANCH   4  25
TORSDOF 7
ENDMDL
MODEL 4
REMARK VINA RESULT:      -4.7     12.424     16.824
REMARK  Name = BX795.pdbqt.pdb
REMARK  7 active torsions:
REMARK  status: ('A' for Active; 'I' for Inactive)
REMARK    1  A    between atoms: C_4  and  N_25
REMARK    2  A    between atoms: N_8  and  C_10
REMARK    3  A    between atoms: C_12  and  N_16
REMARK    4  A    between atoms: N_25  and  C_27
REMARK    5  A    between atoms: C_27  and  C_28
REMARK    6  A    between atoms: C_29  and  N_30
REMARK    7  A    between atoms: C_31  and  C_34
REMARK                            x       y       z     vdW  Elec       q    Type
REMARK                         _______ _______ _______ _____ _____    ______ ____
ROOT
ATOM      1  I   UNL     1       2.982 -24.292  10.473  0.00  0.00    +0.000 I 
ATOM      2  N   UNL     1       3.164 -20.181  11.801  0.00  0.00    +0.000 NA
ATOM      3  N   UNL     1       1.142 -20.431  10.624  0.00  0.00    +0.000 NA
ATOM      4  C   UNL     1       3.501 -21.466  11.563  0.00  0.00    +0.000 A 
ATOM      5  C   UNL     1       2.007 -19.697  11.329  0.00  0.00    +0.000 A 
ATOM      6  C   UNL     1       2.637 -22.302  10.885  0.00  0.00    +0.000 A 
ATOM      7  C   UNL     1       1.476 -21.721  10.436  0.00  0.00    +0.000 A 
ATOM      8  N   UNL     1       1.673 -18.361  11.521  0.00  0.00    +0.000 N 
ATOM      9  H   UNL     1       0.813 -18.123  11.049  0.00  0.00    +0.000 HD
ENDROOT
BRANCH   8  10
ATOM     10  C   UNL     1       2.221 -17.409  12.389  0.00  0.00    +0.000 A 
ATOM     11  C   UNL     1       3.015 -16.352  11.936  0.00  0.00    +0.000 A 
ATOM     12  C   UNL     1       3.476 -15.353  12.794  0.00  0.00    +0.000 A 
ATOM     13  C   UNL     1       3.114 -15.393  14.136  0.00  0.00    +0.000 A 
ATOM     14  C   UNL     1       2.315 -16.429  14.611  0.00  0.00    +0.000 A 
ATOM     15  C   UNL     1       1.872 -17.426  13.742  0.00  0.00    +0.000 A 
BRANCH  12  16
ATOM     16  N   UNL     1       4.329 -14.375  12.252  0.00  0.00    +0.000 N 
ATOM     17  C   UNL     1       4.168 -13.005  12.357  0.00  0.00    +0.000 C 
ATOM     18  O   UNL     1       3.169 -12.461  12.827  0.00  0.00    +0.000 OA
ATOM     19  N   UNL     1       5.242 -12.275  11.849  0.00  0.00    +0.000 N 
ATOM     20  C   UNL     1       6.417 -12.650  11.268  0.00  0.00    +0.000 A 
ATOM     21  C   UNL     1       5.401 -10.924  11.789  0.00  0.00    +0.000 A 
ATOM     22  C   UNL     1       7.414 -11.594  10.780  0.00  0.00    +0.000 A 
ATOM     23  C   UNL     1       6.661 -10.313  11.166  0.00  0.00    +0.000 A 
ATOM     24  H   UNL     1       5.089 -14.710  11.673  0.00  0.00    +0.000 HD
ENDBRANCH  12  16
ENDBRANCH   8  10
BRANCH   4  25
ATOM     25  N   UNL     1       4.726 -21.956  12.084  0.00  0.00    +0.000 N 
ATOM     26  H   UNL     1       4.766 -22.967  11.972  0.00  0.00    +0.000 HD
BRANCH  25  27
ATOM     27  C   UNL     1       5.931 -21.254  11.650  0.00  0.00    +0.000 C 
BRANCH  27  28
ATOM     28  C   UNL     1       7.145 -20.497  11.100  0.00  0.00    +0.000 C 
ATOM     29  C   UNL     1       8.382 -19.820  10.505  0.00  0.00    +0.000 C 
BRANCH  29  30
ATOM     30  N   UNL     1       9.472 -19.256   9.936  0.00  0.00    +0.000 N 
ATOM     31  C   UNL     1       9.533 -18.314   8.919  0.00  0.00    +0.000 C 
ATOM     32  O   UNL     1       8.509 -17.849   8.421  0.00  0.00    +0.000 OA
ATOM     33  H   UNL     1      10.347 -19.636  10.277  0.00  0.00    +0.000 HD
BRANCH  31  34
ATOM     34  C   UNL     1      10.877 -17.957   8.496  0.00  0.00    +0.000 A 
ATOM     35  S   UNL     1      11.217 -17.721   6.825  0.00  0.00    +0.000 S 
ATOM     36  C   UNL     1      12.847 -17.387   7.150  0.00  0.00    +0.000 A 
ATOM     37  C   UNL     1      13.154 -17.442   8.481  0.00  0.00    +0.000 A 
ATOM     38  C   UNL     1      12.016 -17.771   9.252  0.00  0.00    +0.000 A 
ENDBRANCH  31  34
ENDBRANCH  29  30
ENDBRANCH  27  28
ENDBRANCH  25  27
ENDBRANCH   4  25
TORSDOF 7
ENDMDL
MODEL 5
REMARK VINA RESULT:      -4.5     18.829     22.184
REMARK  Name = BX795.pdbqt.pdb
REMARK  7 active torsions:
REMARK  status: ('A' for Active; 'I' for Inactive)
REMARK    1  A    between atoms: C_4  and  N_25
REMARK    2  A    between atoms: N_8  and  C_10
REMARK    3  A    between atoms: C_12  and  N_16
REMARK    4  A    between atoms: N_25  and  C_27
REMARK    5  A    between atoms: C_27  and  C_28
REMARK    6  A    between atoms: C_29  and  N_30
REMARK    7  A    between atoms: C_31  and  C_34
REMARK                            x       y       z     vdW  Elec       q    Type
REMARK                         _______ _______ _______ _____ _____    ______ ____
ROOT
ATOM      1  I   UNL     1       0.209  -9.424  -4.161  0.00  0.00    +0.000 I 
ATOM      2  N   UNL     1      -2.594  -6.410  -2.834  0.00  0.00    +0.000 NA
ATOM      3  N   UNL     1      -2.612  -8.120  -1.218  0.00  0.00    +0.000 NA
ATOM      4  C   UNL     1      -1.700  -7.085  -3.587  0.00  0.00    +0.000 A 
ATOM      5  C   UNL     1      -3.027  -6.939  -1.681  0.00  0.00    +0.000 A 
ATOM      6  C   UNL     1      -1.186  -8.290  -3.152  0.00  0.00    +0.000 A 
ATOM      7  C   UNL     1      -1.688  -8.756  -1.962  0.00  0.00    +0.000 A 
ATOM      8  N   UNL     1      -3.988  -6.279  -0.922  0.00  0.00    +0.000 N 
ATOM      9  H   UNL     1      -4.270  -6.829  -0.124  0.00  0.00    +0.000 HD
ENDROOT
BRANCH   8  10
ATOM     10  C   UNL     1      -4.444  -4.958  -0.994  0.00  0.00    +0.000 A 
ATOM     11  C   UNL     1      -4.489  -4.245  -2.196  0.00  0.00    +0.000 A 
ATOM     12  C   UNL     1      -5.036  -2.965  -2.277  0.00  0.00    +0.000 A 
ATOM     13  C   UNL     1      -5.579  -2.387  -1.134  0.00  0.00    +0.000 A 
ATOM     14  C   UNL     1      -5.557  -3.079   0.074  0.00  0.00    +0.000 A 
ATOM     15  C   UNL     1      -4.996  -4.355   0.139  0.00  0.00    +0.000 A 
BRANCH  12  16
ATOM     16  N   UNL     1      -4.965  -2.306  -3.517  0.00  0.00    +0.000 N 
ATOM     17  C   UNL     1      -3.861  -1.647  -4.027  0.00  0.00    +0.000 C 
ATOM     18  O   UNL     1      -2.829  -1.433  -3.392  0.00  0.00    +0.000 OA
ATOM     19  N   UNL     1      -4.030  -1.210  -5.341  0.00  0.00    +0.000 N 
ATOM     20  C   UNL     1      -5.070  -1.304  -6.216  0.00  0.00    +0.000 A 
ATOM     21  C   UNL     1      -3.153  -0.529  -6.131  0.00  0.00    +0.000 A 
ATOM     22  C   UNL     1      -4.965  -0.694  -7.618  0.00  0.00    +0.000 A 
ATOM     23  C   UNL     1      -3.542  -0.118  -7.555  0.00  0.00    +0.000 A 
ATOM     24  H   UNL     1      -5.826  -2.250  -4.048  0.00  0.00    +0.000 HD
ENDBRANCH  12  16
ENDBRANCH   8  10
BRANCH   4  25
ATOM     25  N   UNL     1      -1.250  -6.498  -4.798  0.00  0.00    +0.000 N 
ATOM     26  H   UNL     1      -0.588  -7.122  -5.255  0.00  0.00    +0.000 HD
BRANCH  25  27
ATOM     27  C   UNL     1      -2.289  -5.972  -5.678  0.00  0.00    +0.000 C 
BRANCH  27  28
ATOM     28  C   UNL     1      -3.451  -5.435  -6.520  0.00  0.00    +0.000 C 
ATOM     29  C   UNL     1      -4.671  -4.952  -7.310  0.00  0.00    +0.000 C 
BRANCH  29  30
ATOM     30  N   UNL     1      -5.779  -4.534  -7.963  0.00  0.00    +0.000 N 
ATOM     31  C   UNL     1      -7.014  -4.178  -7.440  0.00  0.00    +0.000 C 
ATOM     32  O   UNL     1      -7.217  -4.187  -6.227  0.00  0.00    +0.000 OA
ATOM     33  H   UNL     1      -5.684  -4.550  -8.971  0.00  0.00    +0.000 HD
BRANCH  31  34
ATOM     34  C   UNL     1      -8.019  -3.826  -8.429  0.00  0.00    +0.000 A 
ATOM     35  S   UNL     1      -7.723  -2.539  -9.534  0.00  0.00    +0.000 S 
ATOM     36  C   UNL     1      -9.241  -2.741 -10.260  0.00  0.00    +0.000 A 
ATOM     37  C   UNL     1      -9.973  -3.753  -9.704  0.00  0.00    +0.000 A 
ATOM     38  C   UNL     1      -9.265  -4.374  -8.650  0.00  0.00    +0.000 A 
ENDBRANCH  31  34
ENDBRANCH  29  30
ENDBRANCH  27  28
ENDBRANCH  25  27
ENDBRANCH   4  25
TORSDOF 7
ENDMDL
MODEL 6
REMARK VINA RESULT:      -4.5      7.945     11.313
REMARK  Name = BX795.pdbqt.pdb
REMARK  7 active torsions:
REMARK  status: ('A' for Active; 'I' for Inactive)
REMARK    1  A    between atoms: C_4  and  N_25
REMARK    2  A    between atoms: N_8  and  C_10
REMARK    3  A    between atoms: C_12  and  N_16
REMARK    4  A    between atoms: N_25  and  C_27
REMARK    5  A    between atoms: C_27  and  C_28
REMARK    6  A    between atoms: C_29  and  N_30
REMARK    7  A    between atoms: C_31  and  C_34
REMARK                            x       y       z     vdW  Elec       q    Type
REMARK                         _______ _______ _______ _____ _____    ______ ____
ROOT
ATOM      1  I   UNL     1      15.068 -14.591  14.800  0.00  0.00    +0.000 I 
ATOM      2  N   UNL     1      11.566 -12.637  13.181  0.00  0.00    +0.000 NA
ATOM      3  N   UNL     1      13.382 -12.033  11.811  0.00  0.00    +0.000 NA
ATOM      4  C   UNL     1      12.371 -13.362  13.986  0.00  0.00    +0.000 A 
ATOM      5  C   UNL     1      12.085 -11.993  12.126  0.00  0.00    +0.000 A 
ATOM      6  C   UNL     1      13.716 -13.493  13.698  0.00  0.00    +0.000 A 
ATOM      7  C   UNL     1      14.160 -12.798  12.600  0.00  0.00    +0.000 A 
ATOM      8  N   UNL     1      11.276 -11.198  11.320  0.00  0.00    +0.000 N 
ATOM      9  H   UNL     1      11.815 -10.720  10.614  0.00  0.00    +0.000 HD
ENDROOT
BRANCH   8  10
ATOM     10  C   UNL     1       9.881 -11.130  11.231  0.00  0.00    +0.000 A 
ATOM     11  C   UNL     1       9.208  -9.947  10.909  0.00  0.00    +0.000 A 
ATOM     12  C   UNL     1       7.826  -9.910  10.725  0.00  0.00    +0.000 A 
ATOM     13  C   UNL     1       7.096 -11.088  10.837  0.00  0.00    +0.000 A 
ATOM     14  C   UNL     1       7.743 -12.282  11.145  0.00  0.00    +0.000 A 
ATOM     15  C   UNL     1       9.124 -12.300  11.337  0.00  0.00    +0.000 A 
BRANCH  12  16
ATOM     16  N   UNL     1       7.238  -8.657  10.478  0.00  0.00    +0.000 N 
ATOM     17  C   UNL     1       6.867  -7.728  11.434  0.00  0.00    +0.000 C 
ATOM     18  O   UNL     1       6.878  -7.942  12.646  0.00  0.00    +0.000 OA
ATOM     19  N   UNL     1       6.441  -6.513  10.897  0.00  0.00    +0.000 N 
ATOM     20  C   UNL     1       6.320  -6.066   9.616  0.00  0.00    +0.000 A 
ATOM     21  C   UNL     1       6.005  -5.401  11.550  0.00  0.00    +0.000 A 
ATOM     22  C   UNL     1       5.792  -4.656   9.332  0.00  0.00    +0.000 A 
ATOM     23  C   UNL     1       5.557  -4.161  10.767  0.00  0.00    +0.000 A 
ATOM     24  H   UNL     1       7.001  -8.452   9.515  0.00  0.00    +0.000 HD
ENDBRANCH  12  16
ENDBRANCH   8  10
BRANCH   4  25
ATOM     25  N   UNL     1      11.796 -14.043  15.090  0.00  0.00    +0.000 N 
ATOM     26  H   UNL     1      11.896 -13.479  15.931  0.00  0.00    +0.000 HD
BRANCH  25  27
ATOM     27  C   UNL     1      10.453 -14.578  14.880  0.00  0.00    +0.000 C 
BRANCH  27  28
ATOM     28  C   UNL     1       9.054 -15.110  14.555  0.00  0.00    +0.000 C 
ATOM     29  C   UNL     1       7.622 -15.593  14.305  0.00  0.00    +0.000 C 
BRANCH  29  30
ATOM     30  N   UNL     1       6.339 -15.971  14.106  0.00  0.00    +0.000 N 
ATOM     31  C   UNL     1       5.363 -15.365  13.328  0.00  0.00    +0.000 C 
ATOM     32  O   UNL     1       5.611 -14.354  12.672  0.00  0.00    +0.000 OA
ATOM     33  H   UNL     1       6.066 -16.775  14.659  0.00  0.00    +0.000 HD
BRANCH  31  34
ATOM     34  C   UNL     1       4.058 -16.002  13.377  0.00  0.00    +0.000 A 
ATOM     35  S   UNL     1       3.595 -16.906  14.767  0.00  0.00    +0.000 S 
ATOM     36  C   UNL     1       2.096 -17.295  14.080  0.00  0.00    +0.000 A 
ATOM     37  C   UNL     1       1.921 -16.765  12.832  0.00  0.00    +0.000 A 
ATOM     38  C   UNL     1       3.053 -16.021  12.432  0.00  0.00    +0.000 A 
ENDBRANCH  31  34
ENDBRANCH  29  30
ENDBRANCH  27  28
ENDBRANCH  25  27
ENDBRANCH   4  25
TORSDOF 7
ENDMDL
MODEL 7
REMARK VINA RESULT:      -4.3     12.629     16.422
REMARK  Name = BX795.pdbqt.pdb
REMARK  7 active torsions:
REMARK  status: ('A' for Active; 'I' for Inactive)
REMARK    1  A    between atoms: C_4  and  N_25
REMARK    2  A    between atoms: N_8  and  C_10
REMARK    3  A    between atoms: C_12  and  N_16
REMARK    4  A    between atoms: N_25  and  C_27
REMARK    5  A    between atoms: C_27  and  C_28
REMARK    6  A    between atoms: C_29  and  N_30
REMARK    7  A    between atoms: C_31  and  C_34
REMARK                            x       y       z     vdW  Elec       q    Type
REMARK                         _______ _______ _______ _____ _____    ______ ____
ROOT
ATOM      1  I   UNL     1       1.479 -22.003  21.557  0.00  0.00    +0.000 I 
ATOM      2  N   UNL     1      -0.116 -18.173  20.336  0.00  0.00    +0.000 NA
ATOM      3  N   UNL     1      -0.636 -18.436  22.616  0.00  0.00    +0.000 NA
ATOM      4  C   UNL     1       0.475 -19.386  20.297  0.00  0.00    +0.000 A 
ATOM      5  C   UNL     1      -0.655 -17.732  21.482  0.00  0.00    +0.000 A 
ATOM      6  C   UNL     1       0.578 -20.153  21.440  0.00  0.00    +0.000 A 
ATOM      7  C   UNL     1      -0.004 -19.623  22.566  0.00  0.00    +0.000 A 
ATOM      8  N   UNL     1      -1.313 -16.507  21.524  0.00  0.00    +0.000 N 
ATOM      9  H   UNL     1      -1.730 -16.343  22.428  0.00  0.00    +0.000 HD
ENDROOT
BRANCH   8  10
ATOM     10  C   UNL     1      -1.309 -15.449  20.608  0.00  0.00    +0.000 A 
ATOM     11  C   UNL     1      -0.216 -14.589  20.462  0.00  0.00    +0.000 A 
ATOM     12  C   UNL     1      -0.180 -13.599  19.481  0.00  0.00    +0.000 A 
ATOM     13  C   UNL     1      -1.250 -13.479  18.600  0.00  0.00    +0.000 A 
ATOM     14  C   UNL     1      -2.346 -14.329  18.716  0.00  0.00    +0.000 A 
ATOM     15  C   UNL     1      -2.371 -15.307  19.711  0.00  0.00    +0.000 A 
BRANCH  12  16
ATOM     16  N   UNL     1       0.933 -12.739  19.466  0.00  0.00    +0.000 N 
ATOM     17  C   UNL     1       1.134 -11.654  20.300  0.00  0.00    +0.000 C 
ATOM     18  O   UNL     1       0.289 -11.215  21.079  0.00  0.00    +0.000 OA
ATOM     19  N   UNL     1       2.392 -11.068  20.160  0.00  0.00    +0.000 N 
ATOM     20  C   UNL     1       3.458 -11.356  19.361  0.00  0.00    +0.000 A 
ATOM     21  C   UNL     1       2.906  -9.989  20.815  0.00  0.00    +0.000 A 
ATOM     22  C   UNL     1       4.726 -10.499  19.419  0.00  0.00    +0.000 A 
ATOM     23  C   UNL     1       4.318  -9.484  20.498  0.00  0.00    +0.000 A 
ATOM     24  H   UNL     1       1.611 -12.890  18.729  0.00  0.00    +0.000 HD
ENDBRANCH  12  16
ENDBRANCH   8  10
BRANCH   4  25
ATOM     25  N   UNL     1       1.047 -19.824  19.075  0.00  0.00    +0.000 N 
ATOM     26  H   UNL     1       0.416 -20.478  18.615  0.00  0.00    +0.000 HD
BRANCH  25  27
ATOM     27  C   UNL     1       1.569 -18.776  18.202  0.00  0.00    +0.000 C 
BRANCH  27  28
ATOM     28  C   UNL     1       2.016 -17.664  17.248  0.00  0.00    +0.000 C 
ATOM     29  C   UNL     1       2.373 -16.540  16.271  0.00  0.00    +0.000 C 
BRANCH  29  30
ATOM     30  N   UNL     1       2.637 -15.526  15.416  0.00  0.00    +0.000 N 
ATOM     31  C   UNL     1       2.802 -14.176  15.692  0.00  0.00    +0.000 C 
ATOM     32  O   UNL     1       2.743 -13.752  16.846  0.00  0.00    +0.000 OA
ATOM     33  H   UNL     1       2.651 -15.811  14.444  0.00  0.00    +0.000 HD
BRANCH  31  34
ATOM     34  C   UNL     1       3.021 -13.336  14.527  0.00  0.00    +0.000 A 
ATOM     35  S   UNL     1       2.586 -11.671  14.574  0.00  0.00    +0.000 S 
ATOM     36  C   UNL     1       3.095 -11.437  12.975  0.00  0.00    +0.000 A 
ATOM     37  C   UNL     1       3.590 -12.572  12.396  0.00  0.00    +0.000 A 
ATOM     38  C   UNL     1       3.545 -13.662  13.293  0.00  0.00    +0.000 A 
ENDBRANCH  31  34
ENDBRANCH  29  30
ENDBRANCH  27  28
ENDBRANCH  25  27
ENDBRANCH   4  25
TORSDOF 7
ENDMDL
MODEL 8
REMARK VINA RESULT:      -4.3      8.485     13.330
REMARK  Name = BX795.pdbqt.pdb
REMARK  7 active torsions:
REMARK  status: ('A' for Active; 'I' for Inactive)
REMARK    1  A    between atoms: C_4  and  N_25
REMARK    2  A    between atoms: N_8  and  C_10
REMARK    3  A    between atoms: C_12  and  N_16
REMARK    4  A    between atoms: N_25  and  C_27
REMARK    5  A    between atoms: C_27  and  C_28
REMARK    6  A    between atoms: C_29  and  N_30
REMARK    7  A    between atoms: C_31  and  C_34
REMARK                            x       y       z     vdW  Elec       q    Type
REMARK                         _______ _______ _______ _____ _____    ______ ____
ROOT
ATOM      1  I   UNL     1       6.981  -5.716  11.823  0.00  0.00    +0.000 I 
ATOM      2  N   UNL     1       6.571  -9.330  14.162  0.00  0.00    +0.000 NA
ATOM      3  N   UNL     1       8.197  -8.005  15.229  0.00  0.00    +0.000 NA
ATOM      4  C   UNL     1       6.421  -8.415  13.181  0.00  0.00    +0.000 A 
ATOM      5  C   UNL     1       7.449  -9.108  15.151  0.00  0.00    +0.000 A 
ATOM      6  C   UNL     1       7.123  -7.227  13.218  0.00  0.00    +0.000 A 
ATOM      7  C   UNL     1       8.000  -7.086  14.265  0.00  0.00    +0.000 A 
ATOM      8  N   UNL     1       7.651 -10.066  16.139  0.00  0.00    +0.000 N 
ATOM      9  H   UNL     1       8.390  -9.794  16.770  0.00  0.00    +0.000 HD
ENDROOT
BRANCH   8  10
ATOM     10  C   UNL     1       6.888 -11.189  16.477  0.00  0.00    +0.000 A 
ATOM     11  C   UNL     1       5.767 -11.111  17.308  0.00  0.00    +0.000 A 
ATOM     12  C   UNL     1       4.955 -12.216  17.561  0.00  0.00    +0.000 A 
ATOM     13  C   UNL     1       5.250 -13.428  16.947  0.00  0.00    +0.000 A 
ATOM     14  C   UNL     1       6.355 -13.531  16.105  0.00  0.00    +0.000 A 
ATOM     15  C   UNL     1       7.163 -12.419  15.872  0.00  0.00    +0.000 A 
BRANCH  12  16
ATOM     16  N   UNL     1       3.895 -12.049  18.470  0.00  0.00    +0.000 N 
ATOM     17  C   UNL     1       3.905 -12.404  19.807  0.00  0.00    +0.000 C 
ATOM     18  O   UNL     1       4.807 -13.047  20.344  0.00  0.00    +0.000 OA
ATOM     19  N   UNL     1       2.770 -11.990  20.504  0.00  0.00    +0.000 N 
ATOM     20  C   UNL     1       1.655 -11.306  20.122  0.00  0.00    +0.000 A 
ATOM     21  C   UNL     1       2.461 -12.181  21.817  0.00  0.00    +0.000 A 
ATOM     22  C   UNL     1       0.541 -11.010  21.133  0.00  0.00    +0.000 A 
ATOM     23  C   UNL     1       1.138 -11.659  22.390  0.00  0.00    +0.000 A 
ATOM     24  H   UNL     1       3.023 -11.702  18.089  0.00  0.00    +0.000 HD
ENDBRANCH  12  16
ENDBRANCH   8  10
BRANCH   4  25
ATOM     25  N   UNL     1       5.477  -8.670  12.152  0.00  0.00    +0.000 N 
ATOM     26  H   UNL     1       5.848  -8.348  11.260  0.00  0.00    +0.000 HD
BRANCH  25  27
ATOM     27  C   UNL     1       4.916 -10.017  12.120  0.00  0.00    +0.000 C 
BRANCH  27  28
ATOM     28  C   UNL     1       4.403 -11.457  12.014  0.00  0.00    +0.000 C 
ATOM     29  C   UNL     1       3.960 -12.922  11.966  0.00  0.00    +0.000 C 
BRANCH  29  30
ATOM     30  N   UNL     1       3.590 -14.223  11.976  0.00  0.00    +0.000 N 
ATOM     31  C   UNL     1       4.281 -15.321  12.468  0.00  0.00    +0.000 C 
ATOM     32  O   UNL     1       5.377 -15.191  13.012  0.00  0.00    +0.000 OA
ATOM     33  H   UNL     1       2.713 -14.396  11.499  0.00  0.00    +0.000 HD
BRANCH  31  34
ATOM     34  C   UNL     1       3.620 -16.600  12.269  0.00  0.00    +0.000 A 
ATOM     35  S   UNL     1       4.426 -18.060  12.695  0.00  0.00    +0.000 S 
ATOM     36  C   UNL     1       3.113 -18.998  12.179  0.00  0.00    +0.000 A 
ATOM     37  C   UNL     1       2.075 -18.253  11.694  0.00  0.00    +0.000 A 
ATOM     38  C   UNL     1       2.371 -16.872  11.748  0.00  0.00    +0.000 A 
ENDBRANCH  31  34
ENDBRANCH  29  30
ENDBRANCH  27  28
ENDBRANCH  25  27
ENDBRANCH   4  25
TORSDOF 7
ENDMDL
MODEL 9
REMARK VINA RESULT:      -4.1     20.320     24.745
REMARK  Name = BX795.pdbqt.pdb
REMARK  7 active torsions:
REMARK  status: ('A' for Active; 'I' for Inactive)
REMARK    1  A    between atoms: C_4  and  N_25
REMARK    2  A    between atoms: N_8  and  C_10
REMARK    3  A    between atoms: C_12  and  N_16
REMARK    4  A    between atoms: N_25  and  C_27
REMARK    5  A    between atoms: C_27  and  C_28
REMARK    6  A    between atoms: C_29  and  N_30
REMARK    7  A    between atoms: C_31  and  C_34
REMARK                            x       y       z     vdW  Elec       q    Type
REMARK                         _______ _______ _______ _____ _____    ______ ____
ROOT
ATOM      1  I   UNL     1      -1.331 -13.755  33.984  0.00  0.00    +0.000 I 
ATOM      2  N   UNL     1      -5.173 -11.963  33.134  0.00  0.00    +0.000 NA
ATOM      3  N   UNL     1      -5.588 -13.903  34.401  0.00  0.00    +0.000 NA
ATOM      4  C   UNL     1      -3.844 -12.198  33.146  0.00  0.00    +0.000 A 
ATOM      5  C   UNL     1      -6.006 -12.813  33.752  0.00  0.00    +0.000 A 
ATOM      6  C   UNL     1      -3.330 -13.278  33.837  0.00  0.00    +0.000 A 
ATOM      7  C   UNL     1      -4.256 -14.095  34.438  0.00  0.00    +0.000 A 
ATOM      8  N   UNL     1      -7.381 -12.611  33.702  0.00  0.00    +0.000 N 
ATOM      9  H   UNL     1      -7.882 -13.366  34.146  0.00  0.00    +0.000 HD
ENDROOT
BRANCH   8  10
ATOM     10  C   UNL     1      -8.114 -11.479  33.325  0.00  0.00    +0.000 A 
ATOM     11  C   UNL     1      -8.521 -11.256  32.006  0.00  0.00    +0.000 A 
ATOM     12  C   UNL     1      -9.333 -10.179  31.656  0.00  0.00    +0.000 A 
ATOM     13  C   UNL     1      -9.777  -9.313  32.650  0.00  0.00    +0.000 A 
ATOM     14  C   UNL     1      -9.396  -9.519  33.973  0.00  0.00    +0.000 A 
ATOM     15  C   UNL     1      -8.573 -10.596  34.304  0.00  0.00    +0.000 A 
BRANCH  12  16
ATOM     16  N   UNL     1      -9.625 -10.002  30.291  0.00  0.00    +0.000 N 
ATOM     17  C   UNL     1     -10.816 -10.322  29.664  0.00  0.00    +0.000 C 
ATOM     18  O   UNL     1     -11.735 -10.938  30.201  0.00  0.00    +0.000 OA
ATOM     19  N   UNL     1     -10.877  -9.905  28.334  0.00  0.00    +0.000 N 
ATOM     20  C   UNL     1      -9.991  -9.246  27.535  0.00  0.00    +0.000 A 
ATOM     21  C   UNL     1     -11.890 -10.066  27.438  0.00  0.00    +0.000 A 
ATOM     22  C   UNL     1     -10.342  -8.939  26.076  0.00  0.00    +0.000 A 
ATOM     23  C   UNL     1     -11.751  -9.547  26.002  0.00  0.00    +0.000 A 
ATOM     24  H   UNL     1      -8.865  -9.677  29.705  0.00  0.00    +0.000 HD
ENDBRANCH  12  16
ENDBRANCH   8  10
BRANCH   4  25
ATOM     25  N   UNL     1      -2.984 -11.278  32.494  0.00  0.00    +0.000 N 
ATOM     26  H   UNL     1      -2.158 -11.764  32.152  0.00  0.00    +0.000 HD
BRANCH  25  27
ATOM     27  C   UNL     1      -3.615 -10.399  31.513  0.00  0.00    +0.000 C 
BRANCH  27  28
ATOM     28  C   UNL     1      -4.183  -9.425  30.475  0.00  0.00    +0.000 C 
ATOM     29  C   UNL     1      -4.830  -8.453  29.486  0.00  0.00    +0.000 C 
BRANCH  29  30
ATOM     30  N   UNL     1      -5.435  -7.574  28.654  0.00  0.00    +0.000 N 
ATOM     31  C   UNL     1      -6.778  -7.235  28.573  0.00  0.00    +0.000 C 
ATOM     32  O   UNL     1      -7.605  -7.729  29.338  0.00  0.00    +0.000 OA
ATOM     33  H   UNL     1      -4.807  -7.170  27.969  0.00  0.00    +0.000 HD
BRANCH  31  34
ATOM     34  C   UNL     1      -7.108  -6.290  27.519  0.00  0.00    +0.000 A 
ATOM     35  S   UNL     1      -7.441  -4.647  27.912  0.00  0.00    +0.000 S 
ATOM     36  C   UNL     1      -7.726  -4.261  26.287  0.00  0.00    +0.000 A 
ATOM     37  C   UNL     1      -7.577  -5.327  25.445  0.00  0.00    +0.000 A 
ATOM     38  C   UNL     1      -7.221  -6.493  26.159  0.00  0.00    +0.000 A 
ENDBRANCH  31  34
ENDBRANCH  29  30
ENDBRANCH  27  28
ENDBRANCH  25  27
ENDBRANCH   4  25
TORSDOF 7
ENDMDL
