MODEL 1
REMARK VINA RESULT:      -3.4      0.000      0.000
REMARK  Name = CadmiumAcetate.pdbqt.pdb
REMARK  1 active torsions:
REMARK  status: ('A' for Active; 'I' for Inactive)
REMARK    1  A    between atoms: C_3  and  O_4
REMARK                            x       y       z     vdW  Elec       q    Type
REMARK                         _______ _______ _______ _____ _____    ______ ____
ROOT
ATOM      1  O   UNL     1      -8.351  -6.422  19.119  0.00  0.00    +0.000 OA
ATOM      2  C   UNL     1      -8.214  -6.966  16.889  0.00  0.00    +0.000 C 
ATOM      3  C   UNL     1      -7.624  -6.822  18.234  0.00  0.00    +0.000 C 
ENDROOT
BRANCH   3   4
ATOM      4  O   UNL     1      -6.337  -7.149  18.348  0.00  0.00    +0.000 OA
ATOM      5  H   UNL     1      -6.338  -7.750  19.116  0.00  0.00    +0.000 HD
ENDBRANCH   3   4
TORSDOF 1
ENDMDL
MODEL 2
REMARK VINA RESULT:      -2.8     15.907     16.269
REMARK  Name = CadmiumAcetate.pdbqt.pdb
REMARK  1 active torsions:
REMARK  status: ('A' for Active; 'I' for Inactive)
REMARK    1  A    between atoms: C_3  and  O_4
REMARK                            x       y       z     vdW  Elec       q    Type
REMARK                         _______ _______ _______ _____ _____    ______ ____
ROOT
ATOM      1  O   UNL     1       5.596  -7.556   7.803  0.00  0.00    +0.000 OA
ATOM      2  C   UNL     1       5.758  -6.772   9.959  0.00  0.00    +0.000 C 
ATOM      3  C   UNL     1       5.363  -6.625   8.545  0.00  0.00    +0.000 C 
ENDROOT
BRANCH   3   4
ATOM      4  O   UNL     1       4.782  -5.472   8.216  0.00  0.00    +0.000 OA
ATOM      5  H   UNL     1       5.299  -4.820   8.724  0.00  0.00    +0.000 HD
ENDBRANCH   3   4
TORSDOF 1
ENDMDL
MODEL 3
REMARK VINA RESULT:      -2.8      1.878      2.300
REMARK  Name = CadmiumAcetate.pdbqt.pdb
REMARK  1 active torsions:
REMARK  status: ('A' for Active; 'I' for Inactive)
REMARK    1  A    between atoms: C_3  and  O_4
REMARK                            x       y       z     vdW  Elec       q    Type
REMARK                         _______ _______ _______ _____ _____    ______ ____
ROOT
ATOM      1  O   UNL     1      -8.649  -7.257  16.416  0.00  0.00    +0.000 OA
ATOM      2  C   UNL     1      -6.951  -7.024  17.949  0.00  0.00    +0.000 C 
ATOM      3  C   UNL     1      -8.101  -6.498  17.189  0.00  0.00    +0.000 C 
ENDROOT
BRANCH   3   4
ATOM      4  O   UNL     1      -8.431  -5.230  17.425  0.00  0.00    +0.000 OA
ATOM      5  H   UNL     1      -8.054  -4.765  16.656  0.00  0.00    +0.000 HD
ENDBRANCH   3   4
TORSDOF 1
ENDMDL
MODEL 4
REMARK VINA RESULT:      -2.6     14.406     14.826
REMARK  Name = CadmiumAcetate.pdbqt.pdb
REMARK  1 active torsions:
REMARK  status: ('A' for Active; 'I' for Inactive)
REMARK    1  A    between atoms: C_3  and  O_4
REMARK                            x       y       z     vdW  Elec       q    Type
REMARK                         _______ _______ _______ _____ _____    ______ ____
ROOT
ATOM      1  O   UNL     1     -14.621  -5.420   6.290  0.00  0.00    +0.000 OA
ATOM      2  C   UNL     1     -14.421  -6.324   4.186  0.00  0.00    +0.000 C 
ATOM      3  C   UNL     1     -14.319  -5.200   5.136  0.00  0.00    +0.000 C 
ENDROOT
BRANCH   3   4
ATOM      4  O   UNL     1     -13.900  -4.041   4.631  0.00  0.00    +0.000 OA
ATOM      5  H   UNL     1     -14.630  -3.793   4.034  0.00  0.00    +0.000 HD
ENDBRANCH   3   4
TORSDOF 1
ENDMDL
MODEL 5
REMARK VINA RESULT:      -2.6     18.766     18.909
REMARK  Name = CadmiumAcetate.pdbqt.pdb
REMARK  1 active torsions:
REMARK  status: ('A' for Active; 'I' for Inactive)
REMARK    1  A    between atoms: C_3  and  O_4
REMARK                            x       y       z     vdW  Elec       q    Type
REMARK                         _______ _______ _______ _____ _____    ______ ____
ROOT
ATOM      1  O   UNL     1      -7.239  -1.965  -0.391  0.00  0.00    +0.000 OA
ATOM      2  C   UNL     1      -5.439  -3.188   0.350  0.00  0.00    +0.000 C 
ATOM      3  C   UNL     1      -6.087  -1.914  -0.013  0.00  0.00    +0.000 C 
ENDROOT
BRANCH   3   4
ATOM      4  O   UNL     1      -5.340  -0.819   0.112  0.00  0.00    +0.000 OA
ATOM      5  H   UNL     1      -5.513  -0.346  -0.724  0.00  0.00    +0.000 HD
ENDBRANCH   3   4
TORSDOF 1
ENDMDL
MODEL 6
REMARK VINA RESULT:      -2.5     11.146     11.626
REMARK  Name = CadmiumAcetate.pdbqt.pdb
REMARK  1 active torsions:
REMARK  status: ('A' for Active; 'I' for Inactive)
REMARK    1  A    between atoms: C_3  and  O_4
REMARK                            x       y       z     vdW  Elec       q    Type
REMARK                         _______ _______ _______ _____ _____    ______ ____
ROOT
ATOM      1  O   UNL     1       2.472  -3.530  18.756  0.00  0.00    +0.000 OA
ATOM      2  C   UNL     1       3.087  -1.546  17.770  0.00  0.00    +0.000 C 
ATOM      3  C   UNL     1       3.232  -3.000  17.972  0.00  0.00    +0.000 C 
ENDROOT
BRANCH   3   4
ATOM      4  O   UNL     1       4.191  -3.598  17.268  0.00  0.00    +0.000 OA
ATOM      5  H   UNL     1       4.414  -4.368  17.823  0.00  0.00    +0.000 HD
ENDBRANCH   3   4
TORSDOF 1
ENDMDL
MODEL 7
REMARK VINA RESULT:      -2.3     12.894     13.189
REMARK  Name = CadmiumAcetate.pdbqt.pdb
REMARK  1 active torsions:
REMARK  status: ('A' for Active; 'I' for Inactive)
REMARK    1  A    between atoms: C_3  and  O_4
REMARK                            x       y       z     vdW  Elec       q    Type
REMARK                         _______ _______ _______ _____ _____    ______ ____
ROOT
ATOM      1  O   UNL     1     -14.451  -6.295   7.483  0.00  0.00    +0.000 OA
ATOM      2  C   UNL     1     -15.050  -4.136   6.966  0.00  0.00    +0.000 C 
ATOM      3  C   UNL     1     -15.249  -5.405   7.692  0.00  0.00    +0.000 C 
ENDROOT
BRANCH   3   4
ATOM      4  O   UNL     1     -16.295  -5.452   8.516  0.00  0.00    +0.000 OA
ATOM      5  H   UNL     1     -16.906  -4.803   8.120  0.00  0.00    +0.000 HD
ENDBRANCH   3   4
TORSDOF 1
ENDMDL
MODEL 8
REMARK VINA RESULT:      -2.3      7.694      8.441
REMARK  Name = CadmiumAcetate.pdbqt.pdb
REMARK  1 active torsions:
REMARK  status: ('A' for Active; 'I' for Inactive)
REMARK    1  A    between atoms: C_3  and  O_4
REMARK                            x       y       z     vdW  Elec       q    Type
REMARK                         _______ _______ _______ _____ _____    ______ ____
ROOT
ATOM      1  O   UNL     1      -7.511  -3.307  24.151  0.00  0.00    +0.000 OA
ATOM      2  C   UNL     1      -7.293  -3.867  26.370  0.00  0.00    +0.000 C 
ATOM      3  C   UNL     1      -7.846  -3.034  25.285  0.00  0.00    +0.000 C 
ENDROOT
BRANCH   3   4
ATOM      4  O   UNL     1      -8.668  -2.055  25.657  0.00  0.00    +0.000 OA
ATOM      5  H   UNL     1      -9.001  -2.372  26.517  0.00  0.00    +0.000 HD
ENDBRANCH   3   4
TORSDOF 1
ENDMDL
MODEL 9
REMARK VINA RESULT:      -2.2     11.807     12.355
REMARK  Name = CadmiumAcetate.pdbqt.pdb
REMARK  1 active torsions:
REMARK  status: ('A' for Active; 'I' for Inactive)
REMARK    1  A    between atoms: C_3  and  O_4
REMARK                            x       y       z     vdW  Elec       q    Type
REMARK                         _______ _______ _______ _____ _____    ______ ____
ROOT
ATOM      1  O   UNL     1     -19.722  -3.548  20.484  0.00  0.00    +0.000 OA
ATOM      2  C   UNL     1     -20.115  -5.291  21.932  0.00  0.00    +0.000 C 
ATOM      3  C   UNL     1     -19.215  -4.342  21.249  0.00  0.00    +0.000 C 
ENDROOT
BRANCH   3   4
ATOM      4  O   UNL     1     -17.920  -4.448  21.541  0.00  0.00    +0.000 OA
ATOM      5  H   UNL     1     -17.499  -3.921  20.837  0.00  0.00    +0.000 HD
ENDBRANCH   3   4
TORSDOF 1
ENDMDL
