MODEL 1
REMARK VINA RESULT:      -7.8      0.000      0.000
REMARK  Name = 
REMARK  17 active torsions:
REMARK  status: ('A' for Active; 'I' for Inactive)
REMARK    1  A    between atoms: O_1  and  C_14
REMARK    2  A    between atoms: O_2  and  C_32
REMARK    3  A    between atoms: O_2  and  C_36
REMARK    4  A    between atoms: O_6  and  C_39
REMARK    5  A    between atoms: O_7  and  C_41
REMARK    6  A    between atoms: O_7  and  C_43
REMARK    7  A    between atoms: O_9  and  C_47
REMARK    8  A    between atoms: O_9  and  C_49
REMARK    9  A    between atoms: O_10  and  C_45
REMARK   10  A    between atoms: O_12  and  C_51
REMARK   11  A    between atoms: O_13  and  C_53
REMARK   12  A    between atoms: C_17  and  C_29
REMARK   13  A    between atoms: C_18  and  C_30
REMARK   14  A    between atoms: C_22  and  C_33
REMARK   15  A    between atoms: C_40  and  C_42
REMARK   16  A    between atoms: C_46  and  C_48
REMARK   17  A    between atoms: C_52  and  C_54
REMARK                            x       y       z     vdW  Elec       q    Type
REMARK                         _______ _______ _______ _____ _____    ______ ____
ROOT
ATOM      1  O   UNL     1      -8.714 -18.985   6.697  0.00  0.00    +0.000 OA
ATOM      2  C   UNL     1      -7.772 -18.640   7.710  0.00  0.00    +0.000 C 
ATOM      3  C   UNL     1      -6.513 -19.509   7.653  0.00  0.00    +0.000 C 
ATOM      4  C   UNL     1      -6.477 -20.355   6.389  0.00  0.00    +0.000 C 
ATOM      5  C   UNL     1      -8.200 -18.776   5.376  0.00  0.00    +0.000 C 
ATOM      6  C   UNL     1      -6.914 -19.597   5.119  0.00  0.00    +0.000 C 
ATOM      7  C   UNL     1      -9.311 -19.173   4.404  0.00  0.00    +0.000 C 
ENDROOT
BRANCH   4   8
ATOM      8  O   UNL     1      -5.231 -21.028   6.245  0.00  0.00    +0.000 OA
ATOM      9  H   UNL     1      -5.154 -21.633   7.013  0.00  0.00    +0.000 HD
ENDBRANCH   4   8
BRANCH   2  10
ATOM     10  O   UNL     1      -8.354 -18.660   9.013  0.00  0.00    +0.000 OA
BRANCH  10  29
ATOM     11  C   UNL     1     -15.379 -15.373   9.636  0.00  0.00    +0.000 C 
ATOM     12  C   UNL     1     -13.951 -15.971   9.516  0.00  0.00    +0.000 C 
ATOM     13  C   UNL     1     -13.156 -15.948  10.847  0.00  0.00    +0.000 C 
ATOM     14  C   UNL     1     -16.204 -15.925  10.833  0.00  0.00    +0.000 C 
ATOM     15  C   UNL     1     -11.703 -16.564  10.721  0.00  0.00    +0.000 C 
ATOM     16  C   UNL     1     -10.958 -15.932   9.499  0.00  0.00    +0.000 C 
ATOM     17  C   UNL     1     -14.001 -16.580  11.972  0.00  0.00    +0.000 C 
ATOM     18  C   UNL     1     -15.358 -15.892  12.129  0.00  0.00    +0.000 C 
ATOM     19  C   UNL     1     -17.390 -14.909  10.880  0.00  0.00    +0.000 C 
ATOM     20  C   UNL     1     -13.149 -15.286   8.399  0.00  0.00    +0.000 C 
ATOM     21  C   UNL     1     -15.425 -13.847   9.832  0.00  0.00    +0.000 C 
ATOM     22  C   UNL     1     -11.797 -15.954   8.209  0.00  0.00    +0.000 C 
ATOM     23  C   UNL     1     -16.728 -13.548  10.584  0.00  0.00    +0.000 C 
ATOM     24  C   UNL     1     -11.735 -18.110  10.573  0.00  0.00    +0.000 C 
ATOM     25  C   UNL     1      -9.590 -16.593   9.228  0.00  0.00    +0.000 C 
ATOM     26  C   UNL     1     -16.712 -17.360  10.584  0.00  0.00    +0.000 C 
ATOM     27  C   UNL     1     -10.921 -16.206  12.016  0.00  0.00    +0.000 C 
ATOM     28  C   UNL     1     -10.364 -18.730  10.304  0.00  0.00    +0.000 C 
ATOM     29  C   UNL     1      -9.676 -18.115   9.086  0.00  0.00    +0.000 C 
BRANCH  19  32
ATOM     30  O   UNL     1     -20.102 -15.509  13.389  0.00  0.00    +0.000 OA
ATOM     31  O   UNL     1     -19.540 -14.185  15.179  0.00  0.00    +0.000 OA
ATOM     32  C   UNL     1     -18.278 -14.947  12.095  0.00  0.00    +0.000 C 
ATOM     33  C   UNL     1     -19.509 -15.775  12.119  0.00  0.00    +0.000 C 
ATOM     34  C   UNL     1     -18.180 -14.257  13.232  0.00  0.00    +0.000 C 
ATOM     35  C   UNL     1     -19.326 -14.620  14.063  0.00  0.00    +0.000 C 
ENDBRANCH  19  32
BRANCH  11  36
ATOM     36  O   UNL     1     -16.088 -15.630   8.412  0.00  0.00    +0.000 OA
ATOM     37  H   UNL     1     -15.820 -14.966   7.753  0.00  0.00    +0.000 HD
ENDBRANCH  11  36
ENDBRANCH  10  29
ENDBRANCH   2  10
BRANCH   6  38
ATOM     38  O   UNL     1      -5.954 -18.873   4.343  0.00  0.00    +0.000 OA
BRANCH  38  40
ATOM     39  O   UNL     1      -6.797 -18.211   2.225  0.00  0.00    +0.000 OA
ATOM     40  C   UNL     1      -6.250 -17.794   3.469  0.00  0.00    +0.000 C 
ATOM     41  C   UNL     1      -5.134 -16.772   3.276  0.00  0.00    +0.000 C 
ATOM     42  C   UNL     1      -5.159 -16.137   1.889  0.00  0.00    +0.000 C 
ATOM     43  C   UNL     1      -7.497 -17.132   1.578  0.00  0.00    +0.000 C 
ATOM     44  C   UNL     1      -6.566 -15.926   1.295  0.00  0.00    +0.000 C 
ATOM     45  C   UNL     1      -8.074 -17.698   0.282  0.00  0.00    +0.000 C 
BRANCH  42  46
ATOM     46  O   UNL     1      -4.382 -14.940   1.864  0.00  0.00    +0.000 OA
ATOM     47  H   UNL     1      -3.541 -15.132   1.414  0.00  0.00    +0.000 HD
ENDBRANCH  42  46
BRANCH  44  48
ATOM     48  O   UNL     1      -7.222 -14.678   1.553  0.00  0.00    +0.000 OA
BRANCH  48  50
ATOM     49  O   UNL     1      -9.386 -14.264   2.365  0.00  0.00    +0.000 OA
ATOM     50  C   UNL     1      -8.037 -14.556   2.712  0.00  0.00    +0.000 C 
ATOM     51  C   UNL     1      -7.467 -13.393   3.530  0.00  0.00    +0.000 C 
ATOM     52  C   UNL     1      -8.537 -12.694   4.366  0.00  0.00    +0.000 C 
ATOM     53  C   UNL     1     -10.275 -14.297   3.497  0.00  0.00    +0.000 C 
ATOM     54  C   UNL     1      -9.654 -13.664   4.756  0.00  0.00    +0.000 C 
ATOM     55  C   UNL     1     -11.535 -13.554   3.067  0.00  0.00    +0.000 C 
BRANCH  52  56
ATOM     56  O   UNL     1      -7.928 -12.176   5.555  0.00  0.00    +0.000 OA
ATOM     57  H   UNL     1      -7.018 -12.522   5.593  0.00  0.00    +0.000 HD
ENDBRANCH  52  56
BRANCH  54  58
ATOM     58  O   UNL     1      -9.082 -14.702   5.572  0.00  0.00    +0.000 OA
ATOM     59  H   UNL     1      -9.422 -14.546   6.478  0.00  0.00    +0.000 HD
ENDBRANCH  54  58
ENDBRANCH  48  50
ENDBRANCH  44  48
ENDBRANCH  38  40
ENDBRANCH   6  38
TORSDOF 12
ENDMDL
MODEL 2
REMARK VINA RESULT:      -7.2      3.031      4.958
REMARK  Name = 
REMARK  17 active torsions:
REMARK  status: ('A' for Active; 'I' for Inactive)
REMARK    1  A    between atoms: O_1  and  C_14
REMARK    2  A    between atoms: O_2  and  C_32
REMARK    3  A    between atoms: O_2  and  C_36
REMARK    4  A    between atoms: O_6  and  C_39
REMARK    5  A    between atoms: O_7  and  C_41
REMARK    6  A    between atoms: O_7  and  C_43
REMARK    7  A    between atoms: O_9  and  C_47
REMARK    8  A    between atoms: O_9  and  C_49
REMARK    9  A    between atoms: O_10  and  C_45
REMARK   10  A    between atoms: O_12  and  C_51
REMARK   11  A    between atoms: O_13  and  C_53
REMARK   12  A    between atoms: C_17  and  C_29
REMARK   13  A    between atoms: C_18  and  C_30
REMARK   14  A    between atoms: C_22  and  C_33
REMARK   15  A    between atoms: C_40  and  C_42
REMARK   16  A    between atoms: C_46  and  C_48
REMARK   17  A    between atoms: C_52  and  C_54
REMARK                            x       y       z     vdW  Elec       q    Type
REMARK                         _______ _______ _______ _____ _____    ______ ____
ROOT
ATOM      1  O   UNL     1      -9.365 -16.188   3.981  0.00  0.00    +0.000 OA
ATOM      2  C   UNL     1     -10.447 -15.272   3.839  0.00  0.00    +0.000 C 
ATOM      3  C   UNL     1     -10.171 -13.933   4.529  0.00  0.00    +0.000 C 
ATOM      4  C   UNL     1      -8.723 -13.829   4.983  0.00  0.00    +0.000 C 
ATOM      5  C   UNL     1      -8.161 -15.714   3.364  0.00  0.00    +0.000 C 
ATOM      6  C   UNL     1      -7.707 -14.356   3.949  0.00  0.00    +0.000 C 
ATOM      7  C   UNL     1      -7.101 -16.793   3.583  0.00  0.00    +0.000 C 
ENDROOT
BRANCH   4   8
ATOM      8  O   UNL     1      -8.416 -12.525   5.462  0.00  0.00    +0.000 OA
ATOM      9  H   UNL     1      -9.255 -12.018   5.439  0.00  0.00    +0.000 HD
ENDBRANCH   4   8
BRANCH   2  10
ATOM     10  O   UNL     1     -11.685 -15.831   4.278  0.00  0.00    +0.000 OA
BRANCH  10  29
ATOM     11  C   UNL     1     -12.547 -16.822  11.948  0.00  0.00    +0.000 C 
ATOM     12  C   UNL     1     -12.362 -16.686  10.412  0.00  0.00    +0.000 C 
ATOM     13  C   UNL     1     -13.523 -17.305   9.592  0.00  0.00    +0.000 C 
ATOM     14  C   UNL     1     -13.945 -16.377  12.465  0.00  0.00    +0.000 C 
ATOM     15  C   UNL     1     -13.333 -17.159   8.027  0.00  0.00    +0.000 C 
ATOM     16  C   UNL     1     -11.904 -17.645   7.613  0.00  0.00    +0.000 C 
ATOM     17  C   UNL     1     -14.873 -16.762  10.105  0.00  0.00    +0.000 C 
ATOM     18  C   UNL     1     -15.063 -17.011  11.601  0.00  0.00    +0.000 C 
ATOM     19  C   UNL     1     -13.928 -16.950  13.918  0.00  0.00    +0.000 C 
ATOM     20  C   UNL     1     -11.014 -17.265   9.957  0.00  0.00    +0.000 C 
ATOM     21  C   UNL     1     -12.393 -18.253  12.492  0.00  0.00    +0.000 C 
ATOM     22  C   UNL     1     -10.788 -17.025   8.473  0.00  0.00    +0.000 C 
ATOM     23  C   UNL     1     -13.236 -18.321  13.771  0.00  0.00    +0.000 C 
ATOM     24  C   UNL     1     -13.550 -15.697   7.545  0.00  0.00    +0.000 C 
ATOM     25  C   UNL     1     -11.597 -17.394   6.122  0.00  0.00    +0.000 C 
ATOM     26  C   UNL     1     -14.107 -14.844  12.474  0.00  0.00    +0.000 C 
ATOM     27  C   UNL     1     -14.385 -18.070   7.333  0.00  0.00    +0.000 C 
ATOM     28  C   UNL     1     -13.234 -15.485   6.065  0.00  0.00    +0.000 C 
ATOM     29  C   UNL     1     -11.822 -15.939   5.700  0.00  0.00    +0.000 C 
BRANCH  19  32
ATOM     30  O   UNL     1     -17.174 -17.831  15.560  0.00  0.00    +0.000 OA
ATOM     31  O   UNL     1     -18.019 -15.825  16.291  0.00  0.00    +0.000 OA
ATOM     32  C   UNL     1     -15.235 -16.962  14.665  0.00  0.00    +0.000 C 
ATOM     33  C   UNL     1     -15.984 -18.225  14.880  0.00  0.00    +0.000 C 
ATOM     34  C   UNL     1     -15.934 -15.938  15.157  0.00  0.00    +0.000 C 
ATOM     35  C   UNL     1     -17.158 -16.484  15.738  0.00  0.00    +0.000 C 
ENDBRANCH  19  32
BRANCH  11  36
ATOM     36  O   UNL     1     -11.529 -16.044  12.602  0.00  0.00    +0.000 OA
ATOM     37  H   UNL     1     -11.391 -15.226  12.096  0.00  0.00    +0.000 HD
ENDBRANCH  11  36
ENDBRANCH  10  29
ENDBRANCH   2  10
BRANCH   6  38
ATOM     38  O   UNL     1      -7.176 -13.484   2.947  0.00  0.00    +0.000 OA
BRANCH  38  40
ATOM     39  O   UNL     1      -8.412 -13.388   0.923  0.00  0.00    +0.000 OA
ATOM     40  C   UNL     1      -7.946 -12.681   2.065  0.00  0.00    +0.000 C 
ATOM     41  C   UNL     1      -7.329 -11.339   1.681  0.00  0.00    +0.000 C 
ATOM     42  C   UNL     1      -7.732 -10.893   0.278  0.00  0.00    +0.000 C 
ATOM     43  C   UNL     1      -9.532 -12.714   0.317  0.00  0.00    +0.000 C 
ATOM     44  C   UNL     1      -9.164 -11.280  -0.141  0.00  0.00    +0.000 C 
ATOM     45  C   UNL     1      -9.973 -13.574  -0.865  0.00  0.00    +0.000 C 
BRANCH  42  46
ATOM     46  O   UNL     1      -7.477  -9.501   0.095  0.00  0.00    +0.000 OA
ATOM     47  H   UNL     1      -7.155  -9.367  -0.813  0.00  0.00    +0.000 HD
ENDBRANCH  42  46
BRANCH  44  48
ATOM     48  O   UNL     1     -10.218 -10.348   0.135  0.00  0.00    +0.000 OA
BRANCH  48  50
ATOM     49  O   UNL     1     -12.121 -10.574   1.492  0.00  0.00    +0.000 OA
ATOM     50  C   UNL     1     -10.732 -10.266   1.458  0.00  0.00    +0.000 C 
ATOM     51  C   UNL     1     -10.529  -8.818   1.919  0.00  0.00    +0.000 C 
ATOM     52  C   UNL     1     -11.579  -8.383   2.939  0.00  0.00    +0.000 C 
ATOM     53  C   UNL     1     -12.643 -10.663   2.830  0.00  0.00    +0.000 C 
ATOM     54  C   UNL     1     -12.078  -9.574   3.760  0.00  0.00    +0.000 C 
ATOM     55  C   UNL     1     -14.158 -10.551   2.702  0.00  0.00    +0.000 C 
BRANCH  52  56
ATOM     56  O   UNL     1     -10.992  -7.418   3.821  0.00  0.00    +0.000 OA
ATOM     57  H   UNL     1     -11.715  -7.016   4.337  0.00  0.00    +0.000 HD
ENDBRANCH  52  56
BRANCH  54  58
ATOM     58  O   UNL     1     -10.964 -10.112   4.494  0.00  0.00    +0.000 OA
ATOM     59  H   UNL     1     -10.812 -11.008   4.129  0.00  0.00    +0.000 HD
ENDBRANCH  54  58
ENDBRANCH  48  50
ENDBRANCH  44  48
ENDBRANCH  38  40
ENDBRANCH   6  38
TORSDOF 12
ENDMDL
MODEL 3
REMARK VINA RESULT:      -7.0      4.259      6.573
REMARK  Name = 
REMARK  17 active torsions:
REMARK  status: ('A' for Active; 'I' for Inactive)
REMARK    1  A    between atoms: O_1  and  C_14
REMARK    2  A    between atoms: O_2  and  C_32
REMARK    3  A    between atoms: O_2  and  C_36
REMARK    4  A    between atoms: O_6  and  C_39
REMARK    5  A    between atoms: O_7  and  C_41
REMARK    6  A    between atoms: O_7  and  C_43
REMARK    7  A    between atoms: O_9  and  C_47
REMARK    8  A    between atoms: O_9  and  C_49
REMARK    9  A    between atoms: O_10  and  C_45
REMARK   10  A    between atoms: O_12  and  C_51
REMARK   11  A    between atoms: O_13  and  C_53
REMARK   12  A    between atoms: C_17  and  C_29
REMARK   13  A    between atoms: C_18  and  C_30
REMARK   14  A    between atoms: C_22  and  C_33
REMARK   15  A    between atoms: C_40  and  C_42
REMARK   16  A    between atoms: C_46  and  C_48
REMARK   17  A    between atoms: C_52  and  C_54
REMARK                            x       y       z     vdW  Elec       q    Type
REMARK                         _______ _______ _______ _____ _____    ______ ____
ROOT
ATOM      1  O   UNL     1     -10.231 -14.413   3.612  0.00  0.00    +0.000 OA
ATOM      2  C   UNL     1      -9.600 -14.023   4.828  0.00  0.00    +0.000 C 
ATOM      3  C   UNL     1      -8.385 -13.121   4.590  0.00  0.00    +0.000 C 
ATOM      4  C   UNL     1      -8.301 -12.672   3.140  0.00  0.00    +0.000 C 
ATOM      5  C   UNL     1     -10.758 -13.296   2.884  0.00  0.00    +0.000 C 
ATOM      6  C   UNL     1      -9.660 -12.264   2.533  0.00  0.00    +0.000 C 
ATOM      7  C   UNL     1     -11.409 -13.861   1.622  0.00  0.00    +0.000 C 
ENDROOT
BRANCH   4   8
ATOM      8  O   UNL     1      -7.283 -11.695   2.951  0.00  0.00    +0.000 OA
ATOM      9  H   UNL     1      -6.633 -11.833   3.672  0.00  0.00    +0.000 HD
ENDBRANCH   4   8
BRANCH   2  10
ATOM     10  O   UNL     1      -9.255 -15.147   5.639  0.00  0.00    +0.000 OA
BRANCH  10  29
ATOM     11  C   UNL     1     -13.361 -16.270  12.152  0.00  0.00    +0.000 C 
ATOM     12  C   UNL     1     -12.506 -16.096  10.868  0.00  0.00    +0.000 C 
ATOM     13  C   UNL     1     -12.782 -17.175   9.790  0.00  0.00    +0.000 C 
ATOM     14  C   UNL     1     -14.880 -16.472  11.886  0.00  0.00    +0.000 C 
ATOM     15  C   UNL     1     -11.912 -16.991   8.480  0.00  0.00    +0.000 C 
ATOM     16  C   UNL     1     -10.404 -16.810   8.859  0.00  0.00    +0.000 C 
ATOM     17  C   UNL     1     -14.298 -17.267   9.518  0.00  0.00    +0.000 C 
ATOM     18  C   UNL     1     -15.095 -17.547  10.792  0.00  0.00    +0.000 C 
ATOM     19  C   UNL     1     -15.374 -16.952  13.288  0.00  0.00    +0.000 C 
ATOM     20  C   UNL     1     -11.007 -16.036  11.197  0.00  0.00    +0.000 C 
ATOM     21  C   UNL     1     -12.978 -17.479  13.023  0.00  0.00    +0.000 C 
ATOM     22  C   UNL     1     -10.184 -15.749   9.951  0.00  0.00    +0.000 C 
ATOM     23  C   UNL     1     -14.249 -17.885  13.780  0.00  0.00    +0.000 C 
ATOM     24  C   UNL     1     -12.386 -15.780   7.628  0.00  0.00    +0.000 C 
ATOM     25  C   UNL     1      -9.519 -16.478   7.641  0.00  0.00    +0.000 C 
ATOM     26  C   UNL     1     -15.582 -15.163  11.468  0.00  0.00    +0.000 C 
ATOM     27  C   UNL     1     -12.056 -18.283   7.627  0.00  0.00    +0.000 C 
ATOM     28  C   UNL     1     -11.484 -15.478   6.432  0.00  0.00    +0.000 C 
ATOM     29  C   UNL     1     -10.026 -15.276   6.839  0.00  0.00    +0.000 C 
BRANCH  19  32
ATOM     30  O   UNL     1     -19.051 -17.533  13.680  0.00  0.00    +0.000 OA
ATOM     31  O   UNL     1     -19.305 -19.806  13.485  0.00  0.00    +0.000 OA
ATOM     32  C   UNL     1     -16.766 -17.520  13.367  0.00  0.00    +0.000 C 
ATOM     33  C   UNL     1     -17.938 -16.642  13.615  0.00  0.00    +0.000 C 
ATOM     34  C   UNL     1     -17.163 -18.791  13.312  0.00  0.00    +0.000 C 
ATOM     35  C   UNL     1     -18.613 -18.805  13.496  0.00  0.00    +0.000 C 
ENDBRANCH  19  32
BRANCH  11  36
ATOM     36  O   UNL     1     -13.175 -15.114  12.987  0.00  0.00    +0.000 OA
ATOM     37  H   UNL     1     -12.250 -15.093  13.286  0.00  0.00    +0.000 HD
ENDBRANCH  11  36
ENDBRANCH  10  29
ENDBRANCH   2  10
BRANCH   6  38
ATOM     38  O   UNL     1     -10.126 -10.916   2.645  0.00  0.00    +0.000 OA
BRANCH  38  40
ATOM     39  O   UNL     1     -11.096 -10.980   0.480  0.00  0.00    +0.000 OA
ATOM     40  C   UNL     1     -10.908 -10.234   1.675  0.00  0.00    +0.000 C 
ATOM     41  C   UNL     1     -10.493  -8.797   1.380  0.00  0.00    +0.000 C 
ATOM     42  C   UNL     1     -10.787  -8.388  -0.060  0.00  0.00    +0.000 C 
ATOM     43  C   UNL     1     -12.231 -10.494  -0.262  0.00  0.00    +0.000 C 
ATOM     44  C   UNL     1     -12.066  -9.005  -0.662  0.00  0.00    +0.000 C 
ATOM     45  C   UNL     1     -12.363 -11.384  -1.495  0.00  0.00    +0.000 C 
BRANCH  42  46
ATOM     46  O   UNL     1     -10.760  -6.969  -0.202  0.00  0.00    +0.000 OA
ATOM     47  H   UNL     1      -9.879  -6.653   0.065  0.00  0.00    +0.000 HD
ENDBRANCH  42  46
BRANCH  44  48
ATOM     48  O   UNL     1     -13.292  -8.278  -0.519  0.00  0.00    +0.000 OA
BRANCH  48  50
ATOM     49  O   UNL     1     -15.417  -8.649   0.410  0.00  0.00    +0.000 OA
ATOM     50  C   UNL     1     -14.039  -8.421   0.683  0.00  0.00    +0.000 C 
ATOM     51  C   UNL     1     -13.893  -7.103   1.451  0.00  0.00    +0.000 C 
ATOM     52  C   UNL     1     -15.102  -6.811   2.336  0.00  0.00    +0.000 C 
ATOM     53  C   UNL     1     -16.178  -8.964   1.591  0.00  0.00    +0.000 C 
ATOM     54  C   UNL     1     -15.770  -8.107   2.803  0.00  0.00    +0.000 C 
ATOM     55  C   UNL     1     -17.641  -8.742   1.223  0.00  0.00    +0.000 C 
BRANCH  52  56
ATOM     56  O   UNL     1     -14.667  -6.068   3.481  0.00  0.00    +0.000 OA
ATOM     57  H   UNL     1     -14.122  -5.327   3.160  0.00  0.00    +0.000 HD
ENDBRANCH  52  56
BRANCH  54  58
ATOM     58  O   UNL     1     -14.821  -8.838   3.600  0.00  0.00    +0.000 OA
ATOM     59  H   UNL     1     -15.217  -8.901   4.494  0.00  0.00    +0.000 HD
ENDBRANCH  54  58
ENDBRANCH  48  50
ENDBRANCH  44  48
ENDBRANCH  38  40
ENDBRANCH   6  38
TORSDOF 12
ENDMDL
MODEL 4
REMARK VINA RESULT:      -6.9     13.994     18.784
REMARK  Name = 
REMARK  17 active torsions:
REMARK  status: ('A' for Active; 'I' for Inactive)
REMARK    1  A    between atoms: O_1  and  C_14
REMARK    2  A    between atoms: O_2  and  C_32
REMARK    3  A    between atoms: O_2  and  C_36
REMARK    4  A    between atoms: O_6  and  C_39
REMARK    5  A    between atoms: O_7  and  C_41
REMARK    6  A    between atoms: O_7  and  C_43
REMARK    7  A    between atoms: O_9  and  C_47
REMARK    8  A    between atoms: O_9  and  C_49
REMARK    9  A    between atoms: O_10  and  C_45
REMARK   10  A    between atoms: O_12  and  C_51
REMARK   11  A    between atoms: O_13  and  C_53
REMARK   12  A    between atoms: C_17  and  C_29
REMARK   13  A    between atoms: C_18  and  C_30
REMARK   14  A    between atoms: C_22  and  C_33
REMARK   15  A    between atoms: C_40  and  C_42
REMARK   16  A    between atoms: C_46  and  C_48
REMARK   17  A    between atoms: C_52  and  C_54
REMARK                            x       y       z     vdW  Elec       q    Type
REMARK                         _______ _______ _______ _____ _____    ______ ____
ROOT
ATOM      1  O   UNL     1       0.219 -20.553  18.634  0.00  0.00    +0.000 OA
ATOM      2  C   UNL     1       0.498 -19.477  17.743  0.00  0.00    +0.000 C 
ATOM      3  C   UNL     1      -0.739 -19.041  16.952  0.00  0.00    +0.000 C 
ATOM      4  C   UNL     1      -2.002 -19.699  17.487  0.00  0.00    +0.000 C 
ATOM      5  C   UNL     1      -0.737 -20.199  19.641  0.00  0.00    +0.000 C 
ATOM      6  C   UNL     1      -2.081 -19.738  19.026  0.00  0.00    +0.000 C 
ATOM      7  C   UNL     1      -0.928 -21.433  20.521  0.00  0.00    +0.000 C 
ENDROOT
BRANCH   4   8
ATOM      8  O   UNL     1      -3.170 -19.164  16.875  0.00  0.00    +0.000 OA
ATOM      9  H   UNL     1      -3.320 -19.689  16.061  0.00  0.00    +0.000 HD
ENDBRANCH   4   8
BRANCH   2  10
ATOM     10  O   UNL     1       1.589 -19.771  16.871  0.00  0.00    +0.000 OA
BRANCH  10  29
ATOM     11  C   UNL     1       4.124 -13.981  12.332  0.00  0.00    +0.000 C 
ATOM     12  C   UNL     1       3.673 -15.168  13.226  0.00  0.00    +0.000 C 
ATOM     13  C   UNL     1       4.423 -15.242  14.581  0.00  0.00    +0.000 C 
ATOM     14  C   UNL     1       4.169 -12.610  13.064  0.00  0.00    +0.000 C 
ATOM     15  C   UNL     1       3.955 -16.449  15.492  0.00  0.00    +0.000 C 
ATOM     16  C   UNL     1       3.959 -17.778  14.664  0.00  0.00    +0.000 C 
ATOM     17  C   UNL     1       4.361 -13.872  15.288  0.00  0.00    +0.000 C 
ATOM     18  C   UNL     1       4.915 -12.747  14.414  0.00  0.00    +0.000 C 
ATOM     19  C   UNL     1       4.966 -11.743  12.038  0.00  0.00    +0.000 C 
ATOM     20  C   UNL     1       3.780 -16.506  12.478  0.00  0.00    +0.000 C 
ATOM     21  C   UNL     1       5.536 -14.124  11.735  0.00  0.00    +0.000 C 
ATOM     22  C   UNL     1       3.227 -17.647  13.317  0.00  0.00    +0.000 C 
ATOM     23  C   UNL     1       6.053 -12.699  11.506  0.00  0.00    +0.000 C 
ATOM     24  C   UNL     1       2.543 -16.213  16.096  0.00  0.00    +0.000 C 
ATOM     25  C   UNL     1       3.374 -18.970  15.448  0.00  0.00    +0.000 C 
ATOM     26  C   UNL     1       2.762 -12.029  13.308  0.00  0.00    +0.000 C 
ATOM     27  C   UNL     1       4.976 -16.590  16.657  0.00  0.00    +0.000 C 
ATOM     28  C   UNL     1       1.994 -17.416  16.863  0.00  0.00    +0.000 C 
ATOM     29  C   UNL     1       1.981 -18.689  16.019  0.00  0.00    +0.000 C 
BRANCH  19  32
ATOM     30  O   UNL     1       6.981  -8.791  13.149  0.00  0.00    +0.000 OA
ATOM     31  O   UNL     1       5.423  -7.224  13.771  0.00  0.00    +0.000 OA
ATOM     32  C   UNL     1       5.459 -10.402  12.511  0.00  0.00    +0.000 C 
ATOM     33  C   UNL     1       6.912 -10.115  12.622  0.00  0.00    +0.000 C 
ATOM     34  C   UNL     1       4.761  -9.353  12.947  0.00  0.00    +0.000 C 
ATOM     35  C   UNL     1       5.721  -8.323  13.341  0.00  0.00    +0.000 C 
ENDBRANCH  19  32
BRANCH  11  36
ATOM     36  O   UNL     1       3.233 -13.890  11.207  0.00  0.00    +0.000 OA
ATOM     37  H   UNL     1       3.392 -14.652  10.623  0.00  0.00    +0.000 HD
ENDBRANCH  11  36
ENDBRANCH  10  29
ENDBRANCH   2  10
BRANCH   6  38
ATOM     38  O   UNL     1      -2.662 -18.649  19.749  0.00  0.00    +0.000 OA
BRANCH  38  40
ATOM     39  O   UNL     1      -2.607 -16.548  18.646  0.00  0.00    +0.000 OA
ATOM     40  C   UNL     1      -2.173 -17.316  19.760  0.00  0.00    +0.000 C 
ATOM     41  C   UNL     1      -0.674 -17.162  19.997  0.00  0.00    +0.000 C 
ATOM     42  C   UNL     1      -0.094 -15.939  19.292  0.00  0.00    +0.000 C 
ATOM     43  C   UNL     1      -2.496 -15.137  18.913  0.00  0.00    +0.000 C 
ATOM     44  C   UNL     1      -1.037 -14.720  19.225  0.00  0.00    +0.000 C 
ATOM     45  C   UNL     1      -3.023 -14.414  17.676  0.00  0.00    +0.000 C 
BRANCH  42  46
ATOM     46  O   UNL     1       1.183 -15.600  19.830  0.00  0.00    +0.000 OA
ATOM     47  H   UNL     1       1.841 -15.662  19.116  0.00  0.00    +0.000 HD
ENDBRANCH  42  46
BRANCH  44  48
ATOM     48  O   UNL     1      -0.974 -13.765  20.291  0.00  0.00    +0.000 OA
BRANCH  48  50
ATOM     49  O   UNL     1       0.589 -12.654  18.936  0.00  0.00    +0.000 OA
ATOM     50  C   UNL     1      -0.223 -12.572  20.102  0.00  0.00    +0.000 C 
ATOM     51  C   UNL     1       0.679 -12.420  21.331  0.00  0.00    +0.000 C 
ATOM     52  C   UNL     1       1.970 -11.669  21.013  0.00  0.00    +0.000 C 
ATOM     53  C   UNL     1       1.238 -11.409  18.617  0.00  0.00    +0.000 C 
ATOM     54  C   UNL     1       1.763 -10.677  19.866  0.00  0.00    +0.000 C 
ATOM     55  C   UNL     1       2.373 -11.756  17.660  0.00  0.00    +0.000 C 
BRANCH  52  56
ATOM     56  O   UNL     1       2.387 -10.954  22.183  0.00  0.00    +0.000 OA
ATOM     57  H   UNL     1       1.726 -11.120  22.879  0.00  0.00    +0.000 HD
ENDBRANCH  52  56
BRANCH  54  58
ATOM     58  O   UNL     1       0.791  -9.703  20.285  0.00  0.00    +0.000 OA
ATOM     59  H   UNL     1       1.081  -8.853  19.893  0.00  0.00    +0.000 HD
ENDBRANCH  54  58
ENDBRANCH  48  50
ENDBRANCH  44  48
ENDBRANCH  38  40
ENDBRANCH   6  38
TORSDOF 12
ENDMDL
MODEL 5
REMARK VINA RESULT:      -6.8      2.913      4.097
REMARK  Name = 
REMARK  17 active torsions:
REMARK  status: ('A' for Active; 'I' for Inactive)
REMARK    1  A    between atoms: O_1  and  C_14
REMARK    2  A    between atoms: O_2  and  C_32
REMARK    3  A    between atoms: O_2  and  C_36
REMARK    4  A    between atoms: O_6  and  C_39
REMARK    5  A    between atoms: O_7  and  C_41
REMARK    6  A    between atoms: O_7  and  C_43
REMARK    7  A    between atoms: O_9  and  C_47
REMARK    8  A    between atoms: O_9  and  C_49
REMARK    9  A    between atoms: O_10  and  C_45
REMARK   10  A    between atoms: O_12  and  C_51
REMARK   11  A    between atoms: O_13  and  C_53
REMARK   12  A    between atoms: C_17  and  C_29
REMARK   13  A    between atoms: C_18  and  C_30
REMARK   14  A    between atoms: C_22  and  C_33
REMARK   15  A    between atoms: C_40  and  C_42
REMARK   16  A    between atoms: C_46  and  C_48
REMARK   17  A    between atoms: C_52  and  C_54
REMARK                            x       y       z     vdW  Elec       q    Type
REMARK                         _______ _______ _______ _____ _____    ______ ____
ROOT
ATOM      1  O   UNL     1      -9.930 -18.159   4.369  0.00  0.00    +0.000 OA
ATOM      2  C   UNL     1      -8.916 -17.405   5.028  0.00  0.00    +0.000 C 
ATOM      3  C   UNL     1      -7.579 -17.454   4.284  0.00  0.00    +0.000 C 
ATOM      4  C   UNL     1      -7.729 -18.091   2.911  0.00  0.00    +0.000 C 
ATOM      5  C   UNL     1     -10.233 -17.650   3.065  0.00  0.00    +0.000 C 
ATOM      6  C   UNL     1      -8.988 -17.636   2.146  0.00  0.00    +0.000 C 
ATOM      7  C   UNL     1     -11.333 -18.542   2.490  0.00  0.00    +0.000 C 
ENDROOT
BRANCH   4   8
ATOM      8  O   UNL     1      -6.533 -17.979   2.147  0.00  0.00    +0.000 OA
ATOM      9  H   UNL     1      -6.326 -17.022   2.098  0.00  0.00    +0.000 HD
ENDBRANCH   4   8
BRANCH   2  10
ATOM     10  O   UNL     1      -8.760 -17.791   6.393  0.00  0.00    +0.000 OA
BRANCH  10  29
ATOM     11  C   UNL     1     -14.774 -15.978  10.986  0.00  0.00    +0.000 C 
ATOM     12  C   UNL     1     -13.566 -16.278  10.057  0.00  0.00    +0.000 C 
ATOM     13  C   UNL     1     -12.200 -15.875  10.668  0.00  0.00    +0.000 C 
ATOM     14  C   UNL     1     -14.600 -16.489  12.444  0.00  0.00    +0.000 C 
ATOM     15  C   UNL     1     -10.971 -16.188   9.720  0.00  0.00    +0.000 C 
ATOM     16  C   UNL     1     -11.242 -15.622   8.287  0.00  0.00    +0.000 C 
ATOM     17  C   UNL     1     -12.061 -16.479  12.081  0.00  0.00    +0.000 C 
ATOM     18  C   UNL     1     -13.215 -16.072  12.997  0.00  0.00    +0.000 C 
ATOM     19  C   UNL     1     -15.769 -15.747  13.168  0.00  0.00    +0.000 C 
ATOM     20  C   UNL     1     -13.748 -15.632   8.675  0.00  0.00    +0.000 C 
ATOM     21  C   UNL     1     -15.101 -14.484  11.157  0.00  0.00    +0.000 C 
ATOM     22  C   UNL     1     -12.621 -16.025   7.734  0.00  0.00    +0.000 C 
ATOM     23  C   UNL     1     -15.775 -14.345  12.527  0.00  0.00    +0.000 C 
ATOM     24  C   UNL     1     -10.672 -17.710   9.634  0.00  0.00    +0.000 C 
ATOM     25  C   UNL     1     -10.151 -16.018   7.272  0.00  0.00    +0.000 C 
ATOM     26  C   UNL     1     -14.760 -18.018  12.554  0.00  0.00    +0.000 C 
ATOM     27  C   UNL     1      -9.722 -15.470  10.307  0.00  0.00    +0.000 C 
ATOM     28  C   UNL     1      -9.587 -18.067   8.617  0.00  0.00    +0.000 C 
ATOM     29  C   UNL     1      -9.897 -17.528   7.222  0.00  0.00    +0.000 C 
BRANCH  19  32
ATOM     30  O   UNL     1     -16.625 -15.635  16.810  0.00  0.00    +0.000 OA
ATOM     31  O   UNL     1     -14.608 -15.831  17.888  0.00  0.00    +0.000 OA
ATOM     32  C   UNL     1     -15.769 -15.771  14.673  0.00  0.00    +0.000 C 
ATOM     33  C   UNL     1     -17.030 -15.621  15.442  0.00  0.00    +0.000 C 
ATOM     34  C   UNL     1     -14.738 -15.847  15.515  0.00  0.00    +0.000 C 
ATOM     35  C   UNL     1     -15.276 -15.775  16.872  0.00  0.00    +0.000 C 
ENDBRANCH  19  32
BRANCH  11  36
ATOM     36  O   UNL     1     -15.952 -16.572  10.412  0.00  0.00    +0.000 OA
ATOM     37  H   UNL     1     -15.971 -16.365   9.462  0.00  0.00    +0.000 HD
ENDBRANCH  11  36
ENDBRANCH  10  29
ENDBRANCH   2  10
BRANCH   6  38
ATOM     38  O   UNL     1      -8.946 -16.477   1.308  0.00  0.00    +0.000 OA
BRANCH  38  40
ATOM     39  O   UNL     1      -9.911 -14.450   0.539  0.00  0.00    +0.000 OA
ATOM     40  C   UNL     1      -9.443 -15.193   1.656  0.00  0.00    +0.000 C 
ATOM     41  C   UNL     1      -8.536 -14.351   2.550  0.00  0.00    +0.000 C 
ATOM     42  C   UNL     1      -8.688 -12.855   2.289  0.00  0.00    +0.000 C 
ATOM     43  C   UNL     1     -10.804 -13.397   0.953  0.00  0.00    +0.000 C 
ATOM     44  C   UNL     1     -10.114 -12.401   1.919  0.00  0.00    +0.000 C 
ATOM     45  C   UNL     1     -11.274 -12.696  -0.319  0.00  0.00    +0.000 C 
BRANCH  42  46
ATOM     46  O   UNL     1      -8.147 -12.094   3.368  0.00  0.00    +0.000 OA
ATOM     47  H   UNL     1      -7.238 -11.836   3.134  0.00  0.00    +0.000 HD
ENDBRANCH  42  46
BRANCH  44  48
ATOM     48  O   UNL     1     -10.988 -12.002   2.982  0.00  0.00    +0.000 OA
BRANCH  48  50
ATOM     49  O   UNL     1     -12.550 -10.376   3.639  0.00  0.00    +0.000 OA
ATOM     50  C   UNL     1     -11.218 -10.615   3.198  0.00  0.00    +0.000 C 
ATOM     51  C   UNL     1     -11.004  -9.919   1.850  0.00  0.00    +0.000 C 
ATOM     52  C   UNL     1     -11.840  -8.648   1.716  0.00  0.00    +0.000 C 
ATOM     53  C   UNL     1     -12.775  -9.008   4.027  0.00  0.00    +0.000 C 
ATOM     54  C   UNL     1     -12.089  -8.004   3.082  0.00  0.00    +0.000 C 
ATOM     55  C   UNL     1     -14.287  -8.815   4.038  0.00  0.00    +0.000 C 
BRANCH  52  56
ATOM     56  O   UNL     1     -11.136  -7.720   0.881  0.00  0.00    +0.000 OA
ATOM     57  H   UNL     1     -11.523  -7.778  -0.011  0.00  0.00    +0.000 HD
ENDBRANCH  52  56
BRANCH  54  58
ATOM     58  O   UNL     1     -10.818  -7.625   3.638  0.00  0.00    +0.000 OA
ATOM     59  H   UNL     1     -10.142  -8.032   3.058  0.00  0.00    +0.000 HD
ENDBRANCH  54  58
ENDBRANCH  48  50
ENDBRANCH  44  48
ENDBRANCH  38  40
ENDBRANCH   6  38
TORSDOF 12
ENDMDL
MODEL 6
REMARK VINA RESULT:      -6.6      3.032      5.617
REMARK  Name = 
REMARK  17 active torsions:
REMARK  status: ('A' for Active; 'I' for Inactive)
REMARK    1  A    between atoms: O_1  and  C_14
REMARK    2  A    between atoms: O_2  and  C_32
REMARK    3  A    between atoms: O_2  and  C_36
REMARK    4  A    between atoms: O_6  and  C_39
REMARK    5  A    between atoms: O_7  and  C_41
REMARK    6  A    between atoms: O_7  and  C_43
REMARK    7  A    between atoms: O_9  and  C_47
REMARK    8  A    between atoms: O_9  and  C_49
REMARK    9  A    between atoms: O_10  and  C_45
REMARK   10  A    between atoms: O_12  and  C_51
REMARK   11  A    between atoms: O_13  and  C_53
REMARK   12  A    between atoms: C_17  and  C_29
REMARK   13  A    between atoms: C_18  and  C_30
REMARK   14  A    between atoms: C_22  and  C_33
REMARK   15  A    between atoms: C_40  and  C_42
REMARK   16  A    between atoms: C_46  and  C_48
REMARK   17  A    between atoms: C_52  and  C_54
REMARK                            x       y       z     vdW  Elec       q    Type
REMARK                         _______ _______ _______ _____ _____    ______ ____
ROOT
ATOM      1  O   UNL     1      -8.138 -15.332   3.212  0.00  0.00    +0.000 OA
ATOM      2  C   UNL     1      -9.250 -15.297   4.102  0.00  0.00    +0.000 C 
ATOM      3  C   UNL     1      -9.132 -14.176   5.138  0.00  0.00    +0.000 C 
ATOM      4  C   UNL     1      -7.984 -13.234   4.809  0.00  0.00    +0.000 C 
ATOM      5  C   UNL     1      -8.025 -14.138   2.428  0.00  0.00    +0.000 C 
ATOM      6  C   UNL     1      -7.879 -12.877   3.313  0.00  0.00    +0.000 C 
ATOM      7  C   UNL     1      -6.808 -14.321   1.522  0.00  0.00    +0.000 C 
ENDROOT
BRANCH   4   8
ATOM      8  O   UNL     1      -7.980 -12.095   5.663  0.00  0.00    +0.000 OA
ATOM      9  H   UNL     1      -8.892 -12.009   6.012  0.00  0.00    +0.000 HD
ENDBRANCH   4   8
BRANCH   2  10
ATOM     10  O   UNL     1      -9.474 -16.559   4.733  0.00  0.00    +0.000 OA
BRANCH  10  29
ATOM     11  C   UNL     1     -12.757 -16.432  11.786  0.00  0.00    +0.000 C 
ATOM     12  C   UNL     1     -12.045 -16.471  10.406  0.00  0.00    +0.000 C 
ATOM     13  C   UNL     1     -11.676 -17.903   9.941  0.00  0.00    +0.000 C 
ATOM     14  C   UNL     1     -13.943 -17.428  11.922  0.00  0.00    +0.000 C 
ATOM     15  C   UNL     1     -10.956 -17.939   8.531  0.00  0.00    +0.000 C 
ATOM     16  C   UNL     1      -9.774 -16.913   8.506  0.00  0.00    +0.000 C 
ATOM     17  C   UNL     1     -12.915 -18.818  10.027  0.00  0.00    +0.000 C 
ATOM     18  C   UNL     1     -13.522 -18.835  11.430  0.00  0.00    +0.000 C 
ATOM     19  C   UNL     1     -14.193 -17.396  13.464  0.00  0.00    +0.000 C 
ATOM     20  C   UNL     1     -10.807 -15.563  10.388  0.00  0.00    +0.000 C 
ATOM     21  C   UNL     1     -11.854 -16.770  12.986  0.00  0.00    +0.000 C 
ATOM     22  C   UNL     1     -10.184 -15.515   9.002  0.00  0.00    +0.000 C 
ATOM     23  C   UNL     1     -12.776 -17.342  14.071  0.00  0.00    +0.000 C 
ATOM     24  C   UNL     1     -11.938 -17.634   7.366  0.00  0.00    +0.000 C 
ATOM     25  C   UNL     1      -9.122 -16.789   7.114  0.00  0.00    +0.000 C 
ATOM     26  C   UNL     1     -15.192 -16.963  11.147  0.00  0.00    +0.000 C 
ATOM     27  C   UNL     1     -10.376 -19.367   8.329  0.00  0.00    +0.000 C 
ATOM     28  C   UNL     1     -11.257 -17.515   6.002  0.00  0.00    +0.000 C 
ATOM     29  C   UNL     1     -10.130 -16.484   6.003  0.00  0.00    +0.000 C 
BRANCH  19  32
ATOM     30  O   UNL     1     -17.067 -19.403  14.774  0.00  0.00    +0.000 OA
ATOM     31  O   UNL     1     -16.117 -21.348  15.541  0.00  0.00    +0.000 OA
ATOM     32  C   UNL     1     -15.101 -18.452  14.034  0.00  0.00    +0.000 C 
ATOM     33  C   UNL     1     -16.564 -18.225  14.146  0.00  0.00    +0.000 C 
ATOM     34  C   UNL     1     -14.790 -19.636  14.562  0.00  0.00    +0.000 C 
ATOM     35  C   UNL     1     -16.034 -20.250  15.021  0.00  0.00    +0.000 C 
ENDBRANCH  19  32
BRANCH  11  36
ATOM     36  O   UNL     1     -13.230 -15.095  12.020  0.00  0.00    +0.000 OA
ATOM     37  H   UNL     1     -13.556 -14.730  11.179  0.00  0.00    +0.000 HD
ENDBRANCH  11  36
ENDBRANCH  10  29
ENDBRANCH   2  10
BRANCH   6  38
ATOM     38  O   UNL     1      -8.596 -11.758   2.784  0.00  0.00    +0.000 OA
BRANCH  38  40
ATOM     39  O   UNL     1      -9.928 -11.954   0.829  0.00  0.00    +0.000 OA
ATOM     40  C   UNL     1      -9.909 -11.804   2.243  0.00  0.00    +0.000 C 
ATOM     41  C   UNL     1     -10.854 -10.698   2.702  0.00  0.00    +0.000 C 
ATOM     42  C   UNL     1     -11.879 -10.327   1.634  0.00  0.00    +0.000 C 
ATOM     43  C   UNL     1     -11.202 -12.453   0.378  0.00  0.00    +0.000 C 
ATOM     44  C   UNL     1     -12.364 -11.502   0.761  0.00  0.00    +0.000 C 
ATOM     45  C   UNL     1     -11.098 -12.614  -1.137  0.00  0.00    +0.000 C 
BRANCH  42  46
ATOM     46  O   UNL     1     -12.966  -9.599   2.204  0.00  0.00    +0.000 OA
ATOM     47  H   UNL     1     -12.691  -8.671   2.307  0.00  0.00    +0.000 HD
ENDBRANCH  42  46
BRANCH  44  48
ATOM     48  O   UNL     1     -13.521 -12.227   1.196  0.00  0.00    +0.000 OA
BRANCH  48  50
ATOM     49  O   UNL     1     -14.405 -14.398   1.339  0.00  0.00    +0.000 OA
ATOM     50  C   UNL     1     -13.351 -13.530   1.741  0.00  0.00    +0.000 C 
ATOM     51  C   UNL     1     -13.383 -13.377   3.265  0.00  0.00    +0.000 C 
ATOM     52  C   UNL     1     -13.904 -14.631   3.963  0.00  0.00    +0.000 C 
ATOM     53  C   UNL     1     -14.184 -15.765   1.731  0.00  0.00    +0.000 C 
ATOM     54  C   UNL     1     -13.590 -15.887   3.146  0.00  0.00    +0.000 C 
ATOM     55  C   UNL     1     -15.540 -16.456   1.638  0.00  0.00    +0.000 C 
BRANCH  52  56
ATOM     56  O   UNL     1     -13.278 -14.738   5.248  0.00  0.00    +0.000 OA
ATOM     57  H   UNL     1     -13.949 -15.068   5.873  0.00  0.00    +0.000 HD
ENDBRANCH  52  56
BRANCH  54  58
ATOM     58  O   UNL     1     -12.160 -16.013   3.048  0.00  0.00    +0.000 OA
ATOM     59  H   UNL     1     -11.814 -15.818   3.944  0.00  0.00    +0.000 HD
ENDBRANCH  54  58
ENDBRANCH  48  50
ENDBRANCH  44  48
ENDBRANCH  38  40
ENDBRANCH   6  38
TORSDOF 12
ENDMDL
MODEL 7
REMARK VINA RESULT:      -6.6     19.957     24.293
REMARK  Name = 
REMARK  17 active torsions:
REMARK  status: ('A' for Active; 'I' for Inactive)
REMARK    1  A    between atoms: O_1  and  C_14
REMARK    2  A    between atoms: O_2  and  C_32
REMARK    3  A    between atoms: O_2  and  C_36
REMARK    4  A    between atoms: O_6  and  C_39
REMARK    5  A    between atoms: O_7  and  C_41
REMARK    6  A    between atoms: O_7  and  C_43
REMARK    7  A    between atoms: O_9  and  C_47
REMARK    8  A    between atoms: O_9  and  C_49
REMARK    9  A    between atoms: O_10  and  C_45
REMARK   10  A    between atoms: O_12  and  C_51
REMARK   11  A    between atoms: O_13  and  C_53
REMARK   12  A    between atoms: C_17  and  C_29
REMARK   13  A    between atoms: C_18  and  C_30
REMARK   14  A    between atoms: C_22  and  C_33
REMARK   15  A    between atoms: C_40  and  C_42
REMARK   16  A    between atoms: C_46  and  C_48
REMARK   17  A    between atoms: C_52  and  C_54
REMARK                            x       y       z     vdW  Elec       q    Type
REMARK                         _______ _______ _______ _____ _____    ______ ____
ROOT
ATOM      1  O   UNL     1      -7.233  -2.604  27.969  0.00  0.00    +0.000 OA
ATOM      2  C   UNL     1      -7.401  -3.031  26.620  0.00  0.00    +0.000 C 
ATOM      3  C   UNL     1      -8.759  -2.620  26.044  0.00  0.00    +0.000 C 
ATOM      4  C   UNL     1      -9.487  -1.656  26.969  0.00  0.00    +0.000 C 
ATOM      5  C   UNL     1      -7.255  -1.177  28.100  0.00  0.00    +0.000 C 
ATOM      6  C   UNL     1      -8.578  -0.569  27.577  0.00  0.00    +0.000 C 
ATOM      7  C   UNL     1      -7.055  -0.869  29.584  0.00  0.00    +0.000 C 
ENDROOT
BRANCH   4   8
ATOM      8  O   UNL     1     -10.663  -1.134  26.361  0.00  0.00    +0.000 OA
ATOM      9  H   UNL     1     -10.554  -0.160  26.341  0.00  0.00    +0.000 HD
ENDBRANCH   4   8
BRANCH   2  10
ATOM     10  O   UNL     1      -7.181  -4.433  26.468  0.00  0.00    +0.000 OA
BRANCH  10  29
ATOM     11  C   UNL     1     -13.470  -8.942  27.285  0.00  0.00    +0.000 C 
ATOM     12  C   UNL     1     -12.210  -8.039  27.186  0.00  0.00    +0.000 C 
ATOM     13  C   UNL     1     -10.897  -8.764  27.573  0.00  0.00    +0.000 C 
ATOM     14  C   UNL     1     -13.322 -10.323  26.585  0.00  0.00    +0.000 C 
ATOM     15  C   UNL     1      -9.614  -7.841  27.465  0.00  0.00    +0.000 C 
ATOM     16  C   UNL     1      -9.864  -6.488  28.211  0.00  0.00    +0.000 C 
ATOM     17  C   UNL     1     -10.776 -10.085  26.786  0.00  0.00    +0.000 C 
ATOM     18  C   UNL     1     -11.988 -10.993  26.996  0.00  0.00    +0.000 C 
ATOM     19  C   UNL     1     -14.562 -11.086  27.152  0.00  0.00    +0.000 C 
ATOM     20  C   UNL     1     -12.377  -6.752  28.008  0.00  0.00    +0.000 C 
ATOM     21  C   UNL     1     -13.894  -9.302  28.720  0.00  0.00    +0.000 C 
ATOM     22  C   UNL     1     -11.192  -5.821  27.813  0.00  0.00    +0.000 C 
ATOM     23  C   UNL     1     -14.629 -10.644  28.629  0.00  0.00    +0.000 C 
ATOM     24  C   UNL     1      -9.220  -7.560  25.988  0.00  0.00    +0.000 C 
ATOM     25  C   UNL     1      -8.711  -5.481  28.021  0.00  0.00    +0.000 C 
ATOM     26  C   UNL     1     -13.393 -10.213  25.049  0.00  0.00    +0.000 C 
ATOM     27  C   UNL     1      -8.436  -8.579  28.161  0.00  0.00    +0.000 C 
ATOM     28  C   UNL     1      -8.077  -6.556  25.838  0.00  0.00    +0.000 C 
ATOM     29  C   UNL     1      -8.364  -5.236  26.550  0.00  0.00    +0.000 C 
BRANCH  19  32
ATOM     30  O   UNL     1     -15.465 -14.583  26.171  0.00  0.00    +0.000 OA
ATOM     31  O   UNL     1     -13.851 -15.895  27.144  0.00  0.00    +0.000 OA
ATOM     32  C   UNL     1     -14.620 -12.571  26.917  0.00  0.00    +0.000 C 
ATOM     33  C   UNL     1     -15.716 -13.179  26.123  0.00  0.00    +0.000 C 
ATOM     34  C   UNL     1     -13.825 -13.531  27.392  0.00  0.00    +0.000 C 
ATOM     35  C   UNL     1     -14.348 -14.808  26.911  0.00  0.00    +0.000 C 
ENDBRANCH  19  32
BRANCH  11  36
ATOM     36  O   UNL     1     -14.586  -8.237  26.714  0.00  0.00    +0.000 OA
ATOM     37  H   UNL     1     -14.868  -8.703  25.909  0.00  0.00    +0.000 HD
ENDBRANCH  11  36
ENDBRANCH  10  29
ENDBRANCH   2  10
BRANCH   6  38
ATOM     38  O   UNL     1      -8.371   0.668  26.888  0.00  0.00    +0.000 OA
BRANCH  38  40
ATOM     39  O   UNL     1      -9.039   2.520  25.563  0.00  0.00    +0.000 OA
ATOM     40  C   UNL     1      -9.370   1.644  26.632  0.00  0.00    +0.000 C 
ATOM     41  C   UNL     1      -9.874   2.412  27.850  0.00  0.00    +0.000 C 
ATOM     42  C   UNL     1     -10.303   3.836  27.505  0.00  0.00    +0.000 C 
ATOM     43  C   UNL     1     -10.216   3.163  25.036  0.00  0.00    +0.000 C 
ATOM     44  C   UNL     1     -10.948   4.001  26.115  0.00  0.00    +0.000 C 
ATOM     45  C   UNL     1      -9.753   4.042  23.876  0.00  0.00    +0.000 C 
BRANCH  42  46
ATOM     46  O   UNL     1     -11.114   4.387  28.541  0.00  0.00    +0.000 OA
ATOM     47  H   UNL     1     -10.543   4.913  29.129  0.00  0.00    +0.000 HD
ENDBRANCH  42  46
BRANCH  44  48
ATOM     48  O   UNL     1     -12.371   3.867  26.016  0.00  0.00    +0.000 OA
BRANCH  48  50
ATOM     49  O   UNL     1     -14.000   2.688  24.802  0.00  0.00    +0.000 OA
ATOM     50  C   UNL     1     -12.921   2.588  25.725  0.00  0.00    +0.000 C 
ATOM     51  C   UNL     1     -13.447   2.024  27.049  0.00  0.00    +0.000 C 
ATOM     52  C   UNL     1     -14.622   1.070  26.846  0.00  0.00    +0.000 C 
ATOM     53  C   UNL     1     -14.476   1.406  24.354  0.00  0.00    +0.000 C 
ATOM     54  C   UNL     1     -14.534   0.367  25.490  0.00  0.00    +0.000 C 
ATOM     55  C   UNL     1     -15.856   1.652  23.756  0.00  0.00    +0.000 C 
BRANCH  52  56
ATOM     56  O   UNL     1     -14.601   0.085  27.887  0.00  0.00    +0.000 OA
ATOM     57  H   UNL     1     -13.912  -0.565  27.661  0.00  0.00    +0.000 HD
ENDBRANCH  52  56
BRANCH  54  58
ATOM     58  O   UNL     1     -13.332  -0.423  25.469  0.00  0.00    +0.000 OA
ATOM     59  H   UNL     1     -13.401  -0.992  24.675  0.00  0.00    +0.000 HD
ENDBRANCH  54  58
ENDBRANCH  48  50
ENDBRANCH  44  48
ENDBRANCH  38  40
ENDBRANCH   6  38
TORSDOF 12
ENDMDL
MODEL 8
REMARK VINA RESULT:      -6.6     17.443     21.296
REMARK  Name = 
REMARK  17 active torsions:
REMARK  status: ('A' for Active; 'I' for Inactive)
REMARK    1  A    between atoms: O_1  and  C_14
REMARK    2  A    between atoms: O_2  and  C_32
REMARK    3  A    between atoms: O_2  and  C_36
REMARK    4  A    between atoms: O_6  and  C_39
REMARK    5  A    between atoms: O_7  and  C_41
REMARK    6  A    between atoms: O_7  and  C_43
REMARK    7  A    between atoms: O_9  and  C_47
REMARK    8  A    between atoms: O_9  and  C_49
REMARK    9  A    between atoms: O_10  and  C_45
REMARK   10  A    between atoms: O_12  and  C_51
REMARK   11  A    between atoms: O_13  and  C_53
REMARK   12  A    between atoms: C_17  and  C_29
REMARK   13  A    between atoms: C_18  and  C_30
REMARK   14  A    between atoms: C_22  and  C_33
REMARK   15  A    between atoms: C_40  and  C_42
REMARK   16  A    between atoms: C_46  and  C_48
REMARK   17  A    between atoms: C_52  and  C_54
REMARK                            x       y       z     vdW  Elec       q    Type
REMARK                         _______ _______ _______ _____ _____    ______ ____
ROOT
ATOM      1  O   UNL     1       8.720  -5.323  10.892  0.00  0.00    +0.000 OA
ATOM      2  C   UNL     1       8.671  -6.274   9.832  0.00  0.00    +0.000 C 
ATOM      3  C   UNL     1       7.298  -6.325   9.158  0.00  0.00    +0.000 C 
ATOM      4  C   UNL     1       6.406  -5.184   9.624  0.00  0.00    +0.000 C 
ATOM      5  C   UNL     1       8.500  -3.982  10.436  0.00  0.00    +0.000 C 
ATOM      6  C   UNL     1       7.133  -3.828   9.729  0.00  0.00    +0.000 C 
ATOM      7  C   UNL     1       8.591  -3.079  11.666  0.00  0.00    +0.000 C 
ENDROOT
BRANCH   4   8
ATOM      8  O   UNL     1       5.199  -5.121   8.873  0.00  0.00    +0.000 OA
ATOM      9  H   UNL     1       4.801  -6.016   8.916  0.00  0.00    +0.000 HD
ENDBRANCH   4   8
BRANCH   2  10
ATOM     10  O   UNL     1       9.085  -7.573  10.257  0.00  0.00    +0.000 OA
BRANCH  10  29
ATOM     11  C   UNL     1       3.487 -12.049  13.286  0.00  0.00    +0.000 C 
ATOM     12  C   UNL     1       4.606 -11.123  12.737  0.00  0.00    +0.000 C 
ATOM     13  C   UNL     1       6.001 -11.406  13.351  0.00  0.00    +0.000 C 
ATOM     14  C   UNL     1       3.847 -13.561  13.277  0.00  0.00    +0.000 C 
ATOM     15  C   UNL     1       7.140 -10.465  12.784  0.00  0.00    +0.000 C 
ATOM     16  C   UNL     1       6.682  -8.970  12.852  0.00  0.00    +0.000 C 
ATOM     17  C   UNL     1       6.327 -12.910  13.238  0.00  0.00    +0.000 C 
ATOM     18  C   UNL     1       5.252 -13.783  13.886  0.00  0.00    +0.000 C 
ATOM     19  C   UNL     1       2.715 -14.150  14.179  0.00  0.00    +0.000 C 
ATOM     20  C   UNL     1       4.238  -9.641  12.900  0.00  0.00    +0.000 C 
ATOM     21  C   UNL     1       3.085 -11.777  14.747  0.00  0.00    +0.000 C 
ATOM     22  C   UNL     1       5.282  -8.744  12.255  0.00  0.00    +0.000 C 
ATOM     23  C   UNL     1       2.551 -13.104  15.301  0.00  0.00    +0.000 C 
ATOM     24  C   UNL     1       7.525 -10.828  11.323  0.00  0.00    +0.000 C 
ATOM     25  C   UNL     1       7.684  -8.008  12.180  0.00  0.00    +0.000 C 
ATOM     26  C   UNL     1       3.797 -14.167  11.859  0.00  0.00    +0.000 C 
ATOM     27  C   UNL     1       8.395 -10.639  13.685  0.00  0.00    +0.000 C 
ATOM     28  C   UNL     1       8.516  -9.853  10.687  0.00  0.00    +0.000 C 
ATOM     29  C   UNL     1       8.027  -8.407  10.741  0.00  0.00    +0.000 C 
BRANCH  19  32
ATOM     30  O   UNL     1       3.539 -17.315  15.998  0.00  0.00    +0.000 OA
ATOM     31  O   UNL     1       2.840 -18.992  14.594  0.00  0.00    +0.000 OA
ATOM     32  C   UNL     1       2.876 -15.573  14.640  0.00  0.00    +0.000 C 
ATOM     33  C   UNL     1       3.516 -15.889  15.942  0.00  0.00    +0.000 C 
ATOM     34  C   UNL     1       2.577 -16.705  14.002  0.00  0.00    +0.000 C 
ATOM     35  C   UNL     1       2.983 -17.813  14.863  0.00  0.00    +0.000 C 
ENDBRANCH  19  32
BRANCH  11  36
ATOM     36  O   UNL     1       2.295 -11.838  12.509  0.00  0.00    +0.000 OA
ATOM     37  H   UNL     1       1.636 -12.505  12.766  0.00  0.00    +0.000 HD
ENDBRANCH  11  36
ENDBRANCH  10  29
ENDBRANCH   2  10
BRANCH   6  38
ATOM     38  O   UNL     1       7.203  -2.955   8.597  0.00  0.00    +0.000 OA
BRANCH  38  40
ATOM     39  O   UNL     1       9.256  -3.814   7.771  0.00  0.00    +0.000 OA
ATOM     40  C   UNL     1       8.367  -2.706   7.823  0.00  0.00    +0.000 C 
ATOM     41  C   UNL     1       9.106  -1.408   8.136  0.00  0.00    +0.000 C 
ATOM     42  C   UNL     1      10.609  -1.522   7.898  0.00  0.00    +0.000 C 
ATOM     43  C   UNL     1      10.151  -3.709   6.648  0.00  0.00    +0.000 C 
ATOM     44  C   UNL     1      11.014  -2.423   6.714  0.00  0.00    +0.000 C 
ATOM     45  C   UNL     1      11.026  -4.960   6.666  0.00  0.00    +0.000 C 
BRANCH  42  46
ATOM     46  O   UNL     1      11.210  -0.230   7.817  0.00  0.00    +0.000 OA
ATOM     47  H   UNL     1      10.612   0.354   7.318  0.00  0.00    +0.000 HD
ENDBRANCH  42  46
BRANCH  44  48
ATOM     48  O   UNL     1      11.156  -1.813   5.425  0.00  0.00    +0.000 OA
BRANCH  48  50
ATOM     49  O   UNL     1      10.514  -2.197   3.200  0.00  0.00    +0.000 OA
ATOM     50  C   UNL     1      10.068  -1.875   4.512  0.00  0.00    +0.000 C 
ATOM     51  C   UNL     1       9.427  -0.483   4.496  0.00  0.00    +0.000 C 
ATOM     52  C   UNL     1       8.763  -0.167   3.158  0.00  0.00    +0.000 C 
ATOM     53  C   UNL     1       9.431  -2.432   2.281  0.00  0.00    +0.000 C 
ATOM     54  C   UNL     1       8.267  -1.442   2.473  0.00  0.00    +0.000 C 
ATOM     55  C   UNL     1      10.029  -2.320   0.883  0.00  0.00    +0.000 C 
BRANCH  52  56
ATOM     56  O   UNL     1       7.650   0.705   3.390  0.00  0.00    +0.000 OA
ATOM     57  H   UNL     1       7.759   1.480   2.809  0.00  0.00    +0.000 HD
ENDBRANCH  52  56
BRANCH  54  58
ATOM     58  O   UNL     1       7.269  -2.045   3.315  0.00  0.00    +0.000 OA
ATOM     59  H   UNL     1       7.719  -2.786   3.772  0.00  0.00    +0.000 HD
ENDBRANCH  54  58
ENDBRANCH  48  50
ENDBRANCH  44  48
ENDBRANCH  38  40
ENDBRANCH   6  38
TORSDOF 12
ENDMDL
MODEL 9
REMARK VINA RESULT:      -6.5      4.857     10.080
REMARK  Name = 
REMARK  17 active torsions:
REMARK  status: ('A' for Active; 'I' for Inactive)
REMARK    1  A    between atoms: O_1  and  C_14
REMARK    2  A    between atoms: O_2  and  C_32
REMARK    3  A    between atoms: O_2  and  C_36
REMARK    4  A    between atoms: O_6  and  C_39
REMARK    5  A    between atoms: O_7  and  C_41
REMARK    6  A    between atoms: O_7  and  C_43
REMARK    7  A    between atoms: O_9  and  C_47
REMARK    8  A    between atoms: O_9  and  C_49
REMARK    9  A    between atoms: O_10  and  C_45
REMARK   10  A    between atoms: O_12  and  C_51
REMARK   11  A    between atoms: O_13  and  C_53
REMARK   12  A    between atoms: C_17  and  C_29
REMARK   13  A    between atoms: C_18  and  C_30
REMARK   14  A    between atoms: C_22  and  C_33
REMARK   15  A    between atoms: C_40  and  C_42
REMARK   16  A    between atoms: C_46  and  C_48
REMARK   17  A    between atoms: C_52  and  C_54
REMARK                            x       y       z     vdW  Elec       q    Type
REMARK                         _______ _______ _______ _____ _____    ______ ____
ROOT
ATOM      1  O   UNL     1     -20.077 -12.518   6.164  0.00  0.00    +0.000 OA
ATOM      2  C   UNL     1     -19.075 -13.473   5.825  0.00  0.00    +0.000 C 
ATOM      3  C   UNL     1     -19.061 -13.794   4.328  0.00  0.00    +0.000 C 
ATOM      4  C   UNL     1     -19.951 -12.841   3.546  0.00  0.00    +0.000 C 
ATOM      5  C   UNL     1     -19.863 -11.250   5.533  0.00  0.00    +0.000 C 
ATOM      6  C   UNL     1     -19.832 -11.369   3.991  0.00  0.00    +0.000 C 
ATOM      7  C   UNL     1     -20.996 -10.333   5.993  0.00  0.00    +0.000 C 
ENDROOT
BRANCH   4   8
ATOM      8  O   UNL     1     -19.804 -13.020   2.141  0.00  0.00    +0.000 OA
ATOM      9  H   UNL     1     -19.073 -13.661   2.020  0.00  0.00    +0.000 HD
ENDBRANCH   4   8
BRANCH   2  10
ATOM     10  O   UNL     1     -19.181 -14.663   6.606  0.00  0.00    +0.000 OA
BRANCH  10  29
ATOM     11  C   UNL     1     -12.375 -16.553   9.869  0.00  0.00    +0.000 C 
ATOM     12  C   UNL     1     -13.712 -16.116   9.211  0.00  0.00    +0.000 C 
ATOM     13  C   UNL     1     -13.597 -15.863   7.687  0.00  0.00    +0.000 C 
ATOM     14  C   UNL     1     -11.644 -17.707   9.126  0.00  0.00    +0.000 C 
ATOM     15  C   UNL     1     -14.964 -15.423   7.019  0.00  0.00    +0.000 C 
ATOM     16  C   UNL     1     -15.606 -14.252   7.834  0.00  0.00    +0.000 C 
ATOM     17  C   UNL     1     -12.937 -17.077   7.002  0.00  0.00    +0.000 C 
ATOM     18  C   UNL     1     -11.573 -17.408   7.609  0.00  0.00    +0.000 C 
ATOM     19  C   UNL     1     -10.236 -17.661   9.801  0.00  0.00    +0.000 C 
ATOM     20  C   UNL     1     -14.309 -14.889   9.917  0.00  0.00    +0.000 C 
ATOM     21  C   UNL     1     -11.310 -15.446   9.963  0.00  0.00    +0.000 C 
ATOM     22  C   UNL     1     -15.672 -14.539   9.344  0.00  0.00    +0.000 C 
ATOM     23  C   UNL     1      -9.950 -16.155   9.965  0.00  0.00    +0.000 C 
ATOM     24  C   UNL     1     -15.970 -16.603   6.916  0.00  0.00    +0.000 C 
ATOM     25  C   UNL     1     -17.012 -13.872   7.325  0.00  0.00    +0.000 C 
ATOM     26  C   UNL     1     -12.323 -19.073   9.352  0.00  0.00    +0.000 C 
ATOM     27  C   UNL     1     -14.651 -14.913   5.584  0.00  0.00    +0.000 C 
ATOM     28  C   UNL     1     -17.353 -16.190   6.412  0.00  0.00    +0.000 C 
ATOM     29  C   UNL     1     -17.966 -15.067   7.247  0.00  0.00    +0.000 C 
BRANCH  19  32
ATOM     30  O   UNL     1      -7.670 -20.213   8.846  0.00  0.00    +0.000 OA
ATOM     31  O   UNL     1      -6.531 -19.265   7.093  0.00  0.00    +0.000 OA
ATOM     32  C   UNL     1      -9.138 -18.462   9.153  0.00  0.00    +0.000 C 
ATOM     33  C   UNL     1      -8.766 -19.805   9.663  0.00  0.00    +0.000 C 
ATOM     34  C   UNL     1      -8.325 -18.122   8.152  0.00  0.00    +0.000 C 
ATOM     35  C   UNL     1      -7.401 -19.235   7.944  0.00  0.00    +0.000 C 
ENDBRANCH  19  32
BRANCH  11  36
ATOM     36  O   UNL     1     -12.640 -16.954  11.225  0.00  0.00    +0.000 OA
ATOM     37  H   UNL     1     -12.457 -17.905  11.308  0.00  0.00    +0.000 HD
ENDBRANCH  11  36
ENDBRANCH  10  29
ENDBRANCH   2  10
BRANCH   6  38
ATOM     38  O   UNL     1     -18.850 -10.512   3.400  0.00  0.00    +0.000 OA
BRANCH  38  40
ATOM     39  O   UNL     1     -16.958 -11.859   2.910  0.00  0.00    +0.000 OA
ATOM     40  C   UNL     1     -17.443 -10.670   3.519  0.00  0.00    +0.000 C 
ATOM     41  C   UNL     1     -16.871 -10.485   4.921  0.00  0.00    +0.000 C 
ATOM     42  C   UNL     1     -15.633 -11.343   5.164  0.00  0.00    +0.000 C 
ATOM     43  C   UNL     1     -15.546 -11.765   2.639  0.00  0.00    +0.000 C 
ATOM     44  C   UNL     1     -14.724 -11.535   3.933  0.00  0.00    +0.000 C 
ATOM     45  C   UNL     1     -15.143 -13.068   1.954  0.00  0.00    +0.000 C 
BRANCH  42  46
ATOM     46  O   UNL     1     -14.906 -10.876   6.299  0.00  0.00    +0.000 OA
ATOM     47  H   UNL     1     -15.500 -10.322   6.835  0.00  0.00    +0.000 HD
ENDBRANCH  42  46
BRANCH  44  48
ATOM     48  O   UNL     1     -13.665 -10.592   3.728  0.00  0.00    +0.000 OA
BRANCH  48  50
ATOM     49  O   UNL     1     -14.651  -8.572   3.046  0.00  0.00    +0.000 OA
ATOM     50  C   UNL     1     -13.890  -9.226   4.055  0.00  0.00    +0.000 C 
ATOM     51  C   UNL     1     -12.510  -8.564   4.150  0.00  0.00    +0.000 C 
ATOM     52  C   UNL     1     -12.556  -7.078   3.801  0.00  0.00    +0.000 C 
ATOM     53  C   UNL     1     -15.040  -7.236   3.415  0.00  0.00    +0.000 C 
ATOM     54  C   UNL     1     -13.919  -6.472   4.144  0.00  0.00    +0.000 C 
ATOM     55  C   UNL     1     -15.435  -6.537   2.119  0.00  0.00    +0.000 C 
BRANCH  52  56
ATOM     56  O   UNL     1     -11.539  -6.398   4.547  0.00  0.00    +0.000 OA
ATOM     57  H   UNL     1     -11.985  -5.848   5.216  0.00  0.00    +0.000 HD
ENDBRANCH  52  56
BRANCH  54  58
ATOM     58  O   UNL     1     -14.117  -6.586   5.564  0.00  0.00    +0.000 OA
ATOM     59  H   UNL     1     -13.229  -6.481   5.965  0.00  0.00    +0.000 HD
ENDBRANCH  54  58
ENDBRANCH  48  50
ENDBRANCH  44  48
ENDBRANCH  38  40
ENDBRANCH   6  38
TORSDOF 12
ENDMDL
