MODEL 1
REMARK VINA RESULT:      -7.1      0.000      0.000
REMARK  Name = CHEMBL35349.pdbqt.pdb
REMARK  2 active torsions:
REMARK  status: ('A' for Active; 'I' for Inactive)
REMARK    1  A    between atoms: C_2  and  C_11
REMARK    2  A    between atoms: C_5  and  O_21
REMARK                            x       y       z     vdW  Elec       q    Type
REMARK                         _______ _______ _______ _____ _____    ______ ____
ROOT
ATOM      1  N   UNL     1       7.055 -11.468  11.141  0.00  0.00    +0.000 N 
ATOM      2  C   UNL     1       6.157  -9.436  10.913  0.00  0.00    +0.000 A 
ATOM      3  C   UNL     1       5.178 -10.328  11.474  0.00  0.00    +0.000 A 
ATOM      4  C   UNL     1       5.770 -11.583  11.602  0.00  0.00    +0.000 A 
ATOM      5  C   UNL     1       7.308 -10.188  10.723  0.00  0.00    +0.000 A 
ATOM      6  C   UNL     1       3.839 -10.180  11.885  0.00  0.00    +0.000 A 
ATOM      7  C   UNL     1       5.100 -12.698  12.117  0.00  0.00    +0.000 A 
ATOM      8  C   UNL     1       3.150 -11.279  12.403  0.00  0.00    +0.000 A 
ATOM      9  C   UNL     1       3.775 -12.516  12.515  0.00  0.00    +0.000 A 
ATOM     10  H   UNL     1       7.734 -12.214  11.107  0.00  0.00    +0.000 HD
ENDROOT
BRANCH   2  11
ATOM     11  C   UNL     1       5.979  -8.035  10.608  0.00  0.00    +0.000 C 
ATOM     12  N   UNL     1       6.037  -7.104  11.526  0.00  0.00    +0.000 NA
ATOM     13  C   UNL     1       5.819  -5.878  10.865  0.00  0.00    +0.000 A 
ATOM     14  C   UNL     1       5.613  -6.004   9.493  0.00  0.00    +0.000 A 
ATOM     15  C   UNL     1       5.794  -4.623  11.443  0.00  0.00    +0.000 A 
ATOM     16  C   UNL     1       5.705  -7.427   9.235  0.00  0.00    +0.000 C 
ATOM     17  C   UNL     1       5.381  -4.945   8.644  0.00  0.00    +0.000 A 
ATOM     18  O   UNL     1       5.595  -8.026   8.191  0.00  0.00    +0.000 OA
ATOM     19  C   UNL     1       5.356  -3.682   9.231  0.00  0.00    +0.000 A 
ATOM     20  C   UNL     1       5.559  -3.521  10.613  0.00  0.00    +0.000 A 
ENDBRANCH   2  11
BRANCH   5  21
ATOM     21  O   UNL     1       8.520  -9.926  10.248  0.00  0.00    +0.000 OA
ATOM     22  H   UNL     1       9.185  -9.972  10.972  0.00  0.00    +0.000 HD
ENDBRANCH   5  21
TORSDOF 2
ENDMDL
MODEL 2
REMARK VINA RESULT:      -7.0      1.513      2.691
REMARK  Name = CHEMBL35349.pdbqt.pdb
REMARK  2 active torsions:
REMARK  status: ('A' for Active; 'I' for Inactive)
REMARK    1  A    between atoms: C_2  and  C_11
REMARK    2  A    between atoms: C_5  and  O_21
REMARK                            x       y       z     vdW  Elec       q    Type
REMARK                         _______ _______ _______ _____ _____    ______ ____
ROOT
ATOM      1  N   UNL     1       5.554 -11.530  11.801  0.00  0.00    +0.000 N 
ATOM      2  C   UNL     1       6.018  -9.450  11.135  0.00  0.00    +0.000 A 
ATOM      3  C   UNL     1       7.231 -10.223  11.159  0.00  0.00    +0.000 A 
ATOM      4  C   UNL     1       6.906 -11.512  11.578  0.00  0.00    +0.000 A 
ATOM      5  C   UNL     1       5.003 -10.304  11.542  0.00  0.00    +0.000 A 
ATOM      6  C   UNL     1       8.579  -9.942  10.863  0.00  0.00    +0.000 A 
ATOM      7  C   UNL     1       7.850 -12.535  11.718  0.00  0.00    +0.000 A 
ATOM      8  C   UNL     1       9.540 -10.947  10.994  0.00  0.00    +0.000 A 
ATOM      9  C   UNL     1       9.176 -12.221  11.414  0.00  0.00    +0.000 A 
ATOM     10  H   UNL     1       5.023 -12.330  12.114  0.00  0.00    +0.000 HD
ENDROOT
BRANCH   2  11
ATOM     11  C   UNL     1       5.884  -8.060  10.762  0.00  0.00    +0.000 C 
ATOM     12  N   UNL     1       5.976  -7.088  11.632  0.00  0.00    +0.000 NA
ATOM     13  C   UNL     1       5.795  -5.890  10.912  0.00  0.00    +0.000 A 
ATOM     14  C   UNL     1       5.581  -6.077   9.549  0.00  0.00    +0.000 A 
ATOM     15  C   UNL     1       5.813  -4.608  11.427  0.00  0.00    +0.000 A 
ATOM     16  C   UNL     1       5.625  -7.513   9.361  0.00  0.00    +0.000 C 
ATOM     17  C   UNL     1       5.380  -5.054   8.648  0.00  0.00    +0.000 A 
ATOM     18  O   UNL     1       5.492  -8.159   8.348  0.00  0.00    +0.000 OA
ATOM     19  C   UNL     1       5.398  -3.763   9.173  0.00  0.00    +0.000 A 
ATOM     20  C   UNL     1       5.612  -3.541  10.545  0.00  0.00    +0.000 A 
ENDBRANCH   2  11
BRANCH   5  21
ATOM     21  O   UNL     1       3.693 -10.171  11.714  0.00  0.00    +0.000 OA
ATOM     22  H   UNL     1       3.457  -9.219  11.801  0.00  0.00    +0.000 HD
ENDBRANCH   5  21
TORSDOF 2
ENDMDL
MODEL 3
REMARK VINA RESULT:      -6.5      2.619      3.833
REMARK  Name = CHEMBL35349.pdbqt.pdb
REMARK  2 active torsions:
REMARK  status: ('A' for Active; 'I' for Inactive)
REMARK    1  A    between atoms: C_2  and  C_11
REMARK    2  A    between atoms: C_5  and  O_21
REMARK                            x       y       z     vdW  Elec       q    Type
REMARK                         _______ _______ _______ _____ _____    ______ ____
ROOT
ATOM      1  N   UNL     1       3.627 -13.182  12.047  0.00  0.00    +0.000 N 
ATOM      2  C   UNL     1       4.730 -11.242  11.970  0.00  0.00    +0.000 A 
ATOM      3  C   UNL     1       5.655 -12.322  11.757  0.00  0.00    +0.000 A 
ATOM      4  C   UNL     1       4.936 -13.515  11.811  0.00  0.00    +0.000 A 
ATOM      5  C   UNL     1       3.483 -11.824  12.146  0.00  0.00    +0.000 A 
ATOM      6  C   UNL     1       7.042 -12.393  11.522  0.00  0.00    +0.000 A 
ATOM      7  C   UNL     1       5.524 -14.773  11.645  0.00  0.00    +0.000 A 
ATOM      8  C   UNL     1       7.651 -13.638  11.352  0.00  0.00    +0.000 A 
ATOM      9  C   UNL     1       6.899 -14.806  11.413  0.00  0.00    +0.000 A 
ATOM     10  H   UNL     1       2.864 -13.837  12.138  0.00  0.00    +0.000 HD
ENDROOT
BRANCH   2  11
ATOM     11  C   UNL     1       5.038  -9.830  11.997  0.00  0.00    +0.000 C 
ATOM     12  N   UNL     1       5.303  -9.149  10.911  0.00  0.00    +0.000 NA
ATOM     13  C   UNL     1       5.551  -7.824  11.323  0.00  0.00    +0.000 A 
ATOM     14  C   UNL     1       5.449  -7.630  12.698  0.00  0.00    +0.000 A 
ATOM     15  C   UNL     1       5.872  -6.754  10.508  0.00  0.00    +0.000 A 
ATOM     16  C   UNL     1       5.105  -8.933  13.230  0.00  0.00    +0.000 C 
ATOM     17  C   UNL     1       5.648  -6.421  13.327  0.00  0.00    +0.000 A 
ATOM     18  O   UNL     1       4.911  -9.267  14.375  0.00  0.00    +0.000 OA
ATOM     19  C   UNL     1       5.972  -5.346  12.502  0.00  0.00    +0.000 A 
ATOM     20  C   UNL     1       6.083  -5.509  11.110  0.00  0.00    +0.000 A 
ENDBRANCH   2  11
BRANCH   5  21
ATOM     21  O   UNL     1       2.263 -11.352  12.375  0.00  0.00    +0.000 OA
ATOM     22  H   UNL     1       2.315 -10.502  12.868  0.00  0.00    +0.000 HD
ENDBRANCH   5  21
TORSDOF 2
ENDMDL
MODEL 4
REMARK VINA RESULT:      -6.3      2.244      3.700
REMARK  Name = CHEMBL35349.pdbqt.pdb
REMARK  2 active torsions:
REMARK  status: ('A' for Active; 'I' for Inactive)
REMARK    1  A    between atoms: C_2  and  C_11
REMARK    2  A    between atoms: C_5  and  O_21
REMARK                            x       y       z     vdW  Elec       q    Type
REMARK                         _______ _______ _______ _____ _____    ______ ____
ROOT
ATOM      1  N   UNL     1       7.027 -12.296  11.880  0.00  0.00    +0.000 N 
ATOM      2  C   UNL     1       7.092 -10.176  11.184  0.00  0.00    +0.000 A 
ATOM      3  C   UNL     1       8.430 -10.700  11.235  0.00  0.00    +0.000 A 
ATOM      4  C   UNL     1       8.354 -12.020  11.673  0.00  0.00    +0.000 A 
ATOM      5  C   UNL     1       6.254 -11.203  11.593  0.00  0.00    +0.000 A 
ATOM      6  C   UNL     1       9.703 -10.168  10.950  0.00  0.00    +0.000 A 
ATOM      7  C   UNL     1       9.475 -12.839  11.842  0.00  0.00    +0.000 A 
ATOM      8  C   UNL     1      10.837 -10.967  11.109  0.00  0.00    +0.000 A 
ATOM      9  C   UNL     1      10.720 -12.281  11.548  0.00  0.00    +0.000 A 
ATOM     10  H   UNL     1       6.656 -13.179  12.201  0.00  0.00    +0.000 HD
ENDROOT
BRANCH   2  11
ATOM     11  C   UNL     1       6.698  -8.844  10.784  0.00  0.00    +0.000 C 
ATOM     12  N   UNL     1       6.165  -8.590   9.617  0.00  0.00    +0.000 NA
ATOM     13  C   UNL     1       5.916  -7.203   9.585  0.00  0.00    +0.000 A 
ATOM     14  C   UNL     1       6.290  -6.535  10.748  0.00  0.00    +0.000 A 
ATOM     15  C   UNL     1       5.356  -6.490   8.542  0.00  0.00    +0.000 A 
ATOM     16  C   UNL     1       6.828  -7.567  11.610  0.00  0.00    +0.000 C 
ATOM     17  C   UNL     1       6.142  -5.179  10.944  0.00  0.00    +0.000 A 
ATOM     18  O   UNL     1       7.281  -7.475  12.727  0.00  0.00    +0.000 OA
ATOM     19  C   UNL     1       5.578  -4.465   9.890  0.00  0.00    +0.000 A 
ATOM     20  C   UNL     1       5.190  -5.110   8.703  0.00  0.00    +0.000 A 
ENDBRANCH   2  11
BRANCH   5  21
ATOM     21  O   UNL     1       4.941 -11.323  11.748  0.00  0.00    +0.000 OA
ATOM     22  H   UNL     1       4.734 -11.648  12.654  0.00  0.00    +0.000 HD
ENDBRANCH   5  21
TORSDOF 2
ENDMDL
MODEL 5
REMARK VINA RESULT:      -6.0      1.494      2.101
REMARK  Name = CHEMBL35349.pdbqt.pdb
REMARK  2 active torsions:
REMARK  status: ('A' for Active; 'I' for Inactive)
REMARK    1  A    between atoms: C_2  and  C_11
REMARK    2  A    between atoms: C_5  and  O_21
REMARK                            x       y       z     vdW  Elec       q    Type
REMARK                         _______ _______ _______ _____ _____    ______ ____
ROOT
ATOM      1  N   UNL     1       8.606 -11.199  10.704  0.00  0.00    +0.000 N 
ATOM      2  C   UNL     1       7.295  -9.392  10.753  0.00  0.00    +0.000 A 
ATOM      3  C   UNL     1       6.555 -10.528  11.231  0.00  0.00    +0.000 A 
ATOM      4  C   UNL     1       7.400 -11.636  11.186  0.00  0.00    +0.000 A 
ATOM      5  C   UNL     1       8.564  -9.856  10.437  0.00  0.00    +0.000 A 
ATOM      6  C   UNL     1       5.239 -10.716  11.697  0.00  0.00    +0.000 A 
ATOM      7  C   UNL     1       7.005 -12.918  11.581  0.00  0.00    +0.000 A 
ATOM      8  C   UNL     1       4.823 -11.987  12.098  0.00  0.00    +0.000 A 
ATOM      9  C   UNL     1       5.696 -13.068  12.039  0.00  0.00    +0.000 A 
ATOM     10  H   UNL     1       9.422 -11.775  10.558  0.00  0.00    +0.000 HD
ENDROOT
BRANCH   2  11
ATOM     11  C   UNL     1       6.813  -8.035  10.627  0.00  0.00    +0.000 C 
ATOM     12  N   UNL     1       6.447  -7.523   9.480  0.00  0.00    +0.000 NA
ATOM     13  C   UNL     1       6.042  -6.200   9.745  0.00  0.00    +0.000 A 
ATOM     14  C   UNL     1       6.143  -5.835  11.085  0.00  0.00    +0.000 A 
ATOM     15  C   UNL     1       5.575  -5.281   8.823  0.00  0.00    +0.000 A 
ATOM     16  C   UNL     1       6.655  -7.015  11.751  0.00  0.00    +0.000 C 
ATOM     17  C   UNL     1       5.804  -4.594  11.578  0.00  0.00    +0.000 A 
ATOM     18  O   UNL     1       6.910  -7.185  12.921  0.00  0.00    +0.000 OA
ATOM     19  C   UNL     1       5.334  -3.671  10.645  0.00  0.00    +0.000 A 
ATOM     20  C   UNL     1       5.221  -4.009   9.285  0.00  0.00    +0.000 A 
ENDBRANCH   2  11
BRANCH   5  21
ATOM     21  O   UNL     1       9.667  -9.290   9.961  0.00  0.00    +0.000 OA
ATOM     22  H   UNL     1       9.545  -8.316   9.890  0.00  0.00    +0.000 HD
ENDBRANCH   5  21
TORSDOF 2
ENDMDL
MODEL 6
REMARK VINA RESULT:      -5.7      3.305      7.106
REMARK  Name = CHEMBL35349.pdbqt.pdb
REMARK  2 active torsions:
REMARK  status: ('A' for Active; 'I' for Inactive)
REMARK    1  A    between atoms: C_2  and  C_11
REMARK    2  A    between atoms: C_5  and  O_21
REMARK                            x       y       z     vdW  Elec       q    Type
REMARK                         _______ _______ _______ _____ _____    ______ ____
ROOT
ATOM      1  N   UNL     1       7.416  -2.162   8.536  0.00  0.00    +0.000 N 
ATOM      2  C   UNL     1       7.175  -4.220   9.371  0.00  0.00    +0.000 A 
ATOM      3  C   UNL     1       8.383  -4.161   8.592  0.00  0.00    +0.000 A 
ATOM      4  C   UNL     1       8.501  -2.868   8.087  0.00  0.00    +0.000 A 
ATOM      5  C   UNL     1       6.608  -2.955   9.308  0.00  0.00    +0.000 A 
ATOM      6  C   UNL     1       9.387  -5.095   8.269  0.00  0.00    +0.000 A 
ATOM      7  C   UNL     1       9.566  -2.455   7.279  0.00  0.00    +0.000 A 
ATOM      8  C   UNL     1      10.460  -4.705   7.464  0.00  0.00    +0.000 A 
ATOM      9  C   UNL     1      10.543  -3.405   6.980  0.00  0.00    +0.000 A 
ATOM     10  H   UNL     1       7.224  -1.192   8.335  0.00  0.00    +0.000 HD
ENDROOT
BRANCH   2  11
ATOM     11  C   UNL     1       6.656  -5.367  10.079  0.00  0.00    +0.000 C 
ATOM     12  N   UNL     1       6.410  -5.347  11.364  0.00  0.00    +0.000 NA
ATOM     13  C   UNL     1       5.920  -6.626  11.696  0.00  0.00    +0.000 A 
ATOM     14  C   UNL     1       5.843  -7.501  10.616  0.00  0.00    +0.000 A 
ATOM     15  C   UNL     1       5.530  -7.059  12.950  0.00  0.00    +0.000 A 
ATOM     16  C   UNL     1       6.321  -6.732   9.484  0.00  0.00    +0.000 C 
ATOM     17  C   UNL     1       5.396  -8.801  10.701  0.00  0.00    +0.000 A 
ATOM     18  O   UNL     1       6.439  -7.063   8.327  0.00  0.00    +0.000 OA
ATOM     19  C   UNL     1       5.004  -9.233  11.967  0.00  0.00    +0.000 A 
ATOM     20  C   UNL     1       5.070  -8.374  13.078  0.00  0.00    +0.000 A 
ENDBRANCH   2  11
BRANCH   5  21
ATOM     21  O   UNL     1       5.512  -2.403   9.815  0.00  0.00    +0.000 OA
ATOM     22  H   UNL     1       5.742  -1.847  10.594  0.00  0.00    +0.000 HD
ENDBRANCH   5  21
TORSDOF 2
ENDMDL
MODEL 7
REMARK VINA RESULT:      -5.7      4.010      5.398
REMARK  Name = CHEMBL35349.pdbqt.pdb
REMARK  2 active torsions:
REMARK  status: ('A' for Active; 'I' for Inactive)
REMARK    1  A    between atoms: C_2  and  C_11
REMARK    2  A    between atoms: C_5  and  O_21
REMARK                            x       y       z     vdW  Elec       q    Type
REMARK                         _______ _______ _______ _____ _____    ______ ____
ROOT
ATOM      1  N   UNL     1       4.792 -13.515  11.562  0.00  0.00    +0.000 N 
ATOM      2  C   UNL     1       6.608 -12.216  11.582  0.00  0.00    +0.000 A 
ATOM      3  C   UNL     1       5.500 -11.493  12.146  0.00  0.00    +0.000 A 
ATOM      4  C   UNL     1       4.387 -12.330  12.118  0.00  0.00    +0.000 A 
ATOM      5  C   UNL     1       6.121 -13.467  11.233  0.00  0.00    +0.000 A 
ATOM      6  C   UNL     1       5.344 -10.197  12.679  0.00  0.00    +0.000 A 
ATOM      7  C   UNL     1       3.127 -11.948  12.592  0.00  0.00    +0.000 A 
ATOM      8  C   UNL     1       4.096  -9.794  13.158  0.00  0.00    +0.000 A 
ATOM      9  C   UNL     1       3.008 -10.659  13.113  0.00  0.00    +0.000 A 
ATOM     10  H   UNL     1       4.204 -14.322  11.410  0.00  0.00    +0.000 HD
ENDROOT
BRANCH   2  11
ATOM     11  C   UNL     1       7.960 -11.735  11.412  0.00  0.00    +0.000 C 
ATOM     12  N   UNL     1       9.004 -12.427  11.789  0.00  0.00    +0.000 NA
ATOM     13  C   UNL     1      10.135 -11.650  11.468  0.00  0.00    +0.000 A 
ATOM     14  C   UNL     1       9.832 -10.429  10.871  0.00  0.00    +0.000 A 
ATOM     15  C   UNL     1      11.457 -11.989  11.687  0.00  0.00    +0.000 A 
ATOM     16  C   UNL     1       8.385 -10.405  10.796  0.00  0.00    +0.000 C 
ATOM     17  C   UNL     1      10.773  -9.505  10.472  0.00  0.00    +0.000 A 
ATOM     18  O   UNL     1       7.654  -9.548  10.356  0.00  0.00    +0.000 OA
ATOM     19  C   UNL     1      12.104  -9.851  10.696  0.00  0.00    +0.000 A 
ATOM     20  C   UNL     1      12.444 -11.077  11.296  0.00  0.00    +0.000 A 
ENDBRANCH   2  11
BRANCH   5  21
ATOM     21  O   UNL     1       6.656 -14.551  10.683  0.00  0.00    +0.000 OA
ATOM     22  H   UNL     1       7.188 -14.302   9.893  0.00  0.00    +0.000 HD
ENDBRANCH   5  21
TORSDOF 2
ENDMDL
MODEL 8
REMARK VINA RESULT:      -5.7     22.237     24.402
REMARK  Name = CHEMBL35349.pdbqt.pdb
REMARK  2 active torsions:
REMARK  status: ('A' for Active; 'I' for Inactive)
REMARK    1  A    between atoms: C_2  and  C_11
REMARK    2  A    between atoms: C_5  and  O_21
REMARK                            x       y       z     vdW  Elec       q    Type
REMARK                         _______ _______ _______ _____ _____    ______ ____
ROOT
ATOM      1  N   UNL     1      -8.684  -8.093  25.721  0.00  0.00    +0.000 N 
ATOM      2  C   UNL     1     -10.572  -7.550  26.781  0.00  0.00    +0.000 A 
ATOM      3  C   UNL     1      -9.672  -6.429  26.810  0.00  0.00    +0.000 A 
ATOM      4  C   UNL     1      -8.507  -6.801  26.142  0.00  0.00    +0.000 A 
ATOM      5  C   UNL     1      -9.915  -8.561  26.094  0.00  0.00    +0.000 A 
ATOM      6  C   UNL     1      -9.744  -5.128  27.346  0.00  0.00    +0.000 A 
ATOM      7  C   UNL     1      -7.410  -5.948  25.980  0.00  0.00    +0.000 A 
ATOM      8  C   UNL     1      -8.661  -4.259  27.196  0.00  0.00    +0.000 A 
ATOM      9  C   UNL     1      -7.515  -4.667  26.523  0.00  0.00    +0.000 A 
ATOM     10  H   UNL     1      -8.008  -8.638  25.206  0.00  0.00    +0.000 HD
ENDROOT
BRANCH   2  11
ATOM     11  C   UNL     1     -11.898  -7.612  27.353  0.00  0.00    +0.000 C 
ATOM     12  N   UNL     1     -12.179  -7.113  28.529  0.00  0.00    +0.000 NA
ATOM     13  C   UNL     1     -13.550  -7.357  28.749  0.00  0.00    +0.000 A 
ATOM     14  C   UNL     1     -14.180  -8.026  27.703  0.00  0.00    +0.000 A 
ATOM     15  C   UNL     1     -14.281  -7.001  29.866  0.00  0.00    +0.000 A 
ATOM     16  C   UNL     1     -13.138  -8.237  26.719  0.00  0.00    +0.000 C 
ATOM     17  C   UNL     1     -15.514  -8.371  27.695  0.00  0.00    +0.000 A 
ATOM     18  O   UNL     1     -13.200  -8.778  25.639  0.00  0.00    +0.000 OA
ATOM     19  C   UNL     1     -16.247  -8.011  28.824  0.00  0.00    +0.000 A 
ATOM     20  C   UNL     1     -15.640  -7.335  29.897  0.00  0.00    +0.000 A 
ENDBRANCH   2  11
BRANCH   5  21
ATOM     21  O   UNL     1     -10.228  -9.806  25.752  0.00  0.00    +0.000 OA
ATOM     22  H   UNL     1     -10.412  -9.856  24.786  0.00  0.00    +0.000 HD
ENDBRANCH   5  21
TORSDOF 2
ENDMDL
MODEL 9
REMARK VINA RESULT:      -5.7     18.428     21.181
REMARK  Name = CHEMBL35349.pdbqt.pdb
REMARK  2 active torsions:
REMARK  status: ('A' for Active; 'I' for Inactive)
REMARK    1  A    between atoms: C_2  and  C_11
REMARK    2  A    between atoms: C_5  and  O_21
REMARK                            x       y       z     vdW  Elec       q    Type
REMARK                         _______ _______ _______ _____ _____    ______ ____
ROOT
ATOM      1  N   UNL     1     -13.760 -15.612   9.089  0.00  0.00    +0.000 N 
ATOM      2  C   UNL     1     -13.384 -16.021  11.252  0.00  0.00    +0.000 A 
ATOM      3  C   UNL     1     -12.127 -15.938  10.559  0.00  0.00    +0.000 A 
ATOM      4  C   UNL     1     -12.397 -15.683   9.216  0.00  0.00    +0.000 A 
ATOM      5  C   UNL     1     -14.370 -15.812  10.298  0.00  0.00    +0.000 A 
ATOM      6  C   UNL     1     -10.780 -16.059  10.954  0.00  0.00    +0.000 A 
ATOM      7  C   UNL     1     -11.399 -15.542   8.246  0.00  0.00    +0.000 A 
ATOM      8  C   UNL     1      -9.766 -15.920  10.004  0.00  0.00    +0.000 A 
ATOM      9  C   UNL     1     -10.076 -15.666   8.673  0.00  0.00    +0.000 A 
ATOM     10  H   UNL     1     -14.259 -15.437   8.229  0.00  0.00    +0.000 HD
ENDROOT
BRANCH   2  11
ATOM     11  C   UNL     1     -13.582 -16.272  12.661  0.00  0.00    +0.000 C 
ATOM     12  N   UNL     1     -12.928 -17.204  13.307  0.00  0.00    +0.000 NA
ATOM     13  C   UNL     1     -13.377 -17.154  14.642  0.00  0.00    +0.000 A 
ATOM     14  C   UNL     1     -14.340 -16.176  14.878  0.00  0.00    +0.000 A 
ATOM     15  C   UNL     1     -12.957 -17.960  15.683  0.00  0.00    +0.000 A 
ATOM     16  C   UNL     1     -14.537 -15.534  13.595  0.00  0.00    +0.000 C 
ATOM     17  C   UNL     1     -14.924 -15.943  16.105  0.00  0.00    +0.000 A 
ATOM     18  O   UNL     1     -15.277 -14.625  13.297  0.00  0.00    +0.000 OA
ATOM     19  C   UNL     1     -14.497 -16.758  17.151  0.00  0.00    +0.000 A 
ATOM     20  C   UNL     1     -13.527 -17.754  16.945  0.00  0.00    +0.000 A 
ENDBRANCH   2  11
BRANCH   5  21
ATOM     21  O   UNL     1     -15.697 -15.771  10.330  0.00  0.00    +0.000 OA
ATOM     22  H   UNL     1     -16.066 -16.044   9.459  0.00  0.00    +0.000 HD
ENDBRANCH   5  21
TORSDOF 2
ENDMDL
