MODEL 1
REMARK VINA RESULT:      -5.8      0.000      0.000
REMARK  Name = Chlortetracycline.pdbqt.pdb
REMARK  7 active torsions:
REMARK  status: ('A' for Active; 'I' for Inactive)
REMARK    1  A    between atoms: C_7  and  O_30
REMARK    2  A    between atoms: C_8  and  N_32
REMARK    3  A    between atoms: C_9  and  O_37
REMARK    4  A    between atoms: C_12  and  O_28
REMARK    5  A    between atoms: C_15  and  O_35
REMARK    6  A    between atoms: C_16  and  C_23
REMARK    7  A    between atoms: C_20  and  O_39
REMARK                            x       y       z     vdW  Elec       q    Type
REMARK                         _______ _______ _______ _____ _____    ______ ____
ROOT
ATOM      1 CL   UNL     1     -18.531   6.582  18.113  0.00  0.00    +0.000 Cl
ATOM      2  O   UNL     1     -19.088   1.318  12.344  0.00  0.00    +0.000 OA
ATOM      3  O   UNL     1     -23.055   5.875  11.130  0.00  0.00    +0.000 OA
ATOM      4  C   UNL     1     -22.215   3.198  13.126  0.00  0.00    +0.000 C 
ATOM      5  C   UNL     1     -20.178   3.965  14.618  0.00  0.00    +0.000 C 
ATOM      6  C   UNL     1     -21.507   3.831  14.168  0.00  0.00    +0.000 C 
ATOM      7  C   UNL     1     -21.328   2.345  12.250  0.00  0.00    +0.000 C 
ATOM      8  C   UNL     1     -23.281   3.915  12.449  0.00  0.00    +0.000 C 
ATOM      9  C   UNL     1     -19.705   4.608  15.892  0.00  0.00    +0.000 C 
ATOM     10  C   UNL     1     -19.260   3.194  13.807  0.00  0.00    +0.000 C 
ATOM     11  C   UNL     1     -19.822   2.216  12.779  0.00  0.00    +0.000 C 
ATOM     12  C   UNL     1     -21.261   2.838  10.801  0.00  0.00    +0.000 C 
ATOM     13  C   UNL     1     -18.219   4.928  15.898  0.00  0.00    +0.000 A 
ATOM     14  C   UNL     1     -22.819   4.683  11.260  0.00  0.00    +0.000 C 
ATOM     15  C   UNL     1     -17.931   3.314  13.978  0.00  0.00    +0.000 C 
ATOM     16  C   UNL     1     -21.920   3.924  10.334  0.00  0.00    +0.000 C 
ATOM     17  C   UNL     1     -17.362   4.313  14.935  0.00  0.00    +0.000 A 
ATOM     18  C   UNL     1     -20.092   3.690  17.070  0.00  0.00    +0.000 C 
ATOM     19  C   UNL     1     -17.647   5.817  16.839  0.00  0.00    +0.000 A 
ATOM     20  C   UNL     1     -15.998   4.679  14.922  0.00  0.00    +0.000 A 
ATOM     21  C   UNL     1     -16.290   6.125  16.814  0.00  0.00    +0.000 A 
ATOM     22  C   UNL     1     -15.469   5.571  15.850  0.00  0.00    +0.000 A 
ENDROOT
BRANCH  16  23
ATOM     23  C   UNL     1     -21.872   4.345   8.905  0.00  0.00    +0.000 C 
ATOM     24  O   UNL     1     -21.920   3.536   7.987  0.00  0.00    +0.000 OA
ATOM     25  N   UNL     1     -21.753   5.677   8.657  0.00  0.00    +0.000 N 
ATOM     26  H   UNL     1     -21.432   6.304   9.387  0.00  0.00    +0.000 HD
ATOM     27  H   UNL     1     -21.601   5.950   7.695  0.00  0.00    +0.000 HD
ENDBRANCH  16  23
BRANCH   8  28
ATOM     28  N   UNL     1     -24.647   3.466  12.507  0.00  0.00    +0.000 NA
ATOM     29  C   UNL     1     -25.085   2.745  11.321  0.00  0.00    +0.000 C 
ATOM     30  C   UNL     1     -24.945   2.647  13.665  0.00  0.00    +0.000 C 
ENDBRANCH   8  28
BRANCH  12  31
ATOM     31  O   UNL     1     -20.514   2.034   9.935  0.00  0.00    +0.000 OA
ATOM     32  H   UNL     1     -20.171   2.600   9.206  0.00  0.00    +0.000 HD
ENDBRANCH  12  31
BRANCH   7  33
ATOM     33  O   UNL     1     -21.912   1.044  12.162  0.00  0.00    +0.000 OA
ATOM     34  H   UNL     1     -22.018   0.822  11.219  0.00  0.00    +0.000 HD
ENDBRANCH   7  33
BRANCH  15  35
ATOM     35  O   UNL     1     -17.015   2.526  13.313  0.00  0.00    +0.000 OA
ATOM     36  H   UNL     1     -17.457   1.743  12.923  0.00  0.00    +0.000 HD
ENDBRANCH  15  35
BRANCH   9  37
ATOM     37  O   UNL     1     -20.468   5.790  16.038  0.00  0.00    +0.000 OA
ATOM     38  H   UNL     1     -19.780   6.428  16.301  0.00  0.00    +0.000 HD
ENDBRANCH   9  37
BRANCH  20  39
ATOM     39  O   UNL     1     -15.140   4.208  13.964  0.00  0.00    +0.000 OA
ATOM     40  H   UNL     1     -14.263   4.610  14.089  0.00  0.00    +0.000 HD
ENDBRANCH  20  39
TORSDOF 7
ENDMDL
MODEL 2
REMARK VINA RESULT:      -5.6     28.525     31.380
REMARK  Name = Chlortetracycline.pdbqt.pdb
REMARK  7 active torsions:
REMARK  status: ('A' for Active; 'I' for Inactive)
REMARK    1  A    between atoms: C_7  and  O_30
REMARK    2  A    between atoms: C_8  and  N_32
REMARK    3  A    between atoms: C_9  and  O_37
REMARK    4  A    between atoms: C_12  and  O_28
REMARK    5  A    between atoms: C_15  and  O_35
REMARK    6  A    between atoms: C_16  and  C_23
REMARK    7  A    between atoms: C_20  and  O_39
REMARK                            x       y       z     vdW  Elec       q    Type
REMARK                         _______ _______ _______ _____ _____    ______ ____
ROOT
ATOM      1 CL   UNL     1      11.314 -13.397  11.828  0.00  0.00    +0.000 Cl
ATOM      2  O   UNL     1       3.676 -11.676  11.801  0.00  0.00    +0.000 OA
ATOM      3  O   UNL     1       5.169 -13.548  17.479  0.00  0.00    +0.000 OA
ATOM      4  C   UNL     1       4.720 -14.368  14.165  0.00  0.00    +0.000 C 
ATOM      5  C   UNL     1       6.759 -13.344  12.840  0.00  0.00    +0.000 C 
ATOM      6  C   UNL     1       6.028 -14.229  13.658  0.00  0.00    +0.000 C 
ATOM      7  C   UNL     1       3.775 -13.310  13.645  0.00  0.00    +0.000 C 
ATOM      8  C   UNL     1       4.530 -14.770  15.548  0.00  0.00    +0.000 C 
ATOM      9  C   UNL     1       8.161 -13.521  12.327  0.00  0.00    +0.000 C 
ATOM     10  C   UNL     1       5.923 -12.281  12.324  0.00  0.00    +0.000 C 
ATOM     11  C   UNL     1       4.413 -12.364  12.521  0.00  0.00    +0.000 C 
ATOM     12  C   UNL     1       3.227 -12.399  14.748  0.00  0.00    +0.000 C 
ATOM     13  C   UNL     1       8.785 -12.237  11.803  0.00  0.00    +0.000 A 
ATOM     14  C   UNL     1       4.449 -13.624  16.495  0.00  0.00    +0.000 C 
ATOM     15  C   UNL     1       6.466 -11.249  11.652  0.00  0.00    +0.000 C 
ATOM     16  C   UNL     1       3.544 -12.513  16.059  0.00  0.00    +0.000 C 
ATOM     17  C   UNL     1       7.949 -11.118  11.505  0.00  0.00    +0.000 A 
ATOM     18  C   UNL     1       8.145 -14.625  11.249  0.00  0.00    +0.000 C 
ATOM     19  C   UNL     1      10.179 -12.114  11.590  0.00  0.00    +0.000 A 
ATOM     20  C   UNL     1       8.563  -9.918  11.083  0.00  0.00    +0.000 A 
ATOM     21  C   UNL     1      10.741 -10.923  11.139  0.00  0.00    +0.000 A 
ATOM     22  C   UNL     1       9.940  -9.823  10.900  0.00  0.00    +0.000 A 
ENDROOT
BRANCH  16  23
ATOM     23  C   UNL     1       2.951 -11.641  17.112  0.00  0.00    +0.000 C 
ATOM     24  O   UNL     1       1.749 -11.416  17.169  0.00  0.00    +0.000 OA
ATOM     25  N   UNL     1       3.809 -11.083  18.008  0.00  0.00    +0.000 N 
ATOM     26  H   UNL     1       4.801 -11.034  17.801  0.00  0.00    +0.000 HD
ATOM     27  H   UNL     1       3.423 -10.400  18.646  0.00  0.00    +0.000 HD
ENDBRANCH  16  23
BRANCH   8  28
ATOM     28  N   UNL     1       3.884 -16.009  15.890  0.00  0.00    +0.000 NA
ATOM     29  C   UNL     1       2.571 -15.846  16.496  0.00  0.00    +0.000 C 
ATOM     30  C   UNL     1       3.753 -16.928  14.778  0.00  0.00    +0.000 C 
ENDBRANCH   8  28
BRANCH  12  31
ATOM     31  O   UNL     1       2.287 -11.455  14.325  0.00  0.00    +0.000 OA
ATOM     32  H   UNL     1       1.388 -11.795  14.539  0.00  0.00    +0.000 HD
ENDBRANCH  12  31
BRANCH   7  33
ATOM     33  O   UNL     1       2.623 -13.967  13.114  0.00  0.00    +0.000 OA
ATOM     34  H   UNL     1       2.801 -14.181  12.179  0.00  0.00    +0.000 HD
ENDBRANCH   7  33
BRANCH  15  35
ATOM     35  O   UNL     1       5.711 -10.269  11.044  0.00  0.00    +0.000 OA
ATOM     36  H   UNL     1       6.202  -9.878  10.291  0.00  0.00    +0.000 HD
ENDBRANCH  15  35
BRANCH   9  37
ATOM     37  O   UNL     1       8.911 -14.032  13.411  0.00  0.00    +0.000 OA
ATOM     38  H   UNL     1       9.427 -13.246  13.671  0.00  0.00    +0.000 HD
ENDBRANCH   9  37
BRANCH  20  39
ATOM     39  O   UNL     1       7.836  -8.776  10.878  0.00  0.00    +0.000 OA
ATOM     40  H   UNL     1       7.246  -8.899  10.115  0.00  0.00    +0.000 HD
ENDBRANCH  20  39
TORSDOF 7
ENDMDL
MODEL 3
REMARK VINA RESULT:      -5.4     14.556     17.649
REMARK  Name = Chlortetracycline.pdbqt.pdb
REMARK  7 active torsions:
REMARK  status: ('A' for Active; 'I' for Inactive)
REMARK    1  A    between atoms: C_7  and  O_30
REMARK    2  A    between atoms: C_8  and  N_32
REMARK    3  A    between atoms: C_9  and  O_37
REMARK    4  A    between atoms: C_12  and  O_28
REMARK    5  A    between atoms: C_15  and  O_35
REMARK    6  A    between atoms: C_16  and  C_23
REMARK    7  A    between atoms: C_20  and  O_39
REMARK                            x       y       z     vdW  Elec       q    Type
REMARK                         _______ _______ _______ _____ _____    ______ ____
ROOT
ATOM      1 CL   UNL     1      -0.718  11.367   4.154  0.00  0.00    +0.000 Cl
ATOM      2  O   UNL     1      -5.724   9.665   9.928  0.00  0.00    +0.000 OA
ATOM      3  O   UNL     1      -7.315   6.319   5.003  0.00  0.00    +0.000 OA
ATOM      4  C   UNL     1      -7.103   9.428   6.469  0.00  0.00    +0.000 C 
ATOM      5  C   UNL     1      -4.549  10.090   6.492  0.00  0.00    +0.000 C 
ATOM      6  C   UNL     1      -5.852   9.879   5.999  0.00  0.00    +0.000 C 
ATOM      7  C   UNL     1      -7.103   9.140   7.952  0.00  0.00    +0.000 C 
ATOM      8  C   UNL     1      -7.893   8.530   5.645  0.00  0.00    +0.000 C 
ATOM      9  C   UNL     1      -3.397  10.740   5.778  0.00  0.00    +0.000 C 
ATOM     10  C   UNL     1      -4.462   9.807   7.909  0.00  0.00    +0.000 C 
ATOM     11  C   UNL     1      -5.746   9.555   8.694  0.00  0.00    +0.000 C 
ATOM     12  C   UNL     1      -7.369   7.668   8.279  0.00  0.00    +0.000 C 
ATOM     13  C   UNL     1      -2.048  10.472   6.427  0.00  0.00    +0.000 A 
ATOM     14  C   UNL     1      -7.618   7.089   5.903  0.00  0.00    +0.000 C 
ATOM     15  C   UNL     1      -3.269   9.798   8.532  0.00  0.00    +0.000 C 
ATOM     16  C   UNL     1      -7.583   6.707   7.350  0.00  0.00    +0.000 C 
ATOM     17  C   UNL     1      -1.997   9.979   7.767  0.00  0.00    +0.000 A 
ATOM     18  C   UNL     1      -3.684  12.252   5.672  0.00  0.00    +0.000 C 
ATOM     19  C   UNL     1      -0.829  10.703   5.746  0.00  0.00    +0.000 A 
ATOM     20  C   UNL     1      -0.733   9.677   8.322  0.00  0.00    +0.000 A 
ATOM     21  C   UNL     1       0.398  10.424   6.341  0.00  0.00    +0.000 A 
ATOM     22  C   UNL     1       0.448   9.899   7.618  0.00  0.00    +0.000 A 
ENDROOT
BRANCH  16  23
ATOM     23  C   UNL     1      -7.890   5.292   7.707  0.00  0.00    +0.000 C 
ATOM     24  O   UNL     1      -8.705   5.002   8.572  0.00  0.00    +0.000 OA
ATOM     25  N   UNL     1      -7.207   4.324   7.038  0.00  0.00    +0.000 N 
ATOM     26  H   UNL     1      -6.352   4.554   6.543  0.00  0.00    +0.000 HD
ATOM     27  H   UNL     1      -7.327   3.374   7.362  0.00  0.00    +0.000 HD
ENDBRANCH  16  23
BRANCH   8  28
ATOM     28  N   UNL     1      -9.179   8.917   5.127  0.00  0.00    +0.000 NA
ATOM     29  C   UNL     1     -10.304   8.436   5.916  0.00  0.00    +0.000 C 
ATOM     30  C   UNL     1      -9.333  10.346   4.951  0.00  0.00    +0.000 C 
ENDBRANCH   8  28
BRANCH  12  31
ATOM     31  O   UNL     1      -7.455   7.369   9.642  0.00  0.00    +0.000 OA
ATOM     32  H   UNL     1      -7.928   6.511   9.741  0.00  0.00    +0.000 HD
ENDBRANCH  12  31
BRANCH   7  33
ATOM     33  O   UNL     1      -8.198   9.844   8.540  0.00  0.00    +0.000 OA
ATOM     34  H   UNL     1      -9.006   9.618   8.043  0.00  0.00    +0.000 HD
ENDBRANCH   7  33
BRANCH  15  35
ATOM     35  O   UNL     1      -3.137   9.645   9.896  0.00  0.00    +0.000 OA
ATOM     36  H   UNL     1      -3.751  10.245  10.368  0.00  0.00    +0.000 HD
ENDBRANCH  15  35
BRANCH   9  37
ATOM     37  O   UNL     1      -3.422  10.234   4.458  0.00  0.00    +0.000 OA
ATOM     38  H   UNL     1      -2.891  10.904   3.988  0.00  0.00    +0.000 HD
ENDBRANCH   9  37
BRANCH  20  39
ATOM     39  O   UNL     1      -0.613   9.107   9.560  0.00  0.00    +0.000 OA
ATOM     40  H   UNL     1      -1.383   8.538   9.731  0.00  0.00    +0.000 HD
ENDBRANCH  20  39
TORSDOF 7
ENDMDL
MODEL 4
REMARK VINA RESULT:      -5.4     28.871     31.796
REMARK  Name = Chlortetracycline.pdbqt.pdb
REMARK  7 active torsions:
REMARK  status: ('A' for Active; 'I' for Inactive)
REMARK    1  A    between atoms: C_7  and  O_30
REMARK    2  A    between atoms: C_8  and  N_32
REMARK    3  A    between atoms: C_9  and  O_37
REMARK    4  A    between atoms: C_12  and  O_28
REMARK    5  A    between atoms: C_15  and  O_35
REMARK    6  A    between atoms: C_16  and  C_23
REMARK    7  A    between atoms: C_20  and  O_39
REMARK                            x       y       z     vdW  Elec       q    Type
REMARK                         _______ _______ _______ _____ _____    ______ ____
ROOT
ATOM      1 CL   UNL     1      11.942 -13.972  12.452  0.00  0.00    +0.000 Cl
ATOM      2  O   UNL     1       4.911 -10.529  12.580  0.00  0.00    +0.000 OA
ATOM      3  O   UNL     1       8.697  -6.969   9.267  0.00  0.00    +0.000 OA
ATOM      4  C   UNL     1       7.838  -8.225  12.356  0.00  0.00    +0.000 C 
ATOM      5  C   UNL     1       8.555 -10.764  12.376  0.00  0.00    +0.000 C 
ATOM      6  C   UNL     1       8.669  -9.361  12.442  0.00  0.00    +0.000 C 
ATOM      7  C   UNL     1       6.376  -8.577  12.221  0.00  0.00    +0.000 C 
ATOM      8  C   UNL     1       8.288  -7.067  11.603  0.00  0.00    +0.000 C 
ATOM      9  C   UNL     1       9.626 -11.782  12.655  0.00  0.00    +0.000 C 
ATOM     10  C   UNL     1       7.178 -11.181  12.217  0.00  0.00    +0.000 C 
ATOM     11  C   UNL     1       6.068 -10.143  12.362  0.00  0.00    +0.000 C 
ATOM     12  C   UNL     1       5.765  -8.112  10.895  0.00  0.00    +0.000 C 
ATOM     13  C   UNL     1       9.298 -13.171  12.129  0.00  0.00    +0.000 A 
ATOM     14  C   UNL     1       7.883  -7.096  10.170  0.00  0.00    +0.000 C 
ATOM     15  C   UNL     1       6.877 -12.470  11.978  0.00  0.00    +0.000 C 
ATOM     16  C   UNL     1       6.448  -7.451   9.931  0.00  0.00    +0.000 C 
ATOM     17  C   UNL     1       7.953 -13.489  11.770  0.00  0.00    +0.000 A 
ATOM     18  C   UNL     1       9.894 -11.798  14.174  0.00  0.00    +0.000 C 
ATOM     19  C   UNL     1      10.288 -14.172  11.991  0.00  0.00    +0.000 A 
ATOM     20  C   UNL     1       7.689 -14.764  11.224  0.00  0.00    +0.000 A 
ATOM     21  C   UNL     1       9.980 -15.430  11.480  0.00  0.00    +0.000 A 
ATOM     22  C   UNL     1       8.690 -15.722  11.083  0.00  0.00    +0.000 A 
ENDROOT
BRANCH  16  23
ATOM     23  C   UNL     1       5.808  -6.968   8.675  0.00  0.00    +0.000 C 
ATOM     24  O   UNL     1       5.513  -7.728   7.762  0.00  0.00    +0.000 OA
ATOM     25  N   UNL     1       5.579  -5.631   8.573  0.00  0.00    +0.000 N 
ATOM     26  H   UNL     1       6.067  -4.983   9.182  0.00  0.00    +0.000 HD
ATOM     27  H   UNL     1       5.257  -5.290   7.677  0.00  0.00    +0.000 HD
ENDBRANCH  16  23
BRANCH   8  28
ATOM     28  N   UNL     1       8.524  -5.799  12.240  0.00  0.00    +0.000 NA
ATOM     29  C   UNL     1       9.864  -5.270  12.029  0.00  0.00    +0.000 C 
ATOM     30  C   UNL     1       7.574  -4.771  11.868  0.00  0.00    +0.000 C 
ENDBRANCH   8  28
BRANCH  12  31
ATOM     31  O   UNL     1       4.394  -8.347  10.758  0.00  0.00    +0.000 OA
ATOM     32  H   UNL     1       3.923  -7.485  10.826  0.00  0.00    +0.000 HD
ENDBRANCH  12  31
BRANCH   7  33
ATOM     33  O   UNL     1       5.652  -7.861  13.223  0.00  0.00    +0.000 OA
ATOM     34  H   UNL     1       6.196  -7.103  13.506  0.00  0.00    +0.000 HD
ENDBRANCH   7  33
BRANCH  15  35
ATOM     35  O   UNL     1       5.582 -12.942  11.928  0.00  0.00    +0.000 OA
ATOM     36  H   UNL     1       5.360 -13.236  11.019  0.00  0.00    +0.000 HD
ENDBRANCH  15  35
BRANCH   9  37
ATOM     37  O   UNL     1      10.802 -11.286  12.046  0.00  0.00    +0.000 OA
ATOM     38  H   UNL     1      10.660 -10.324  12.116  0.00  0.00    +0.000 HD
ENDBRANCH   9  37
BRANCH  20  39
ATOM     39  O   UNL     1       6.446 -15.102  10.763  0.00  0.00    +0.000 OA
ATOM     40  H   UNL     1       5.797 -15.009  11.481  0.00  0.00    +0.000 HD
ENDBRANCH  20  39
TORSDOF 7
ENDMDL
MODEL 5
REMARK VINA RESULT:      -5.2     22.035     24.391
REMARK  Name = Chlortetracycline.pdbqt.pdb
REMARK  7 active torsions:
REMARK  status: ('A' for Active; 'I' for Inactive)
REMARK    1  A    between atoms: C_7  and  O_30
REMARK    2  A    between atoms: C_8  and  N_32
REMARK    3  A    between atoms: C_9  and  O_37
REMARK    4  A    between atoms: C_12  and  O_28
REMARK    5  A    between atoms: C_15  and  O_35
REMARK    6  A    between atoms: C_16  and  C_23
REMARK    7  A    between atoms: C_20  and  O_39
REMARK                            x       y       z     vdW  Elec       q    Type
REMARK                         _______ _______ _______ _____ _____    ______ ____
ROOT
ATOM      1 CL   UNL     1     -10.901 -15.401  -4.505  0.00  0.00    +0.000 Cl
ATOM      2  O   UNL     1     -11.126  -8.866  -0.199  0.00  0.00    +0.000 OA
ATOM      3  O   UNL     1      -5.955 -11.896   1.237  0.00  0.00    +0.000 OA
ATOM      4  C   UNL     1      -9.394 -11.777   1.367  0.00  0.00    +0.000 C 
ATOM      5  C   UNL     1     -10.271 -12.314  -1.064  0.00  0.00    +0.000 C 
ATOM      6  C   UNL     1      -9.748 -12.529   0.227  0.00  0.00    +0.000 C 
ATOM      7  C   UNL     1      -9.721 -10.309   1.224  0.00  0.00    +0.000 C 
ATOM      8  C   UNL     1      -8.166 -12.092   2.076  0.00  0.00    +0.000 C 
ATOM      9  C   UNL     1     -10.699 -13.355  -2.060  0.00  0.00    +0.000 C 
ATOM     10  C   UNL     1     -10.584 -10.919  -1.287  0.00  0.00    +0.000 C 
ATOM     11  C   UNL     1     -10.534  -9.951  -0.109  0.00  0.00    +0.000 C 
ATOM     12  C   UNL     1      -8.480  -9.411   1.255  0.00  0.00    +0.000 C 
ATOM     13  C   UNL     1     -10.851 -12.818  -3.475  0.00  0.00    +0.000 A 
ATOM     14  C   UNL     1      -6.983 -11.333   1.583  0.00  0.00    +0.000 C 
ATOM     15  C   UNL     1     -10.946 -10.487  -2.509  0.00  0.00    +0.000 C 
ATOM     16  C   UNL     1      -7.213  -9.866   1.395  0.00  0.00    +0.000 C 
ATOM     17  C   UNL     1     -10.939 -11.408  -3.687  0.00  0.00    +0.000 A 
ATOM     18  C   UNL     1     -12.006 -14.000  -1.555  0.00  0.00    +0.000 C 
ATOM     19  C   UNL     1     -10.917 -13.675  -4.599  0.00  0.00    +0.000 A 
ATOM     20  C   UNL     1     -11.014 -10.934  -5.016  0.00  0.00    +0.000 A 
ATOM     21  C   UNL     1     -11.026 -13.169  -5.892  0.00  0.00    +0.000 A 
ATOM     22  C   UNL     1     -11.059 -11.804  -6.102  0.00  0.00    +0.000 A 
ENDROOT
BRANCH  16  23
ATOM     23  C   UNL     1      -6.033  -8.958   1.473  0.00  0.00    +0.000 C 
ATOM     24  O   UNL     1      -5.701  -8.242   0.538  0.00  0.00    +0.000 OA
ATOM     25  N   UNL     1      -5.320  -8.970   2.631  0.00  0.00    +0.000 N 
ATOM     26  H   UNL     1      -5.414  -9.745   3.279  0.00  0.00    +0.000 HD
ATOM     27  H   UNL     1      -4.455  -8.446   2.640  0.00  0.00    +0.000 HD
ENDBRANCH  16  23
BRANCH   8  28
ATOM     28  N   UNL     1      -8.181 -12.561   3.436  0.00  0.00    +0.000 NA
ATOM     29  C   UNL     1      -9.513 -12.652   4.017  0.00  0.00    +0.000 C 
ATOM     30  C   UNL     1      -7.524 -13.839   3.622  0.00  0.00    +0.000 C 
ENDBRANCH   8  28
BRANCH  12  31
ATOM     31  O   UNL     1      -8.740  -8.038   1.205  0.00  0.00    +0.000 OA
ATOM     32  H   UNL     1      -9.704  -7.911   1.050  0.00  0.00    +0.000 HD
ENDBRANCH  12  31
BRANCH   7  33
ATOM     33  O   UNL     1     -10.483  -9.912   2.365  0.00  0.00    +0.000 OA
ATOM     34  H   UNL     1     -10.010 -10.208   3.164  0.00  0.00    +0.000 HD
ENDBRANCH   7  33
BRANCH  15  35
ATOM     35  O   UNL     1     -11.362  -9.195  -2.755  0.00  0.00    +0.000 OA
ATOM     36  H   UNL     1     -11.336  -9.006  -3.717  0.00  0.00    +0.000 HD
ENDBRANCH  15  35
BRANCH   9  37
ATOM     37  O   UNL     1      -9.711 -14.366  -2.017  0.00  0.00    +0.000 OA
ATOM     38  H   UNL     1      -9.093 -14.056  -2.704  0.00  0.00    +0.000 HD
ENDBRANCH   9  37
BRANCH  20  39
ATOM     39  O   UNL     1     -10.998  -9.596  -5.300  0.00  0.00    +0.000 OA
ATOM     40  H   UNL     1     -10.220  -9.185  -4.885  0.00  0.00    +0.000 HD
ENDBRANCH  20  39
TORSDOF 7
ENDMDL
MODEL 6
REMARK VINA RESULT:      -5.1     25.827     27.763
REMARK  Name = Chlortetracycline.pdbqt.pdb
REMARK  7 active torsions:
REMARK  status: ('A' for Active; 'I' for Inactive)
REMARK    1  A    between atoms: C_7  and  O_30
REMARK    2  A    between atoms: C_8  and  N_32
REMARK    3  A    between atoms: C_9  and  O_37
REMARK    4  A    between atoms: C_12  and  O_28
REMARK    5  A    between atoms: C_15  and  O_35
REMARK    6  A    between atoms: C_16  and  C_23
REMARK    7  A    between atoms: C_20  and  O_39
REMARK                            x       y       z     vdW  Elec       q    Type
REMARK                         _______ _______ _______ _____ _____    ______ ____
ROOT
ATOM      1 CL   UNL     1       0.293 -19.706  19.322  0.00  0.00    +0.000 Cl
ATOM      2  O   UNL     1      -6.484 -15.927  18.276  0.00  0.00    +0.000 OA
ATOM      3  O   UNL     1      -6.818 -18.955  23.634  0.00  0.00    +0.000 OA
ATOM      4  C   UNL     1      -6.691 -19.120  20.196  0.00  0.00    +0.000 C 
ATOM      5  C   UNL     1      -4.218 -18.526  19.492  0.00  0.00    +0.000 C 
ATOM      6  C   UNL     1      -5.309 -19.281  19.970  0.00  0.00    +0.000 C 
ATOM      7  C   UNL     1      -7.207 -17.776  19.740  0.00  0.00    +0.000 C 
ATOM      8  C   UNL     1      -7.282 -19.651  21.413  0.00  0.00    +0.000 C 
ATOM      9  C   UNL     1      -2.824 -19.013  19.213  0.00  0.00    +0.000 C 
ATOM     10  C   UNL     1      -4.631 -17.208  19.061  0.00  0.00    +0.000 C 
ATOM     11  C   UNL     1      -6.121 -16.892  18.963  0.00  0.00    +0.000 C 
ATOM     12  C   UNL     1      -7.752 -16.919  20.888  0.00  0.00    +0.000 C 
ATOM     13  C   UNL     1      -1.803 -17.893  19.079  0.00  0.00    +0.000 A 
ATOM     14  C   UNL     1      -7.293 -18.680  22.542  0.00  0.00    +0.000 C 
ATOM     15  C   UNL     1      -3.715 -16.283  18.719  0.00  0.00    +0.000 C 
ATOM     16  C   UNL     1      -7.777 -17.309  22.184  0.00  0.00    +0.000 C 
ATOM     17  C   UNL     1      -2.251 -16.553  18.869  0.00  0.00    +0.000 A 
ATOM     18  C   UNL     1      -2.864 -19.897  17.950  0.00  0.00    +0.000 C 
ATOM     19  C   UNL     1      -0.411 -18.136  19.148  0.00  0.00    +0.000 A 
ATOM     20  C   UNL     1      -1.285 -15.525  18.814  0.00  0.00    +0.000 A 
ATOM     21  C   UNL     1       0.512 -17.098  19.055  0.00  0.00    +0.000 A 
ATOM     22  C   UNL     1       0.078 -15.794  18.904  0.00  0.00    +0.000 A 
ENDROOT
BRANCH  16  23
ATOM     23  C   UNL     1      -8.362 -16.470  23.268  0.00  0.00    +0.000 C 
ATOM     24  O   UNL     1      -9.495 -16.013  23.197  0.00  0.00    +0.000 OA
ATOM     25  N   UNL     1      -7.572 -16.213  24.346  0.00  0.00    +0.000 N 
ATOM     26  H   UNL     1      -6.568 -16.343  24.283  0.00  0.00    +0.000 HD
ATOM     27  H   UNL     1      -7.924 -15.549  25.022  0.00  0.00    +0.000 HD
ENDBRANCH  16  23
BRANCH   8  28
ATOM     28  N   UNL     1      -8.270 -20.696  21.376  0.00  0.00    +0.000 NA
ATOM     29  C   UNL     1      -9.612 -20.255  21.729  0.00  0.00    +0.000 C 
ATOM     30  C   UNL     1      -8.345 -21.388  20.106  0.00  0.00    +0.000 C 
ENDBRANCH   8  28
BRANCH  12  31
ATOM     31  O   UNL     1      -8.311 -15.698  20.503  0.00  0.00    +0.000 OA
ATOM     32  H   UNL     1      -8.974 -15.433  21.182  0.00  0.00    +0.000 HD
ENDBRANCH  12  31
BRANCH   7  33
ATOM     33  O   UNL     1      -8.333 -17.998  18.890  0.00  0.00    +0.000 OA
ATOM     34  H   UNL     1      -8.349 -17.291  18.218  0.00  0.00    +0.000 HD
ENDBRANCH   7  33
BRANCH  15  35
ATOM     35  O   UNL     1      -4.050 -15.052  18.196  0.00  0.00    +0.000 OA
ATOM     36  H   UNL     1      -4.874 -14.718  18.610  0.00  0.00    +0.000 HD
ENDBRANCH  15  35
BRANCH   9  37
ATOM     37  O   UNL     1      -2.486 -19.866  20.288  0.00  0.00    +0.000 OA
ATOM     38  H   UNL     1      -2.037 -20.593  19.819  0.00  0.00    +0.000 HD
ENDBRANCH   9  37
BRANCH  20  39
ATOM     39  O   UNL     1      -1.645 -14.208  18.718  0.00  0.00    +0.000 OA
ATOM     40  H   UNL     1      -0.896 -13.691  18.374  0.00  0.00    +0.000 HD
ENDBRANCH  20  39
TORSDOF 7
ENDMDL
MODEL 7
REMARK VINA RESULT:      -5.0     26.738     29.664
REMARK  Name = Chlortetracycline.pdbqt.pdb
REMARK  7 active torsions:
REMARK  status: ('A' for Active; 'I' for Inactive)
REMARK    1  A    between atoms: C_7  and  O_30
REMARK    2  A    between atoms: C_8  and  N_32
REMARK    3  A    between atoms: C_9  and  O_37
REMARK    4  A    between atoms: C_12  and  O_28
REMARK    5  A    between atoms: C_15  and  O_35
REMARK    6  A    between atoms: C_16  and  C_23
REMARK    7  A    between atoms: C_20  and  O_39
REMARK                            x       y       z     vdW  Elec       q    Type
REMARK                         _______ _______ _______ _____ _____    ______ ____
ROOT
ATOM      1 CL   UNL     1       5.828 -11.215  11.901  0.00  0.00    +0.000 Cl
ATOM      2  O   UNL     1       4.144 -15.315  18.355  0.00  0.00    +0.000 OA
ATOM      3  O   UNL     1      -0.215 -11.013  17.661  0.00  0.00    +0.000 OA
ATOM      4  C   UNL     1       3.073 -11.741  18.384  0.00  0.00    +0.000 C 
ATOM      5  C   UNL     1       4.222 -12.430  16.110  0.00  0.00    +0.000 C 
ATOM      6  C   UNL     1       3.679 -11.607  17.117  0.00  0.00    +0.000 C 
ATOM      7  C   UNL     1       3.039 -13.170  18.869  0.00  0.00    +0.000 C 
ATOM      8  C   UNL     1       1.913 -10.929  18.709  0.00  0.00    +0.000 C 
ATOM      9  C   UNL     1       4.960 -11.995  14.875  0.00  0.00    +0.000 C 
ATOM     10  C   UNL     1       4.198 -13.826  16.492  0.00  0.00    +0.000 C 
ATOM     11  C   UNL     1       3.830 -14.196  17.926  0.00  0.00    +0.000 C 
ATOM     12  C   UNL     1       1.618 -13.715  19.040  0.00  0.00    +0.000 C 
ATOM     13  C   UNL     1       5.074 -13.084  13.819  0.00  0.00    +0.000 A 
ATOM     14  C   UNL     1       0.618 -11.574  18.358  0.00  0.00    +0.000 C 
ATOM     15  C   UNL     1       4.528 -14.783  15.605  0.00  0.00    +0.000 C 
ATOM     16  C   UNL     1       0.494 -13.004  18.787  0.00  0.00    +0.000 C 
ATOM     17  C   UNL     1       4.829 -14.444  14.180  0.00  0.00    +0.000 A 
ATOM     18  C   UNL     1       6.347 -11.470  15.300  0.00  0.00    +0.000 C 
ATOM     19  C   UNL     1       5.426 -12.794  12.479  0.00  0.00    +0.000 A 
ATOM     20  C   UNL     1       4.878 -15.425  13.165  0.00  0.00    +0.000 A 
ATOM     21  C   UNL     1       5.497 -13.796  11.515  0.00  0.00    +0.000 A 
ATOM     22  C   UNL     1       5.210 -15.105  11.851  0.00  0.00    +0.000 A 
ENDROOT
BRANCH  16  23
ATOM     23  C   UNL     1      -0.875 -13.549  19.013  0.00  0.00    +0.000 C 
ATOM     24  O   UNL     1      -1.215 -14.025  20.088  0.00  0.00    +0.000 OA
ATOM     25  N   UNL     1      -1.737 -13.512  17.961  0.00  0.00    +0.000 N 
ATOM     26  H   UNL     1      -1.384 -13.389  17.018  0.00  0.00    +0.000 HD
ATOM     27  H   UNL     1      -2.621 -13.988  18.079  0.00  0.00    +0.000 HD
ENDBRANCH  16  23
BRANCH   8  28
ATOM     28  N   UNL     1       1.948  -9.956  19.768  0.00  0.00    +0.000 NA
ATOM     29  C   UNL     1       1.020 -10.230  20.856  0.00  0.00    +0.000 C 
ATOM     30  C   UNL     1       3.264  -9.760  20.342  0.00  0.00    +0.000 C 
ENDBRANCH   8  28
BRANCH  12  31
ATOM     31  O   UNL     1       1.536 -15.009  19.561  0.00  0.00    +0.000 OA
ATOM     32  H   UNL     1       2.451 -15.337  19.719  0.00  0.00    +0.000 HD
ENDBRANCH  12  31
BRANCH   7  33
ATOM     33  O   UNL     1       3.600 -13.207  20.182  0.00  0.00    +0.000 OA
ATOM     34  H   UNL     1       2.867 -13.262  20.823  0.00  0.00    +0.000 HD
ENDBRANCH   7  33
BRANCH  15  35
ATOM     35  O   UNL     1       4.631 -16.116  15.943  0.00  0.00    +0.000 OA
ATOM     36  H   UNL     1       3.951 -16.353  16.608  0.00  0.00    +0.000 HD
ENDBRANCH  15  35
BRANCH   9  37
ATOM     37  O   UNL     1       4.249 -10.884  14.367  0.00  0.00    +0.000 OA
ATOM     38  H   UNL     1       4.128 -11.146  13.436  0.00  0.00    +0.000 HD
ENDBRANCH   9  37
BRANCH  20  39
ATOM     39  O   UNL     1       4.555 -16.731  13.416  0.00  0.00    +0.000 OA
ATOM     40  H   UNL     1       3.587 -16.823  13.461  0.00  0.00    +0.000 HD
ENDBRANCH  20  39
TORSDOF 7
ENDMDL
MODEL 8
REMARK VINA RESULT:      -4.7     28.717     30.812
REMARK  Name = Chlortetracycline.pdbqt.pdb
REMARK  7 active torsions:
REMARK  status: ('A' for Active; 'I' for Inactive)
REMARK    1  A    between atoms: C_7  and  O_30
REMARK    2  A    between atoms: C_8  and  N_32
REMARK    3  A    between atoms: C_9  and  O_37
REMARK    4  A    between atoms: C_12  and  O_28
REMARK    5  A    between atoms: C_15  and  O_35
REMARK    6  A    between atoms: C_16  and  C_23
REMARK    7  A    between atoms: C_20  and  O_39
REMARK                            x       y       z     vdW  Elec       q    Type
REMARK                         _______ _______ _______ _____ _____    ______ ____
ROOT
ATOM      1 CL   UNL     1       8.960 -13.648  11.549  0.00  0.00    +0.000 Cl
ATOM      2  O   UNL     1       2.127 -11.693  14.835  0.00  0.00    +0.000 OA
ATOM      3  O   UNL     1       6.246 -12.455  19.356  0.00  0.00    +0.000 OA
ATOM      4  C   UNL     1       4.335 -13.899  16.882  0.00  0.00    +0.000 C 
ATOM      5  C   UNL     1       5.434 -13.231  14.577  0.00  0.00    +0.000 C 
ATOM      6  C   UNL     1       5.236 -13.910  15.796  0.00  0.00    +0.000 C 
ATOM      7  C   UNL     1       3.191 -12.932  16.683  0.00  0.00    +0.000 C 
ATOM      8  C   UNL     1       4.848 -14.012  18.236  0.00  0.00    +0.000 C 
ATOM      9  C   UNL     1       6.434 -13.558  13.503  0.00  0.00    +0.000 C 
ATOM     10  C   UNL     1       4.388 -12.262  14.330  0.00  0.00    +0.000 C 
ATOM     11  C   UNL     1       3.159 -12.251  15.234  0.00  0.00    +0.000 C 
ATOM     12  C   UNL     1       3.174 -11.801  17.717  0.00  0.00    +0.000 C 
ATOM     13  C   UNL     1       6.653 -12.426  12.511  0.00  0.00    +0.000 A 
ATOM     14  C   UNL     1       5.152 -12.698  18.868  0.00  0.00    +0.000 C 
ATOM     15  C   UNL     1       4.482 -11.404  13.297  0.00  0.00    +0.000 C 
ATOM     16  C   UNL     1       4.080 -11.664  18.713  0.00  0.00    +0.000 C 
ATOM     17  C   UNL     1       5.707 -11.358  12.440  0.00  0.00    +0.000 A 
ATOM     18  C   UNL     1       5.980 -14.851  12.797  0.00  0.00    +0.000 C 
ATOM     19  C   UNL     1       7.769 -12.398  11.641  0.00  0.00    +0.000 A 
ATOM     20  C   UNL     1       5.969 -10.289  11.556  0.00  0.00    +0.000 A 
ATOM     21  C   UNL     1       7.974 -11.341  10.758  0.00  0.00    +0.000 A 
ATOM     22  C   UNL     1       7.087 -10.282  10.725  0.00  0.00    +0.000 A 
ENDROOT
BRANCH  16  23
ATOM     23  C   UNL     1       4.003 -10.580  19.733  0.00  0.00    +0.000 C 
ATOM     24  O   UNL     1       3.008 -10.409  20.425  0.00  0.00    +0.000 OA
ATOM     25  N   UNL     1       5.086  -9.767  19.854  0.00  0.00    +0.000 N 
ATOM     26  H   UNL     1       5.775  -9.723  19.111  0.00  0.00    +0.000 HD
ATOM     27  H   UNL     1       4.988  -8.962  20.458  0.00  0.00    +0.000 HD
ENDBRANCH  16  23
BRANCH   8  28
ATOM     28  N   UNL     1       4.521 -15.135  19.074  0.00  0.00    +0.000 NA
ATOM     29  C   UNL     1       3.746 -16.169  18.404  0.00  0.00    +0.000 C 
ATOM     30  C   UNL     1       5.674 -15.765  19.684  0.00  0.00    +0.000 C 
ENDBRANCH   8  28
BRANCH  12  31
ATOM     31  O   UNL     1       2.088 -10.926  17.621  0.00  0.00    +0.000 OA
ATOM     32  H   UNL     1       2.073 -10.362  18.427  0.00  0.00    +0.000 HD
ENDBRANCH  12  31
BRANCH   7  33
ATOM     33  O   UNL     1       1.970 -13.639  16.901  0.00  0.00    +0.000 OA
ATOM     34  H   UNL     1       1.246 -12.987  16.948  0.00  0.00    +0.000 HD
ENDBRANCH   7  33
BRANCH  15  35
ATOM     35  O   UNL     1       3.468 -10.538  12.947  0.00  0.00    +0.000 OA
ATOM     36  H   UNL     1       2.694 -11.036  12.610  0.00  0.00    +0.000 HD
ENDBRANCH  15  35
BRANCH   9  37
ATOM     37  O   UNL     1       7.639 -13.870  14.174  0.00  0.00    +0.000 OA
ATOM     38  H   UNL     1       7.979 -12.979  14.377  0.00  0.00    +0.000 HD
ENDBRANCH   9  37
BRANCH  20  39
ATOM     39  O   UNL     1       5.162  -9.185  11.508  0.00  0.00    +0.000 OA
ATOM     40  H   UNL     1       4.964  -8.888  12.413  0.00  0.00    +0.000 HD
ENDBRANCH  20  39
TORSDOF 7
ENDMDL
MODEL 9
REMARK VINA RESULT:      -4.3     20.185     22.460
REMARK  Name = Chlortetracycline.pdbqt.pdb
REMARK  7 active torsions:
REMARK  status: ('A' for Active; 'I' for Inactive)
REMARK    1  A    between atoms: C_7  and  O_30
REMARK    2  A    between atoms: C_8  and  N_32
REMARK    3  A    between atoms: C_9  and  O_37
REMARK    4  A    between atoms: C_12  and  O_28
REMARK    5  A    between atoms: C_15  and  O_35
REMARK    6  A    between atoms: C_16  and  C_23
REMARK    7  A    between atoms: C_20  and  O_39
REMARK                            x       y       z     vdW  Elec       q    Type
REMARK                         _______ _______ _______ _____ _____    ______ ____
ROOT
ATOM      1 CL   UNL     1      -8.931  -5.513  35.630  0.00  0.00    +0.000 Cl
ATOM      2  O   UNL     1     -12.387  -4.290  28.711  0.00  0.00    +0.000 OA
ATOM      3  O   UNL     1      -8.908  -9.353  28.215  0.00  0.00    +0.000 OA
ATOM      4  C   UNL     1      -9.038  -5.931  28.580  0.00  0.00    +0.000 C 
ATOM      5  C   UNL     1      -9.830  -5.455  31.051  0.00  0.00    +0.000 C 
ATOM      6  C   UNL     1      -8.977  -5.792  29.982  0.00  0.00    +0.000 C 
ATOM      7  C   UNL     1     -10.384  -5.548  28.011  0.00  0.00    +0.000 C 
ATOM      8  C   UNL     1      -8.374  -7.056  27.945  0.00  0.00    +0.000 C 
ATOM      9  C   UNL     1      -9.450  -5.237  32.489  0.00  0.00    +0.000 C 
ATOM     10  C   UNL     1     -11.154  -5.101  30.586  0.00  0.00    +0.000 C 
ATOM     11  C   UNL     1     -11.391  -4.922  29.089  0.00  0.00    +0.000 C 
ATOM     12  C   UNL     1     -11.109  -6.718  27.339  0.00  0.00    +0.000 C 
ATOM     13  C   UNL     1     -10.634  -5.267  33.444  0.00  0.00    +0.000 A 
ATOM     14  C   UNL     1      -9.245  -8.255  27.797  0.00  0.00    +0.000 C 
ATOM     15  C   UNL     1     -12.156  -4.900  31.462  0.00  0.00    +0.000 C 
ATOM     16  C   UNL     1     -10.612  -7.974  27.252  0.00  0.00    +0.000 C 
ATOM     17  C   UNL     1     -11.959  -5.132  32.927  0.00  0.00    +0.000 A 
ATOM     18  C   UNL     1      -8.674  -3.908  32.589  0.00  0.00    +0.000 C 
ATOM     19  C   UNL     1     -10.467  -5.415  34.841  0.00  0.00    +0.000 A 
ATOM     20  C   UNL     1     -13.042  -5.228  33.828  0.00  0.00    +0.000 A 
ATOM     21  C   UNL     1     -11.561  -5.471  35.701  0.00  0.00    +0.000 A 
ATOM     22  C   UNL     1     -12.845  -5.393  35.196  0.00  0.00    +0.000 A 
ENDROOT
BRANCH  16  23
ATOM     23  C   UNL     1     -11.322  -9.077  26.545  0.00  0.00    +0.000 C 
ATOM     24  O   UNL     1     -12.500  -9.332  26.757  0.00  0.00    +0.000 OA
ATOM     25  N   UNL     1     -10.597  -9.809  25.657  0.00  0.00    +0.000 N 
ATOM     26  H   UNL     1      -9.583  -9.790  25.688  0.00  0.00    +0.000 HD
ATOM     27  H   UNL     1     -11.044 -10.628  25.268  0.00  0.00    +0.000 HD
ENDBRANCH  16  23
BRANCH   8  28
ATOM     28  N   UNL     1      -7.281  -6.866  27.029  0.00  0.00    +0.000 NA
ATOM     29  C   UNL     1      -7.683  -6.801  25.631  0.00  0.00    +0.000 C 
ATOM     30  C   UNL     1      -6.470  -5.701  27.317  0.00  0.00    +0.000 C 
ENDBRANCH   8  28
BRANCH  12  31
ATOM     31  O   UNL     1     -12.324  -6.392  26.730  0.00  0.00    +0.000 OA
ATOM     32  H   UNL     1     -12.982  -7.087  26.962  0.00  0.00    +0.000 HD
ENDBRANCH  12  31
BRANCH   7  33
ATOM     33  O   UNL     1     -10.170  -4.604  26.961  0.00  0.00    +0.000 OA
ATOM     34  H   UNL     1     -10.547  -3.749  27.239  0.00  0.00    +0.000 HD
ENDBRANCH   7  33
BRANCH  15  35
ATOM     35  O   UNL     1     -13.405  -4.454  31.085  0.00  0.00    +0.000 OA
ATOM     36  H   UNL     1     -13.325  -3.693  30.472  0.00  0.00    +0.000 HD
ENDBRANCH  15  35
BRANCH   9  37
ATOM     37  O   UNL     1      -8.530  -6.263  32.808  0.00  0.00    +0.000 OA
ATOM     38  H   UNL     1      -7.912  -6.204  32.057  0.00  0.00    +0.000 HD
ENDBRANCH   9  37
BRANCH  20  39
ATOM     39  O   UNL     1     -14.339  -5.211  33.392  0.00  0.00    +0.000 OA
ATOM     40  H   UNL     1     -14.452  -4.501  32.738  0.00  0.00    +0.000 HD
ENDBRANCH  20  39
TORSDOF 7
ENDMDL
