MODEL 1
REMARK VINA RESULT:      -4.5      0.000      0.000
REMARK  Name = Ciclopirox.pdbqt.pdb
REMARK  2 active torsions:
REMARK  status: ('A' for Active; 'I' for Inactive)
REMARK    1  A    between atoms: N_2  and  O_15
REMARK    2  A    between atoms: C_3  and  C_9
REMARK                            x       y       z     vdW  Elec       q    Type
REMARK                         _______ _______ _______ _____ _____    ______ ____
ROOT
ATOM      1  O   UNL     1      -9.882 -15.699   8.766  0.00  0.00    +0.000 OA
ATOM      2  N   UNL     1     -11.421 -15.743  10.531  0.00  0.00    +0.000 N 
ATOM      3  C   UNL     1     -12.761 -15.803  10.939  0.00  0.00    +0.000 C 
ATOM      4  C   UNL     1     -13.570 -15.814   9.910  0.00  0.00    +0.000 C 
ATOM      5  C   UNL     1     -13.460 -15.762   8.489  0.00  0.00    +0.000 C 
ATOM      6  C   UNL     1     -11.033 -15.706   9.179  0.00  0.00    +0.000 C 
ATOM      7  C   UNL     1     -12.176 -15.711   8.296  0.00  0.00    +0.000 C 
ATOM      8  C   UNL     1     -14.396 -14.918   7.689  0.00  0.00    +0.000 C 
ENDROOT
BRANCH   3   9
ATOM      9  C   UNL     1     -13.203 -15.862  12.302  0.00  0.00    +0.000 A 
ATOM     10  C   UNL     1     -12.909 -16.957  13.198  0.00  0.00    +0.000 A 
ATOM     11  C   UNL     1     -13.499 -17.307  14.583  0.00  0.00    +0.000 A 
ATOM     12  C   UNL     1     -14.577 -16.350  15.124  0.00  0.00    +0.000 A 
ATOM     13  C   UNL     1     -14.961 -15.147  14.242  0.00  0.00    +0.000 A 
ATOM     14  C   UNL     1     -14.216 -15.025  12.894  0.00  0.00    +0.000 A 
ENDBRANCH   3   9
BRANCH   2  15
ATOM     15  O   UNL     1     -10.406 -15.814  11.504  0.00  0.00    +0.000 OA
ATOM     16  H   UNL     1     -10.702 -15.158  12.168  0.00  0.00    +0.000 HD
ENDBRANCH   2  15
TORSDOF 2
ENDMDL
MODEL 2
REMARK VINA RESULT:      -4.4     18.413     19.438
REMARK  Name = Ciclopirox.pdbqt.pdb
REMARK  2 active torsions:
REMARK  status: ('A' for Active; 'I' for Inactive)
REMARK    1  A    between atoms: N_2  and  O_15
REMARK    2  A    between atoms: C_3  and  C_9
REMARK                            x       y       z     vdW  Elec       q    Type
REMARK                         _______ _______ _______ _____ _____    ______ ____
ROOT
ATOM      1  O   UNL     1      -3.992  -8.811  -4.426  0.00  0.00    +0.000 OA
ATOM      2  N   UNL     1      -4.101  -6.868  -3.122  0.00  0.00    +0.000 N 
ATOM      3  C   UNL     1      -3.451  -5.982  -2.252  0.00  0.00    +0.000 C 
ATOM      4  C   UNL     1      -2.234  -6.386  -1.987  0.00  0.00    +0.000 C 
ATOM      5  C   UNL     1      -1.398  -7.489  -2.327  0.00  0.00    +0.000 C 
ATOM      6  C   UNL     1      -3.491  -8.029  -3.631  0.00  0.00    +0.000 C 
ATOM      7  C   UNL     1      -2.148  -8.190  -3.123  0.00  0.00    +0.000 C 
ATOM      8  C   UNL     1      -0.550  -8.143  -1.288  0.00  0.00    +0.000 C 
ENDROOT
BRANCH   3   9
ATOM      9  C   UNL     1      -4.025  -4.778  -1.725  0.00  0.00    +0.000 A 
ATOM     10  C   UNL     1      -3.591  -3.450  -2.091  0.00  0.00    +0.000 A 
ATOM     11  C   UNL     1      -3.907  -2.078  -1.454  0.00  0.00    +0.000 A 
ATOM     12  C   UNL     1      -4.837  -2.098  -0.226  0.00  0.00    +0.000 A 
ATOM     13  C   UNL     1      -5.357  -3.468   0.244  0.00  0.00    +0.000 A 
ATOM     14  C   UNL     1      -4.888  -4.693  -0.573  0.00  0.00    +0.000 A 
ENDBRANCH   3   9
BRANCH   2  15
ATOM     15  O   UNL     1      -5.390  -6.546  -3.589  0.00  0.00    +0.000 OA
ATOM     16  H   UNL     1      -5.652  -5.810  -2.998  0.00  0.00    +0.000 HD
ENDBRANCH   2  15
TORSDOF 2
ENDMDL
MODEL 3
REMARK VINA RESULT:      -4.4     26.707     28.115
REMARK  Name = Ciclopirox.pdbqt.pdb
REMARK  2 active torsions:
REMARK  status: ('A' for Active; 'I' for Inactive)
REMARK    1  A    between atoms: N_2  and  O_15
REMARK    2  A    between atoms: C_3  and  C_9
REMARK                            x       y       z     vdW  Elec       q    Type
REMARK                         _______ _______ _______ _____ _____    ______ ____
ROOT
ATOM      1  O   UNL     1      -7.209  10.710  -2.851  0.00  0.00    +0.000 OA
ATOM      2  N   UNL     1      -6.565   9.719  -0.829  0.00  0.00    +0.000 N 
ATOM      3  C   UNL     1      -5.654   8.905  -0.141  0.00  0.00    +0.000 C 
ATOM      4  C   UNL     1      -4.737   8.432  -0.947  0.00  0.00    +0.000 C 
ATOM      5  C   UNL     1      -4.426   8.503  -2.336  0.00  0.00    +0.000 C 
ATOM      6  C   UNL     1      -6.472   9.976  -2.209  0.00  0.00    +0.000 C 
ATOM      7  C   UNL     1      -5.354   9.282  -2.806  0.00  0.00    +0.000 C 
ATOM      8  C   UNL     1      -3.994   7.282  -3.078  0.00  0.00    +0.000 C 
ENDROOT
BRANCH   3   9
ATOM      9  C   UNL     1      -5.697   8.631   1.266  0.00  0.00    +0.000 A 
ATOM     10  C   UNL     1      -6.412   7.520   1.849  0.00  0.00    +0.000 A 
ATOM     11  C   UNL     1      -6.774   7.220   3.322  0.00  0.00    +0.000 A 
ATOM     12  C   UNL     1      -6.309   8.258   4.361  0.00  0.00    +0.000 A 
ATOM     13  C   UNL     1      -5.535   9.482   3.839  0.00  0.00    +0.000 A 
ATOM     14  C   UNL     1      -5.303   9.542   2.312  0.00  0.00    +0.000 A 
ENDBRANCH   3   9
BRANCH   2  15
ATOM     15  O   UNL     1      -7.569  10.387  -0.103  0.00  0.00    +0.000 OA
ATOM     16  H   UNL     1      -7.052  11.005   0.455  0.00  0.00    +0.000 HD
ENDBRANCH   2  15
TORSDOF 2
ENDMDL
MODEL 4
REMARK VINA RESULT:      -4.2     18.279     20.324
REMARK  Name = Ciclopirox.pdbqt.pdb
REMARK  2 active torsions:
REMARK  status: ('A' for Active; 'I' for Inactive)
REMARK    1  A    between atoms: N_2  and  O_15
REMARK    2  A    between atoms: C_3  and  C_9
REMARK                            x       y       z     vdW  Elec       q    Type
REMARK                         _______ _______ _______ _____ _____    ______ ____
ROOT
ATOM      1  O   UNL     1       0.747  -7.647  -2.256  0.00  0.00    +0.000 OA
ATOM      2  N   UNL     1      -0.982  -6.069  -2.303  0.00  0.00    +0.000 N 
ATOM      3  C   UNL     1      -2.344  -5.791  -2.124  0.00  0.00    +0.000 C 
ATOM      4  C   UNL     1      -3.012  -6.875  -1.815  0.00  0.00    +0.000 C 
ATOM      5  C   UNL     1      -2.733  -8.260  -1.631  0.00  0.00    +0.000 C 
ATOM      6  C   UNL     1      -0.436  -7.357  -2.157  0.00  0.00    +0.000 C 
ATOM      7  C   UNL     1      -1.451  -8.331  -1.831  0.00  0.00    +0.000 C 
ATOM      8  C   UNL     1      -3.659  -9.297  -2.176  0.00  0.00    +0.000 C 
ENDROOT
BRANCH   3   9
ATOM      9  C   UNL     1      -2.941  -4.493  -2.244  0.00  0.00    +0.000 A 
ATOM     10  C   UNL     1      -3.180  -3.828  -3.504  0.00  0.00    +0.000 A 
ATOM     11  C   UNL     1      -3.566  -2.363  -3.809  0.00  0.00    +0.000 A 
ATOM     12  C   UNL     1      -3.733  -1.436  -2.590  0.00  0.00    +0.000 A 
ATOM     13  C   UNL     1      -3.503  -2.052  -1.198  0.00  0.00    +0.000 A 
ATOM     14  C   UNL     1      -3.124  -3.550  -1.169  0.00  0.00    +0.000 A 
ENDBRANCH   3   9
BRANCH   2  15
ATOM     15  O   UNL     1      -0.095  -5.004  -2.552  0.00  0.00    +0.000 OA
ATOM     16  H   UNL     1      -0.337  -4.358  -1.857  0.00  0.00    +0.000 HD
ENDBRANCH   2  15
TORSDOF 2
ENDMDL
MODEL 5
REMARK VINA RESULT:      -4.2     15.870     18.012
REMARK  Name = Ciclopirox.pdbqt.pdb
REMARK  2 active torsions:
REMARK  status: ('A' for Active; 'I' for Inactive)
REMARK    1  A    between atoms: N_2  and  O_15
REMARK    2  A    between atoms: C_3  and  C_9
REMARK                            x       y       z     vdW  Elec       q    Type
REMARK                         _______ _______ _______ _____ _____    ______ ____
ROOT
ATOM      1  O   UNL     1      -1.890  -5.858  -3.886  0.00  0.00    +0.000 OA
ATOM      2  N   UNL     1      -3.444  -6.060  -2.146  0.00  0.00    +0.000 N 
ATOM      3  C   UNL     1      -4.765  -5.894  -1.705  0.00  0.00    +0.000 C 
ATOM      4  C   UNL     1      -5.512  -5.362  -2.639  0.00  0.00    +0.000 C 
ATOM      5  C   UNL     1      -5.344  -4.888  -3.973  0.00  0.00    +0.000 C 
ATOM      6  C   UNL     1      -3.014  -5.695  -3.434  0.00  0.00    +0.000 C 
ATOM      7  C   UNL     1      -4.087  -5.117  -4.210  0.00  0.00    +0.000 C 
ATOM      8  C   UNL     1      -5.995  -3.619  -4.412  0.00  0.00    +0.000 C 
ENDROOT
BRANCH   3   9
ATOM      9  C   UNL     1      -5.252  -6.269  -0.410  0.00  0.00    +0.000 A 
ATOM     10  C   UNL     1      -5.093  -5.460   0.776  0.00  0.00    +0.000 A 
ATOM     11  C   UNL     1      -5.320  -5.806   2.266  0.00  0.00    +0.000 A 
ATOM     12  C   UNL     1      -5.794  -7.240   2.566  0.00  0.00    +0.000 A 
ATOM     13  C   UNL     1      -5.996  -8.183   1.365  0.00  0.00    +0.000 A 
ATOM     14  C   UNL     1      -5.699  -7.586  -0.029  0.00  0.00    +0.000 A 
ENDBRANCH   3   9
BRANCH   2  15
ATOM     15  O   UNL     1      -2.518  -6.703  -1.302  0.00  0.00    +0.000 OA
ATOM     16  H   UNL     1      -3.045  -7.439  -0.930  0.00  0.00    +0.000 HD
ENDBRANCH   2  15
TORSDOF 2
ENDMDL
MODEL 6
REMARK VINA RESULT:      -4.1     10.625     12.863
REMARK  Name = Ciclopirox.pdbqt.pdb
REMARK  2 active torsions:
REMARK  status: ('A' for Active; 'I' for Inactive)
REMARK    1  A    between atoms: N_2  and  O_15
REMARK    2  A    between atoms: C_3  and  C_9
REMARK                            x       y       z     vdW  Elec       q    Type
REMARK                         _______ _______ _______ _____ _____    ______ ____
ROOT
ATOM      1  O   UNL     1      -7.283 -16.519  25.290  0.00  0.00    +0.000 OA
ATOM      2  N   UNL     1      -6.895 -16.536  22.981  0.00  0.00    +0.000 N 
ATOM      3  C   UNL     1      -7.414 -16.700  21.688  0.00  0.00    +0.000 C 
ATOM      4  C   UNL     1      -8.684 -17.017  21.724  0.00  0.00    +0.000 C 
ATOM      5  C   UNL     1      -9.676 -17.259  22.719  0.00  0.00    +0.000 C 
ATOM      6  C   UNL     1      -7.671 -16.694  24.143  0.00  0.00    +0.000 C 
ATOM      7  C   UNL     1      -9.031 -17.065  23.830  0.00  0.00    +0.000 C 
ATOM      8  C   UNL     1     -10.635 -18.393  22.570  0.00  0.00    +0.000 C 
ENDROOT
BRANCH   3   9
ATOM      9  C   UNL     1      -6.668 -16.530  20.476  0.00  0.00    +0.000 A 
ATOM     10  C   UNL     1      -7.231 -16.017  19.248  0.00  0.00    +0.000 A 
ATOM     11  C   UNL     1      -6.663 -16.004  17.810  0.00  0.00    +0.000 A 
ATOM     12  C   UNL     1      -5.270 -16.633  17.625  0.00  0.00    +0.000 A 
ATOM     13  C   UNL     1      -4.582 -17.209  18.877  0.00  0.00    +0.000 A 
ATOM     14  C   UNL     1      -5.370 -17.093  20.201  0.00  0.00    +0.000 A 
ENDBRANCH   3   9
BRANCH   2  15
ATOM     15  O   UNL     1      -5.563 -16.105  23.133  0.00  0.00    +0.000 OA
ATOM     16  H   UNL     1      -5.256 -16.630  23.900  0.00  0.00    +0.000 HD
ENDBRANCH   2  15
TORSDOF 2
ENDMDL
MODEL 7
REMARK VINA RESULT:      -4.1     22.374     23.331
REMARK  Name = Ciclopirox.pdbqt.pdb
REMARK  2 active torsions:
REMARK  status: ('A' for Active; 'I' for Inactive)
REMARK    1  A    between atoms: N_2  and  O_15
REMARK    2  A    between atoms: C_3  and  C_9
REMARK                            x       y       z     vdW  Elec       q    Type
REMARK                         _______ _______ _______ _____ _____    ______ ____
ROOT
ATOM      1  O   UNL     1     -13.659   6.985   5.192  0.00  0.00    +0.000 OA
ATOM      2  N   UNL     1     -11.386   6.631   5.634  0.00  0.00    +0.000 N 
ATOM      3  C   UNL     1     -10.096   6.413   5.131  0.00  0.00    +0.000 C 
ATOM      4  C   UNL     1     -10.105   6.334   3.823  0.00  0.00    +0.000 C 
ATOM      5  C   UNL     1     -11.071   6.390   2.777  0.00  0.00    +0.000 C 
ATOM      6  C   UNL     1     -12.521   6.750   4.811  0.00  0.00    +0.000 C 
ATOM      7  C   UNL     1     -12.184   6.594   3.415  0.00  0.00    +0.000 C 
ATOM      8  C   UNL     1     -11.001   5.436   1.631  0.00  0.00    +0.000 C 
ENDROOT
BRANCH   3   9
ATOM      9  C   UNL     1      -8.910   6.305   5.928  0.00  0.00    +0.000 A 
ATOM     10  C   UNL     1      -8.068   5.132   5.966  0.00  0.00    +0.000 A 
ATOM     11  C   UNL     1      -6.924   4.746   6.932  0.00  0.00    +0.000 A 
ATOM     12  C   UNL     1      -6.606   5.761   8.047  0.00  0.00    +0.000 A 
ATOM     13  C   UNL     1      -7.449   7.049   8.091  0.00  0.00    +0.000 A 
ATOM     14  C   UNL     1      -8.536   7.190   7.003  0.00  0.00    +0.000 A 
ENDBRANCH   3   9
BRANCH   2  15
ATOM     15  O   UNL     1     -11.555   6.832   7.018  0.00  0.00    +0.000 OA
ATOM     16  H   UNL     1     -10.795   6.345   7.398  0.00  0.00    +0.000 HD
ENDBRANCH   2  15
TORSDOF 2
ENDMDL
MODEL 8
REMARK VINA RESULT:      -4.0     19.541     20.411
REMARK  Name = Ciclopirox.pdbqt.pdb
REMARK  2 active torsions:
REMARK  status: ('A' for Active; 'I' for Inactive)
REMARK    1  A    between atoms: N_2  and  O_15
REMARK    2  A    between atoms: C_3  and  C_9
REMARK                            x       y       z     vdW  Elec       q    Type
REMARK                         _______ _______ _______ _____ _____    ______ ____
ROOT
ATOM      1  O   UNL     1       0.062  -5.282  -4.813  0.00  0.00    +0.000 OA
ATOM      2  N   UNL     1      -1.800  -4.620  -3.556  0.00  0.00    +0.000 N 
ATOM      3  C   UNL     1      -2.665  -4.881  -2.484  0.00  0.00    +0.000 C 
ATOM      4  C   UNL     1      -2.363  -6.011  -1.895  0.00  0.00    +0.000 C 
ATOM      5  C   UNL     1      -1.406  -7.055  -2.058  0.00  0.00    +0.000 C 
ATOM      6  C   UNL     1      -0.749  -5.481  -3.919  0.00  0.00    +0.000 C 
ATOM      7  C   UNL     1      -0.703  -6.652  -3.074  0.00  0.00    +0.000 C 
ATOM      8  C   UNL     1      -1.814  -8.484  -1.919  0.00  0.00    +0.000 C 
ENDROOT
BRANCH   3   9
ATOM      9  C   UNL     1      -3.736  -4.025  -2.065  0.00  0.00    +0.000 A 
ATOM     10  C   UNL     1      -3.628  -3.064  -0.991  0.00  0.00    +0.000 A 
ATOM     11  C   UNL     1      -4.719  -2.259  -0.250  0.00  0.00    +0.000 A 
ATOM     12  C   UNL     1      -6.169  -2.496  -0.710  0.00  0.00    +0.000 A 
ATOM     13  C   UNL     1      -6.391  -3.503  -1.853  0.00  0.00    +0.000 A 
ATOM     14  C   UNL     1      -5.124  -4.176  -2.425  0.00  0.00    +0.000 A 
ENDBRANCH   3   9
BRANCH   2  15
ATOM     15  O   UNL     1      -1.921  -3.401  -4.250  0.00  0.00    +0.000 OA
ATOM     16  H   UNL     1      -1.245  -3.489  -4.953  0.00  0.00    +0.000 HD
ENDBRANCH   2  15
TORSDOF 2
ENDMDL
MODEL 9
REMARK VINA RESULT:      -3.9     19.561     21.639
REMARK  Name = Ciclopirox.pdbqt.pdb
REMARK  2 active torsions:
REMARK  status: ('A' for Active; 'I' for Inactive)
REMARK    1  A    between atoms: N_2  and  O_15
REMARK    2  A    between atoms: C_3  and  C_9
REMARK                            x       y       z     vdW  Elec       q    Type
REMARK                         _______ _______ _______ _____ _____    ______ ____
ROOT
ATOM      1  O   UNL     1      -5.222  -2.228  -6.844  0.00  0.00    +0.000 OA
ATOM      2  N   UNL     1      -4.798  -2.549  -4.563  0.00  0.00    +0.000 N 
ATOM      3  C   UNL     1      -3.925  -2.375  -3.480  0.00  0.00    +0.000 C 
ATOM      4  C   UNL     1      -2.810  -1.800  -3.857  0.00  0.00    +0.000 C 
ATOM      5  C   UNL     1      -2.236  -1.323  -5.071  0.00  0.00    +0.000 C 
ATOM      6  C   UNL     1      -4.484  -2.142  -5.873  0.00  0.00    +0.000 C 
ATOM      7  C   UNL     1      -3.165  -1.560  -5.948  0.00  0.00    +0.000 C 
ATOM      8  C   UNL     1      -0.798  -1.579  -5.379  0.00  0.00    +0.000 C 
ENDROOT
BRANCH   3   9
ATOM      9  C   UNL     1      -4.209  -2.755  -2.127  0.00  0.00    +0.000 A 
ATOM     10  C   UNL     1      -4.130  -4.112  -1.637  0.00  0.00    +0.000 A 
ATOM     11  C   UNL     1      -4.632  -4.733  -0.314  0.00  0.00    +0.000 A 
ATOM     12  C   UNL     1      -5.335  -3.772   0.664  0.00  0.00    +0.000 A 
ATOM     13  C   UNL     1      -5.468  -2.300   0.234  0.00  0.00    +0.000 A 
ATOM     14  C   UNL     1      -4.877  -1.936  -1.146  0.00  0.00    +0.000 A 
ENDBRANCH   3   9
BRANCH   2  15
ATOM     15  O   UNL     1      -6.084  -3.071  -4.328  0.00  0.00    +0.000 OA
ATOM     16  H   UNL     1      -6.107  -3.854  -4.915  0.00  0.00    +0.000 HD
ENDBRANCH   2  15
TORSDOF 2
ENDMDL
