MODEL 1
REMARK VINA RESULT:      -4.9      0.000      0.000
REMARK  Name = 
REMARK  5 active torsions:
REMARK  status: ('A' for Active; 'I' for Inactive)
REMARK    1  A    between atoms: O_5  and  C_10
REMARK    2  A    between atoms: N_9  and  C_20
REMARK    3  A    between atoms: N_9  and  C_25
REMARK    4  A    between atoms: C_10  and  C_11
REMARK    5  A    between atoms: C_18  and  C_19
REMARK                            x       y       z     vdW  Elec       q    Type
REMARK                         _______ _______ _______ _____ _____    ______ ____
ROOT
ATOM      1  F   UNL     1       9.615 -11.672  11.096  0.00  0.00    +0.000 F 
ATOM      2  F   UNL     1      10.313  -9.398   9.819  0.00  0.00    +0.000 F 
ATOM      3  C   UNL     1       7.053  -9.393  12.316  0.00  0.00    +0.000 A 
ATOM      4  C   UNL     1       7.770 -10.599  12.155  0.00  0.00    +0.000 A 
ATOM      5  C   UNL     1       7.431  -8.210  11.659  0.00  0.00    +0.000 A 
ATOM      6  C   UNL     1       8.872 -10.571  11.289  0.00  0.00    +0.000 A 
ATOM      7  C   UNL     1       8.538  -8.216  10.814  0.00  0.00    +0.000 A 
ATOM      8  C   UNL     1       9.250  -9.396  10.636  0.00  0.00    +0.000 A 
ENDROOT
BRANCH   3  14
ATOM      9  O   UNL     1       6.011  -9.279  14.401  0.00  0.00    +0.000 OA
ATOM     10  N   UNL     1       4.636  -9.515  12.570  0.00  0.00    +0.000 N 
ATOM     11  C   UNL     1       3.262 -11.051  12.240  0.00  0.00    +0.000 C 
ATOM     12  C   UNL     1       4.314 -10.297  11.377  0.00  0.00    +0.000 C 
ATOM     13  C   UNL     1       3.385  -9.864  13.242  0.00  0.00    +0.000 C 
ATOM     14  C   UNL     1       5.858  -9.372  13.187  0.00  0.00    +0.000 C 
BRANCH  11  16
ATOM     15  N   UNL     1       2.520 -13.084  13.451  0.00  0.00    +0.000 NA
ATOM     16  C   UNL     1       3.702 -12.401  12.865  0.00  0.00    +0.000 C 
ATOM     17  C   UNL     1       4.352 -13.323  11.819  0.00  0.00    +0.000 C 
ATOM     18  C   UNL     1       4.756 -14.660  12.443  0.00  0.00    +0.000 C 
ATOM     19  C   UNL     1       2.941 -14.303  14.156  0.00  0.00    +0.000 C 
ATOM     20  C   UNL     1       3.592 -15.296  13.194  0.00  0.00    +0.000 C 
ATOM     21  H   UNL     1       1.915 -13.379  12.680  0.00  0.00    +0.000 HD
ENDBRANCH  11  16
BRANCH  11  22
ATOM     22  O   UNL     1       1.949 -11.190  11.622  0.00  0.00    +0.000 OA
ATOM     23  H   UNL     1       1.980 -10.543  10.891  0.00  0.00    +0.000 HD
ENDBRANCH  11  22
ENDBRANCH   3  14
BRANCH   4  24
ATOM     24  N   UNL     1       7.316 -11.778  12.785  0.00  0.00    +0.000 N 
ATOM     25  H   UNL     1       6.517 -12.215  12.311  0.00  0.00    +0.000 HD
BRANCH  24  28
ATOM     26  I   UNL     1       9.800 -15.615  17.122  0.00  0.00    +0.000 I 
ATOM     27  F   UNL     1       8.222 -14.289  12.173  0.00  0.00    +0.000 F 
ATOM     28  C   UNL     1       7.871 -12.592  13.791  0.00  0.00    +0.000 A 
ATOM     29  C   UNL     1       8.313 -13.883  13.449  0.00  0.00    +0.000 A 
ATOM     30  C   UNL     1       7.985 -12.206  15.129  0.00  0.00    +0.000 A 
ATOM     31  C   UNL     1       8.862 -14.756  14.385  0.00  0.00    +0.000 A 
ATOM     32  C   UNL     1       8.534 -13.073  16.084  0.00  0.00    +0.000 A 
ATOM     33  C   UNL     1       8.973 -14.342  15.707  0.00  0.00    +0.000 A 
ENDBRANCH  24  28
ENDBRANCH   4  24
TORSDOF 5
ENDMDL
MODEL 2
REMARK VINA RESULT:      -4.6     12.233     14.513
REMARK  Name = 
REMARK  5 active torsions:
REMARK  status: ('A' for Active; 'I' for Inactive)
REMARK    1  A    between atoms: O_5  and  C_10
REMARK    2  A    between atoms: N_9  and  C_20
REMARK    3  A    between atoms: N_9  and  C_25
REMARK    4  A    between atoms: C_10  and  C_11
REMARK    5  A    between atoms: C_18  and  C_19
REMARK                            x       y       z     vdW  Elec       q    Type
REMARK                         _______ _______ _______ _____ _____    ______ ____
ROOT
ATOM      1  F   UNL     1       7.419   4.154  18.021  0.00  0.00    +0.000 F 
ATOM      2  F   UNL     1       8.809   3.166  20.114  0.00  0.00    +0.000 F 
ATOM      3  C   UNL     1       5.251   1.416  19.045  0.00  0.00    +0.000 A 
ATOM      4  C   UNL     1       5.702   2.527  18.296  0.00  0.00    +0.000 A 
ATOM      5  C   UNL     1       5.988   0.899  20.124  0.00  0.00    +0.000 A 
ATOM      6  C   UNL     1       6.915   3.107  18.691  0.00  0.00    +0.000 A 
ATOM      7  C   UNL     1       7.194   1.495  20.482  0.00  0.00    +0.000 A 
ATOM      8  C   UNL     1       7.648   2.594  19.763  0.00  0.00    +0.000 A 
ENDROOT
BRANCH   3  14
ATOM      9  O   UNL     1       2.924   1.265  19.152  0.00  0.00    +0.000 OA
ATOM     10  N   UNL     1       4.010  -0.349  17.921  0.00  0.00    +0.000 N 
ATOM     11  C   UNL     1       3.914  -2.412  18.221  0.00  0.00    +0.000 C 
ATOM     12  C   UNL     1       5.040  -1.387  17.906  0.00  0.00    +0.000 C 
ATOM     13  C   UNL     1       2.920  -1.308  17.752  0.00  0.00    +0.000 C 
ATOM     14  C   UNL     1       3.959   0.786  18.698  0.00  0.00    +0.000 C 
BRANCH  11  16
ATOM     15  N   UNL     1       2.794  -3.964  19.799  0.00  0.00    +0.000 NA
ATOM     16  C   UNL     1       3.711  -2.798  19.710  0.00  0.00    +0.000 C 
ATOM     17  C   UNL     1       5.045  -3.151  20.390  0.00  0.00    +0.000 C 
ATOM     18  C   UNL     1       4.827  -3.555  21.849  0.00  0.00    +0.000 C 
ATOM     19  C   UNL     1       2.494  -4.262  21.206  0.00  0.00    +0.000 C 
ATOM     20  C   UNL     1       3.762  -4.639  21.971  0.00  0.00    +0.000 C 
ATOM     21  H   UNL     1       3.286  -4.778  19.420  0.00  0.00    +0.000 HD
ENDBRANCH  11  16
BRANCH  11  22
ATOM     22  O   UNL     1       3.928  -3.611  17.391  0.00  0.00    +0.000 OA
ATOM     23  H   UNL     1       3.329  -3.376  16.656  0.00  0.00    +0.000 HD
ENDBRANCH  11  22
ENDBRANCH   3  14
BRANCH   4  24
ATOM     24  N   UNL     1       4.898   3.051  17.261  0.00  0.00    +0.000 N 
ATOM     25  H   UNL     1       4.027   3.481  17.596  0.00  0.00    +0.000 HD
BRANCH  24  28
ATOM     26  I   UNL     1       6.008   3.938  11.123  0.00  0.00    +0.000 I 
ATOM     27  F   UNL     1       4.672   1.031  15.425  0.00  0.00    +0.000 F 
ATOM     28  C   UNL     1       5.148   3.305  15.900  0.00  0.00    +0.000 A 
ATOM     29  C   UNL     1       5.040   2.244  14.982  0.00  0.00    +0.000 A 
ATOM     30  C   UNL     1       5.531   4.552  15.398  0.00  0.00    +0.000 A 
ATOM     31  C   UNL     1       5.283   2.407  13.621  0.00  0.00    +0.000 A 
ATOM     32  C   UNL     1       5.781   4.733  14.031  0.00  0.00    +0.000 A 
ATOM     33  C   UNL     1       5.653   3.660  13.149  0.00  0.00    +0.000 A 
ENDBRANCH  24  28
ENDBRANCH   4  24
TORSDOF 5
ENDMDL
MODEL 3
REMARK VINA RESULT:      -4.5     19.456     22.392
REMARK  Name = 
REMARK  5 active torsions:
REMARK  status: ('A' for Active; 'I' for Inactive)
REMARK    1  A    between atoms: O_5  and  C_10
REMARK    2  A    between atoms: N_9  and  C_20
REMARK    3  A    between atoms: N_9  and  C_25
REMARK    4  A    between atoms: C_10  and  C_11
REMARK    5  A    between atoms: C_18  and  C_19
REMARK                            x       y       z     vdW  Elec       q    Type
REMARK                         _______ _______ _______ _____ _____    ______ ____
ROOT
ATOM      1  F   UNL     1     -15.229 -13.319  10.465  0.00  0.00    +0.000 F 
ATOM      2  F   UNL     1     -17.910 -13.291  10.784  0.00  0.00    +0.000 F 
ATOM      3  C   UNL     1     -15.654 -16.012  12.875  0.00  0.00    +0.000 A 
ATOM      4  C   UNL     1     -14.989 -15.120  12.005  0.00  0.00    +0.000 A 
ATOM      5  C   UNL     1     -17.049 -15.982  13.047  0.00  0.00    +0.000 A 
ATOM      6  C   UNL     1     -15.787 -14.209  11.299  0.00  0.00    +0.000 A 
ATOM      7  C   UNL     1     -17.809 -15.057  12.337  0.00  0.00    +0.000 A 
ATOM      8  C   UNL     1     -17.173 -14.178  11.469  0.00  0.00    +0.000 A 
ENDROOT
BRANCH   3  14
ATOM      9  O   UNL     1     -14.866 -18.181  13.222  0.00  0.00    +0.000 OA
ATOM     10  N   UNL     1     -14.225 -16.590  14.758  0.00  0.00    +0.000 N 
ATOM     11  C   UNL     1     -14.563 -16.646  16.817  0.00  0.00    +0.000 C 
ATOM     12  C   UNL     1     -14.657 -15.563  15.705  0.00  0.00    +0.000 C 
ATOM     13  C   UNL     1     -13.696 -17.458  15.808  0.00  0.00    +0.000 C 
ATOM     14  C   UNL     1     -14.868 -17.020  13.619  0.00  0.00    +0.000 C 
BRANCH  11  16
ATOM     15  N   UNL     1     -15.794 -17.850  18.602  0.00  0.00    +0.000 NA
ATOM     16  C   UNL     1     -15.876 -17.382  17.194  0.00  0.00    +0.000 C 
ATOM     17  C   UNL     1     -17.103 -16.466  17.036  0.00  0.00    +0.000 C 
ATOM     18  C   UNL     1     -18.386 -17.196  17.436  0.00  0.00    +0.000 C 
ATOM     19  C   UNL     1     -16.978 -18.655  18.934  0.00  0.00    +0.000 C 
ATOM     20  C   UNL     1     -18.256 -17.827  18.818  0.00  0.00    +0.000 C 
ATOM     21  H   UNL     1     -15.816 -17.025  19.207  0.00  0.00    +0.000 HD
ENDBRANCH  11  16
BRANCH  11  22
ATOM     22  O   UNL     1     -13.860 -16.227  18.023  0.00  0.00    +0.000 OA
ATOM     23  H   UNL     1     -14.511 -16.402  18.728  0.00  0.00    +0.000 HD
ENDBRANCH  11  22
ENDBRANCH   3  14
BRANCH   4  24
ATOM     24  N   UNL     1     -13.594 -15.229  11.817  0.00  0.00    +0.000 N 
ATOM     25  H   UNL     1     -13.046 -14.937  12.634  0.00  0.00    +0.000 HD
BRANCH  24  28
ATOM     26  I   UNL     1      -9.975 -18.184   7.589  0.00  0.00    +0.000 I 
ATOM     27  F   UNL     1     -11.820 -17.193  12.524  0.00  0.00    +0.000 F 
ATOM     28  C   UNL     1     -12.816 -15.864  10.831  0.00  0.00    +0.000 A 
ATOM     29  C   UNL     1     -11.902 -16.858  11.226  0.00  0.00    +0.000 A 
ATOM     30  C   UNL     1     -12.872 -15.547   9.471  0.00  0.00    +0.000 A 
ATOM     31  C   UNL     1     -11.085 -17.526  10.318  0.00  0.00    +0.000 A 
ATOM     32  C   UNL     1     -12.056 -16.209   8.543  0.00  0.00    +0.000 A 
ATOM     33  C   UNL     1     -11.169 -17.196   8.970  0.00  0.00    +0.000 A 
ENDBRANCH  24  28
ENDBRANCH   4  24
TORSDOF 5
ENDMDL
MODEL 4
REMARK VINA RESULT:      -4.4     28.135     29.922
REMARK  Name = 
REMARK  5 active torsions:
REMARK  status: ('A' for Active; 'I' for Inactive)
REMARK    1  A    between atoms: O_5  and  C_10
REMARK    2  A    between atoms: N_9  and  C_20
REMARK    3  A    between atoms: N_9  and  C_25
REMARK    4  A    between atoms: C_10  and  C_11
REMARK    5  A    between atoms: C_18  and  C_19
REMARK                            x       y       z     vdW  Elec       q    Type
REMARK                         _______ _______ _______ _____ _____    ______ ____
ROOT
ATOM      1  F   UNL     1     -13.574   2.190   0.626  0.00  0.00    +0.000 F 
ATOM      2  F   UNL     1     -11.649   3.785   1.647  0.00  0.00    +0.000 F 
ATOM      3  C   UNL     1     -12.908   4.359  -2.219  0.00  0.00    +0.000 A 
ATOM      4  C   UNL     1     -13.504   3.321  -1.469  0.00  0.00    +0.000 A 
ATOM      5  C   UNL     1     -11.917   5.195  -1.676  0.00  0.00    +0.000 A 
ATOM      6  C   UNL     1     -13.047   3.145  -0.156  0.00  0.00    +0.000 A 
ATOM      7  C   UNL     1     -11.494   4.996  -0.364  0.00  0.00    +0.000 A 
ATOM      8  C   UNL     1     -12.062   3.973   0.385  0.00  0.00    +0.000 A 
ENDROOT
BRANCH   3  14
ATOM      9  O   UNL     1     -14.408   5.098  -3.848  0.00  0.00    +0.000 OA
ATOM     10  N   UNL     1     -12.474   4.099  -4.599  0.00  0.00    +0.000 N 
ATOM     11  C   UNL     1     -12.344   2.419  -5.830  0.00  0.00    +0.000 C 
ATOM     12  C   UNL     1     -11.612   2.920  -4.553  0.00  0.00    +0.000 C 
ATOM     13  C   UNL     1     -12.833   3.888  -6.001  0.00  0.00    +0.000 C 
ATOM     14  C   UNL     1     -13.324   4.569  -3.623  0.00  0.00    +0.000 C 
BRANCH  11  16
ATOM     15  N   UNL     1     -13.786   0.705  -6.896  0.00  0.00    +0.000 NA
ATOM     16  C   UNL     1     -13.518   1.425  -5.624  0.00  0.00    +0.000 C 
ATOM     17  C   UNL     1     -13.205   0.401  -4.520  0.00  0.00    +0.000 C 
ATOM     18  C   UNL     1     -14.358  -0.588  -4.346  0.00  0.00    +0.000 C 
ATOM     19  C   UNL     1     -14.975  -0.147  -6.751  0.00  0.00    +0.000 C 
ATOM     20  C   UNL     1     -14.758  -1.213  -5.678  0.00  0.00    +0.000 C 
ATOM     21  H   UNL     1     -12.994   0.083  -7.077  0.00  0.00    +0.000 HD
ENDBRANCH  11  16
BRANCH  11  22
ATOM     22  O   UNL     1     -11.466   1.943  -6.892  0.00  0.00    +0.000 OA
ATOM     23  H   UNL     1     -11.205   1.056  -6.581  0.00  0.00    +0.000 HD
ENDBRANCH  11  22
ENDBRANCH   3  14
BRANCH   4  24
ATOM     24  N   UNL     1     -14.450   2.467  -2.077  0.00  0.00    +0.000 N 
ATOM     25  H   UNL     1     -14.078   1.950  -2.882  0.00  0.00    +0.000 HD
BRANCH  24  28
ATOM     26  I   UNL     1     -20.035   0.206  -0.233  0.00  0.00    +0.000 I 
ATOM     27  F   UNL     1     -14.746  -0.062  -1.068  0.00  0.00    +0.000 F 
ATOM     28  C   UNL     1     -15.719   2.014  -1.671  0.00  0.00    +0.000 A 
ATOM     29  C   UNL     1     -15.843   0.705  -1.171  0.00  0.00    +0.000 A 
ATOM     30  C   UNL     1     -16.885   2.780  -1.760  0.00  0.00    +0.000 A 
ATOM     31  C   UNL     1     -17.063   0.174  -0.760  0.00  0.00    +0.000 A 
ATOM     32  C   UNL     1     -18.121   2.262  -1.352  0.00  0.00    +0.000 A 
ATOM     33  C   UNL     1     -18.204   0.963  -0.852  0.00  0.00    +0.000 A 
ENDBRANCH  24  28
ENDBRANCH   4  24
TORSDOF 5
ENDMDL
MODEL 5
REMARK VINA RESULT:      -4.3     26.482     29.150
REMARK  Name = 
REMARK  5 active torsions:
REMARK  status: ('A' for Active; 'I' for Inactive)
REMARK    1  A    between atoms: O_5  and  C_10
REMARK    2  A    between atoms: N_9  and  C_20
REMARK    3  A    between atoms: N_9  and  C_25
REMARK    4  A    between atoms: C_10  and  C_11
REMARK    5  A    between atoms: C_18  and  C_19
REMARK                            x       y       z     vdW  Elec       q    Type
REMARK                         _______ _______ _______ _____ _____    ______ ____
ROOT
ATOM      1  F   UNL     1     -20.397   3.408  19.843  0.00  0.00    +0.000 F 
ATOM      2  F   UNL     1     -20.675   6.064  19.450  0.00  0.00    +0.000 F 
ATOM      3  C   UNL     1     -16.940   4.370  19.237  0.00  0.00    +0.000 A 
ATOM      4  C   UNL     1     -18.041   3.530  19.520  0.00  0.00    +0.000 A 
ATOM      5  C   UNL     1     -17.095   5.749  19.019  0.00  0.00    +0.000 A 
ATOM      6  C   UNL     1     -19.301   4.140  19.595  0.00  0.00    +0.000 A 
ATOM      7  C   UNL     1     -18.363   6.319  19.092  0.00  0.00    +0.000 A 
ATOM      8  C   UNL     1     -19.456   5.510  19.379  0.00  0.00    +0.000 A 
ENDROOT
BRANCH   3  14
ATOM      9  O   UNL     1     -14.948   3.663  20.225  0.00  0.00    +0.000 OA
ATOM     10  N   UNL     1     -15.090   3.474  17.935  0.00  0.00    +0.000 N 
ATOM     11  C   UNL     1     -13.805   4.338  16.537  0.00  0.00    +0.000 C 
ATOM     12  C   UNL     1     -15.344   4.155  16.667  0.00  0.00    +0.000 C 
ATOM     13  C   UNL     1     -13.685   3.224  17.619  0.00  0.00    +0.000 C 
ATOM     14  C   UNL     1     -15.581   3.789  19.182  0.00  0.00    +0.000 C 
BRANCH  11  16
ATOM     15  N   UNL     1     -11.734   5.591  17.078  0.00  0.00    +0.000 NA
ATOM     16  C   UNL     1     -13.214   5.692  17.013  0.00  0.00    +0.000 C 
ATOM     17  C   UNL     1     -13.602   6.842  16.067  0.00  0.00    +0.000 C 
ATOM     18  C   UNL     1     -12.992   8.164  16.534  0.00  0.00    +0.000 C 
ATOM     19  C   UNL     1     -11.170   6.823  17.646  0.00  0.00    +0.000 C 
ATOM     20  C   UNL     1     -11.491   8.031  16.767  0.00  0.00    +0.000 C 
ATOM     21  H   UNL     1     -11.383   5.517  16.120  0.00  0.00    +0.000 HD
ENDBRANCH  11  16
BRANCH  11  22
ATOM     22  O   UNL     1     -13.254   3.982  15.235  0.00  0.00    +0.000 OA
ATOM     23  H   UNL     1     -14.026   3.618  14.762  0.00  0.00    +0.000 HD
ENDBRANCH  11  22
ENDBRANCH   3  14
BRANCH   4  24
ATOM     24  N   UNL     1     -17.830   2.161  19.794  0.00  0.00    +0.000 N 
ATOM     25  H   UNL     1     -17.087   1.739  19.225  0.00  0.00    +0.000 HD
BRANCH  24  28
ATOM     26  I   UNL     1     -19.964  -1.694  24.298  0.00  0.00    +0.000 I 
ATOM     27  F   UNL     1     -19.595   0.133  19.271  0.00  0.00    +0.000 F 
ATOM     28  C   UNL     1     -18.268   1.322  20.836  0.00  0.00    +0.000 A 
ATOM     29  C   UNL     1     -19.187   0.299  20.539  0.00  0.00    +0.000 A 
ATOM     30  C   UNL     1     -17.867   1.460  22.167  0.00  0.00    +0.000 A 
ATOM     31  C   UNL     1     -19.681  -0.566  21.512  0.00  0.00    +0.000 A 
ATOM     32  C   UNL     1     -18.355   0.598  23.159  0.00  0.00    +0.000 A 
ATOM     33  C   UNL     1     -19.257  -0.412  22.827  0.00  0.00    +0.000 A 
ENDBRANCH  24  28
ENDBRANCH   4  24
TORSDOF 5
ENDMDL
MODEL 6
REMARK VINA RESULT:      -4.2     12.780     15.001
REMARK  Name = 
REMARK  5 active torsions:
REMARK  status: ('A' for Active; 'I' for Inactive)
REMARK    1  A    between atoms: O_5  and  C_10
REMARK    2  A    between atoms: N_9  and  C_20
REMARK    3  A    between atoms: N_9  and  C_25
REMARK    4  A    between atoms: C_10  and  C_11
REMARK    5  A    between atoms: C_18  and  C_19
REMARK                            x       y       z     vdW  Elec       q    Type
REMARK                         _______ _______ _______ _____ _____    ______ ____
ROOT
ATOM      1  F   UNL     1       3.834   4.528  19.901  0.00  0.00    +0.000 F 
ATOM      2  F   UNL     1       3.956   4.186  22.576  0.00  0.00    +0.000 F 
ATOM      3  C   UNL     1       3.613   0.903  20.133  0.00  0.00    +0.000 A 
ATOM      4  C   UNL     1       3.659   2.182  19.533  0.00  0.00    +0.000 A 
ATOM      5  C   UNL     1       3.692   0.732  21.525  0.00  0.00    +0.000 A 
ATOM      6  C   UNL     1       3.768   3.282  20.394  0.00  0.00    +0.000 A 
ATOM      7  C   UNL     1       3.809   1.848  22.350  0.00  0.00    +0.000 A 
ATOM      8  C   UNL     1       3.846   3.114  21.778  0.00  0.00    +0.000 A 
ENDROOT
BRANCH   3  14
ATOM      9  O   UNL     1       2.365  -0.531  18.779  0.00  0.00    +0.000 OA
ATOM     10  N   UNL     1       4.566  -1.103  19.139  0.00  0.00    +0.000 N 
ATOM     11  C   UNL     1       5.264  -2.888  19.966  0.00  0.00    +0.000 C 
ATOM     12  C   UNL     1       5.610  -1.379  20.124  0.00  0.00    +0.000 C 
ATOM     13  C   UNL     1       4.549  -2.478  18.644  0.00  0.00    +0.000 C 
ATOM     14  C   UNL     1       3.461  -0.293  19.277  0.00  0.00    +0.000 C 
BRANCH  11  16
ATOM     15  N   UNL     1       4.552  -4.952  21.141  0.00  0.00    +0.000 NA
ATOM     16  C   UNL     1       4.285  -3.497  21.004  0.00  0.00    +0.000 C 
ATOM     17  C   UNL     1       4.429  -2.825  22.381  0.00  0.00    +0.000 C 
ATOM     18  C   UNL     1       3.478  -3.453  23.399  0.00  0.00    +0.000 C 
ATOM     19  C   UNL     1       3.552  -5.566  22.026  0.00  0.00    +0.000 C 
ATOM     20  C   UNL     1       3.623  -4.971  23.431  0.00  0.00    +0.000 C 
ATOM     21  H   UNL     1       5.461  -5.062  21.598  0.00  0.00    +0.000 HD
ENDBRANCH  11  16
BRANCH  11  22
ATOM     22  O   UNL     1       6.415  -3.764  19.788  0.00  0.00    +0.000 OA
ATOM     23  H   UNL     1       6.175  -4.551  20.313  0.00  0.00    +0.000 HD
ENDBRANCH  11  22
ENDBRANCH   3  14
BRANCH   4  24
ATOM     24  N   UNL     1       3.512   2.309  18.135  0.00  0.00    +0.000 N 
ATOM     25  H   UNL     1       2.534   2.340  17.826  0.00  0.00    +0.000 HD
BRANCH  24  28
ATOM     26  I   UNL     1       7.605   3.484  13.490  0.00  0.00    +0.000 I 
ATOM     27  F   UNL     1       4.309   0.379  16.361  0.00  0.00    +0.000 F 
ATOM     28  C   UNL     1       4.423   2.627  17.109  0.00  0.00    +0.000 A 
ATOM     29  C   UNL     1       4.826   1.611  16.223  0.00  0.00    +0.000 A 
ATOM     30  C   UNL     1       4.981   3.895  16.930  0.00  0.00    +0.000 A 
ATOM     31  C   UNL     1       5.731   1.837  15.190  0.00  0.00    +0.000 A 
ATOM     32  C   UNL     1       5.895   4.140  15.896  0.00  0.00    +0.000 A 
ATOM     33  C   UNL     1       6.264   3.111  15.030  0.00  0.00    +0.000 A 
ENDBRANCH  24  28
ENDBRANCH   4  24
TORSDOF 5
ENDMDL
MODEL 7
REMARK VINA RESULT:      -4.1     18.591     21.221
REMARK  Name = 
REMARK  5 active torsions:
REMARK  status: ('A' for Active; 'I' for Inactive)
REMARK    1  A    between atoms: O_5  and  C_10
REMARK    2  A    between atoms: N_9  and  C_20
REMARK    3  A    between atoms: N_9  and  C_25
REMARK    4  A    between atoms: C_10  and  C_11
REMARK    5  A    between atoms: C_18  and  C_19
REMARK                            x       y       z     vdW  Elec       q    Type
REMARK                         _______ _______ _______ _____ _____    ______ ____
ROOT
ATOM      1  F   UNL     1     -15.308 -15.486  10.816  0.00  0.00    +0.000 F 
ATOM      2  F   UNL     1     -15.231 -16.247  13.405  0.00  0.00    +0.000 F 
ATOM      3  C   UNL     1     -11.763 -16.214  11.205  0.00  0.00    +0.000 A 
ATOM      4  C   UNL     1     -12.963 -15.825  10.568  0.00  0.00    +0.000 A 
ATOM      5  C   UNL     1     -11.729 -16.595  12.557  0.00  0.00    +0.000 A 
ATOM      6  C   UNL     1     -14.131 -15.856  11.343  0.00  0.00    +0.000 A 
ATOM      7  C   UNL     1     -12.907 -16.604  13.299  0.00  0.00    +0.000 A 
ATOM      8  C   UNL     1     -14.098 -16.234  12.687  0.00  0.00    +0.000 A 
ENDROOT
BRANCH   3  14
ATOM      9  O   UNL     1      -9.923 -15.181  10.209  0.00  0.00    +0.000 OA
ATOM     10  N   UNL     1     -10.096 -17.461   9.946  0.00  0.00    +0.000 N 
ATOM     11  C   UNL     1     -10.184 -18.498   8.137  0.00  0.00    +0.000 C 
ATOM     12  C   UNL     1     -10.926 -18.580   9.501  0.00  0.00    +0.000 C 
ATOM     13  C   UNL     1      -9.105 -17.665   8.891  0.00  0.00    +0.000 C 
ATOM     14  C   UNL     1     -10.506 -16.238  10.427  0.00  0.00    +0.000 C 
BRANCH  11  16
ATOM     15  N   UNL     1      -9.847 -16.948   6.231  0.00  0.00    +0.000 NA
ATOM     16  C   UNL     1     -10.874 -17.688   7.008  0.00  0.00    +0.000 C 
ATOM     17  C   UNL     1     -11.665 -18.604   6.057  0.00  0.00    +0.000 C 
ATOM     18  C   UNL     1     -12.318 -17.796   4.935  0.00  0.00    +0.000 C 
ATOM     19  C   UNL     1     -10.496 -16.079   5.238  0.00  0.00    +0.000 C 
ATOM     20  C   UNL     1     -11.302 -16.901   4.234  0.00  0.00    +0.000 C 
ATOM     21  H   UNL     1      -9.294 -17.634   5.710  0.00  0.00    +0.000 HD
ENDBRANCH  11  16
BRANCH  11  22
ATOM     22  O   UNL     1      -9.712 -19.777   7.619  0.00  0.00    +0.000 OA
ATOM     23  H   UNL     1      -8.813 -19.568   7.303  0.00  0.00    +0.000 HD
ENDBRANCH  11  22
ENDBRANCH   3  14
BRANCH   4  24
ATOM     24  N   UNL     1     -12.960 -15.512   9.192  0.00  0.00    +0.000 N 
ATOM     25  H   UNL     1     -12.039 -15.229   8.838  0.00  0.00    +0.000 HD
BRANCH  24  28
ATOM     26  I   UNL     1     -17.153 -16.711   4.644  0.00  0.00    +0.000 I 
ATOM     27  F   UNL     1     -13.996 -18.013   8.777  0.00  0.00    +0.000 F 
ATOM     28  C   UNL     1     -13.901 -15.724   8.167  0.00  0.00    +0.000 A 
ATOM     29  C   UNL     1     -14.404 -17.022   7.968  0.00  0.00    +0.000 A 
ATOM     30  C   UNL     1     -14.353 -14.720   7.305  0.00  0.00    +0.000 A 
ATOM     31  C   UNL     1     -15.327 -17.321   6.969  0.00  0.00    +0.000 A 
ATOM     32  C   UNL     1     -15.282 -15.004   6.294  0.00  0.00    +0.000 A 
ATOM     33  C   UNL     1     -15.766 -16.301   6.133  0.00  0.00    +0.000 A 
ENDBRANCH  24  28
ENDBRANCH   4  24
TORSDOF 5
ENDMDL
MODEL 8
REMARK VINA RESULT:      -4.1     28.507     30.637
REMARK  Name = 
REMARK  5 active torsions:
REMARK  status: ('A' for Active; 'I' for Inactive)
REMARK    1  A    between atoms: O_5  and  C_10
REMARK    2  A    between atoms: N_9  and  C_20
REMARK    3  A    between atoms: N_9  and  C_25
REMARK    4  A    between atoms: C_10  and  C_11
REMARK    5  A    between atoms: C_18  and  C_19
REMARK                            x       y       z     vdW  Elec       q    Type
REMARK                         _______ _______ _______ _____ _____    ______ ____
ROOT
ATOM      1  F   UNL     1     -16.898  -0.077  -2.277  0.00  0.00    +0.000 F 
ATOM      2  F   UNL     1     -15.404  -0.781  -4.412  0.00  0.00    +0.000 F 
ATOM      3  C   UNL     1     -13.764   1.600  -1.496  0.00  0.00    +0.000 A 
ATOM      4  C   UNL     1     -15.104   1.180  -1.342  0.00  0.00    +0.000 A 
ATOM      5  C   UNL     1     -12.988   1.216  -2.603  0.00  0.00    +0.000 A 
ATOM      6  C   UNL     1     -15.637   0.376  -2.358  0.00  0.00    +0.000 A 
ATOM      7  C   UNL     1     -13.548   0.408  -3.589  0.00  0.00    +0.000 A 
ATOM      8  C   UNL     1     -14.868  -0.006  -3.458  0.00  0.00    +0.000 A 
ENDROOT
BRANCH   3  14
ATOM      9  O   UNL     1     -13.171   2.124   0.700  0.00  0.00    +0.000 OA
ATOM     10  N   UNL     1     -12.662   3.689  -0.910  0.00  0.00    +0.000 N 
ATOM     11  C   UNL     1     -13.298   5.676  -0.954  0.00  0.00    +0.000 C 
ATOM     12  C   UNL     1     -13.161   4.530  -1.996  0.00  0.00    +0.000 C 
ATOM     13  C   UNL     1     -12.346   4.831  -0.055  0.00  0.00    +0.000 C 
ATOM     14  C   UNL     1     -13.158   2.481  -0.474  0.00  0.00    +0.000 C 
BRANCH  11  16
ATOM     15  N   UNL     1     -14.545   6.592   0.984  0.00  0.00    +0.000 NA
ATOM     16  C   UNL     1     -14.695   5.878  -0.310  0.00  0.00    +0.000 C 
ATOM     17  C   UNL     1     -15.629   6.686  -1.228  0.00  0.00    +0.000 C 
ATOM     18  C   UNL     1     -16.993   6.900  -0.570  0.00  0.00    +0.000 C 
ATOM     19  C   UNL     1     -15.845   6.679   1.664  0.00  0.00    +0.000 C 
ATOM     20  C   UNL     1     -16.847   7.479   0.833  0.00  0.00    +0.000 C 
ATOM     21  H   UNL     1     -14.250   7.550   0.781  0.00  0.00    +0.000 HD
ENDBRANCH  11  16
BRANCH  11  22
ATOM     22  O   UNL     1     -12.752   6.959  -1.379  0.00  0.00    +0.000 OA
ATOM     23  H   UNL     1     -13.439   7.300  -1.983  0.00  0.00    +0.000 HD
ENDBRANCH  11  22
ENDBRANCH   3  14
BRANCH   4  24
ATOM     24  N   UNL     1     -15.864   1.642  -0.245  0.00  0.00    +0.000 N 
ATOM     25  H   UNL     1     -15.297   1.873   0.579  0.00  0.00    +0.000 HD
BRANCH  24  28
ATOM     26  I   UNL     1     -21.915   3.287   0.374  0.00  0.00    +0.000 I 
ATOM     27  F   UNL     1     -17.691   0.051   1.034  0.00  0.00    +0.000 F 
ATOM     28  C   UNL     1     -17.203   2.061  -0.126  0.00  0.00    +0.000 A 
ATOM     29  C   UNL     1     -18.122   1.215   0.522  0.00  0.00    +0.000 A 
ATOM     30  C   UNL     1     -17.690   3.264  -0.643  0.00  0.00    +0.000 A 
ATOM     31  C   UNL     1     -19.465   1.548   0.671  0.00  0.00    +0.000 A 
ATOM     32  C   UNL     1     -19.040   3.614  -0.502  0.00  0.00    +0.000 A 
ATOM     33  C   UNL     1     -19.920   2.756   0.156  0.00  0.00    +0.000 A 
ENDBRANCH  24  28
ENDBRANCH   4  24
TORSDOF 5
ENDMDL
MODEL 9
REMARK VINA RESULT:      -4.0     25.287     28.107
REMARK  Name = 
REMARK  5 active torsions:
REMARK  status: ('A' for Active; 'I' for Inactive)
REMARK    1  A    between atoms: O_5  and  C_10
REMARK    2  A    between atoms: N_9  and  C_20
REMARK    3  A    between atoms: N_9  and  C_25
REMARK    4  A    between atoms: C_10  and  C_11
REMARK    5  A    between atoms: C_18  and  C_19
REMARK                            x       y       z     vdW  Elec       q    Type
REMARK                         _______ _______ _______ _____ _____    ______ ____
ROOT
ATOM      1  F   UNL     1     -13.280   9.710   4.105  0.00  0.00    +0.000 F 
ATOM      2  F   UNL     1     -15.358   8.307   5.105  0.00  0.00    +0.000 F 
ATOM      3  C   UNL     1     -11.521   7.105   5.938  0.00  0.00    +0.000 A 
ATOM      4  C   UNL     1     -11.703   8.247   5.127  0.00  0.00    +0.000 A 
ATOM      5  C   UNL     1     -12.608   6.388   6.467  0.00  0.00    +0.000 A 
ATOM      6  C   UNL     1     -13.024   8.627   4.854  0.00  0.00    +0.000 A 
ATOM      7  C   UNL     1     -13.907   6.800   6.182  0.00  0.00    +0.000 A 
ATOM      8  C   UNL     1     -14.105   7.916   5.378  0.00  0.00    +0.000 A 
ENDROOT
BRANCH   3  14
ATOM      9  O   UNL     1      -9.510   7.185   7.120  0.00  0.00    +0.000 OA
ATOM     10  N   UNL     1      -9.655   5.628   5.430  0.00  0.00    +0.000 N 
ATOM     11  C   UNL     1      -8.393   5.473   3.775  0.00  0.00    +0.000 C 
ATOM     12  C   UNL     1      -9.927   5.384   4.014  0.00  0.00    +0.000 C 
ATOM     13  C   UNL     1      -8.245   5.260   5.311  0.00  0.00    +0.000 C 
ATOM     14  C   UNL     1     -10.150   6.634   6.229  0.00  0.00    +0.000 C 
BRANCH  11  16
ATOM     15  N   UNL     1      -6.950   7.401   4.370  0.00  0.00    +0.000 NA
ATOM     16  C   UNL     1      -7.831   6.844   3.312  0.00  0.00    +0.000 C 
ATOM     17  C   UNL     1      -7.032   6.714   2.003  0.00  0.00    +0.000 C 
ATOM     18  C   UNL     1      -6.463   8.067   1.573  0.00  0.00    +0.000 C 
ATOM     19  C   UNL     1      -6.511   8.753   3.998  0.00  0.00    +0.000 C 
ATOM     20  C   UNL     1      -5.692   8.731   2.709  0.00  0.00    +0.000 C 
ATOM     21  H   UNL     1      -6.110   6.818   4.416  0.00  0.00    +0.000 HD
ENDBRANCH  11  16
BRANCH  11  22
ATOM     22  O   UNL     1      -7.838   4.403   2.956  0.00  0.00    +0.000 OA
ATOM     23  H   UNL     1      -8.423   3.647   3.156  0.00  0.00    +0.000 HD
ENDBRANCH  11  22
ENDBRANCH   3  14
BRANCH   4  24
ATOM     24  N   UNL     1     -10.583   8.898   4.566  0.00  0.00    +0.000 N 
ATOM     25  H   UNL     1     -10.120   8.355   3.828  0.00  0.00    +0.000 HD
BRANCH  24  28
ATOM     26  I   UNL     1      -8.577  14.839   5.185  0.00  0.00    +0.000 I 
ATOM     27  F   UNL     1     -10.775  10.270   6.929  0.00  0.00    +0.000 F 
ATOM     28  C   UNL     1     -10.111  10.221   4.653  0.00  0.00    +0.000 A 
ATOM     29  C   UNL     1     -10.237  10.906   5.875  0.00  0.00    +0.000 A 
ATOM     30  C   UNL     1      -9.543  10.917   3.582  0.00  0.00    +0.000 A 
ATOM     31  C   UNL     1      -9.809  12.220   6.043  0.00  0.00    +0.000 A 
ATOM     32  C   UNL     1      -9.107  12.241   3.733  0.00  0.00    +0.000 A 
ATOM     33  C   UNL     1      -9.239  12.885   4.963  0.00  0.00    +0.000 A 
ENDBRANCH  24  28
ENDBRANCH   4  24
TORSDOF 5
ENDMDL
