MODEL 1
REMARK VINA RESULT:      -6.3      0.000      0.000
REMARK  Name = COUMESTROL.pdbqt.pdb
REMARK  2 active torsions:
REMARK  status: ('A' for Active; 'I' for Inactive)
REMARK    1  A    between atoms: C_16  and  O_19
REMARK    2  A    between atoms: C_18  and  O_21
REMARK                            x       y       z     vdW  Elec       q    Type
REMARK                         _______ _______ _______ _____ _____    ______ ____
ROOT
ATOM      1  O   UNL     1      -6.002   8.586   4.864  0.00  0.00    +0.000 OA
ATOM      2  O   UNL     1      -7.940   4.991   4.883  0.00  0.00    +0.000 OA
ATOM      3  O   UNL     1      -7.812   5.010   2.576  0.00  0.00    +0.000 OA
ATOM      4  C   UNL     1      -6.885   6.840   3.733  0.00  0.00    +0.000 A 
ATOM      5  C   UNL     1      -6.645   7.402   4.959  0.00  0.00    +0.000 A 
ATOM      6  C   UNL     1      -6.350   7.743   2.781  0.00  0.00    +0.000 A 
ATOM      7  C   UNL     1      -7.013   6.838   6.222  0.00  0.00    +0.000 A 
ATOM      8  C   UNL     1      -5.818   8.801   3.525  0.00  0.00    +0.000 A 
ATOM      9  C   UNL     1      -7.675   5.603   6.147  0.00  0.00    +0.000 A 
ATOM     10  C   UNL     1      -7.566   5.568   3.639  0.00  0.00    +0.000 A 
ATOM     11  C   UNL     1      -6.253   7.790   1.381  0.00  0.00    +0.000 A 
ATOM     12  C   UNL     1      -6.763   7.419   7.459  0.00  0.00    +0.000 A 
ATOM     13  C   UNL     1      -5.189   9.915   2.969  0.00  0.00    +0.000 A 
ATOM     14  C   UNL     1      -8.094   4.934   7.291  0.00  0.00    +0.000 A 
ATOM     15  C   UNL     1      -5.629   8.893   0.790  0.00  0.00    +0.000 A 
ATOM     16  C   UNL     1      -5.114   9.923   1.575  0.00  0.00    +0.000 A 
ATOM     17  C   UNL     1      -7.178   6.758   8.615  0.00  0.00    +0.000 A 
ATOM     18  C   UNL     1      -7.836   5.529   8.521  0.00  0.00    +0.000 A 
ENDROOT
BRANCH  16  19
ATOM     19  O   UNL     1      -4.515  10.972   0.930  0.00  0.00    +0.000 OA
ATOM     20  H   UNL     1      -5.210  11.523   0.528  0.00  0.00    +0.000 HD
ENDBRANCH  16  19
BRANCH  18  21
ATOM     21  O   UNL     1      -8.245   4.876   9.650  0.00  0.00    +0.000 OA
ATOM     22  H   UNL     1      -7.690   4.085   9.766  0.00  0.00    +0.000 HD
ENDBRANCH  18  21
TORSDOF 2
ENDMDL
MODEL 2
REMARK VINA RESULT:      -5.8     23.973     26.350
REMARK  Name = COUMESTROL.pdbqt.pdb
REMARK  2 active torsions:
REMARK  status: ('A' for Active; 'I' for Inactive)
REMARK    1  A    between atoms: C_16  and  O_19
REMARK    2  A    between atoms: C_18  and  O_21
REMARK                            x       y       z     vdW  Elec       q    Type
REMARK                         _______ _______ _______ _____ _____    ______ ____
ROOT
ATOM      1  O   UNL     1     -10.601  -5.582  27.639  0.00  0.00    +0.000 OA
ATOM      2  O   UNL     1      -7.095  -4.671  25.752  0.00  0.00    +0.000 OA
ATOM      3  O   UNL     1      -6.964  -6.889  25.117  0.00  0.00    +0.000 OA
ATOM      4  C   UNL     1      -8.824  -6.233  26.403  0.00  0.00    +0.000 A 
ATOM      5  C   UNL     1      -9.452  -5.197  27.042  0.00  0.00    +0.000 A 
ATOM      6  C   UNL     1      -9.643  -7.370  26.613  0.00  0.00    +0.000 A 
ATOM      7  C   UNL     1      -8.983  -3.845  27.098  0.00  0.00    +0.000 A 
ATOM      8  C   UNL     1     -10.723  -6.919  27.377  0.00  0.00    +0.000 A 
ATOM      9  C   UNL     1      -7.774  -3.610  26.427  0.00  0.00    +0.000 A 
ATOM     10  C   UNL     1      -7.577  -6.008  25.708  0.00  0.00    +0.000 A 
ATOM     11  C   UNL     1      -9.598  -8.725  26.246  0.00  0.00    +0.000 A 
ATOM     12  C   UNL     1      -9.630  -2.802  27.749  0.00  0.00    +0.000 A 
ATOM     13  C   UNL     1     -11.774  -7.728  27.808  0.00  0.00    +0.000 A 
ATOM     14  C   UNL     1      -7.195  -2.348  26.394  0.00  0.00    +0.000 A 
ATOM     15  C   UNL     1     -10.636  -9.565  26.662  0.00  0.00    +0.000 A 
ATOM     16  C   UNL     1     -11.692  -9.068  27.423  0.00  0.00    +0.000 A 
ATOM     17  C   UNL     1      -9.061  -1.530  27.724  0.00  0.00    +0.000 A 
ATOM     18  C   UNL     1      -7.855  -1.314  27.051  0.00  0.00    +0.000 A 
ENDROOT
BRANCH  16  19
ATOM     19  O   UNL     1     -12.674  -9.947  27.795  0.00  0.00    +0.000 OA
ATOM     20  H   UNL     1     -12.621 -10.076  28.758  0.00  0.00    +0.000 HD
ENDBRANCH  16  19
BRANCH  18  21
ATOM     21  O   UNL     1      -7.292  -0.070  27.023  0.00  0.00    +0.000 OA
ATOM     22  H   UNL     1      -6.865   0.094  27.882  0.00  0.00    +0.000 HD
ENDBRANCH  18  21
TORSDOF 2
ENDMDL
MODEL 3
REMARK VINA RESULT:      -5.7     23.857     24.993
REMARK  Name = COUMESTROL.pdbqt.pdb
REMARK  2 active torsions:
REMARK  status: ('A' for Active; 'I' for Inactive)
REMARK    1  A    between atoms: C_16  and  O_19
REMARK    2  A    between atoms: C_18  and  O_21
REMARK                            x       y       z     vdW  Elec       q    Type
REMARK                         _______ _______ _______ _____ _____    ______ ____
ROOT
ATOM      1  O   UNL     1     -14.343 -14.626   9.698  0.00  0.00    +0.000 OA
ATOM      2  O   UNL     1     -11.661 -16.701  11.975  0.00  0.00    +0.000 OA
ATOM      3  O   UNL     1     -13.106 -16.438  13.758  0.00  0.00    +0.000 OA
ATOM      4  C   UNL     1     -13.747 -15.510  11.692  0.00  0.00    +0.000 A 
ATOM      5  C   UNL     1     -13.404 -15.319  10.379  0.00  0.00    +0.000 A 
ATOM      6  C   UNL     1     -15.009 -14.885  11.857  0.00  0.00    +0.000 A 
ATOM      7  C   UNL     1     -12.201 -15.782   9.756  0.00  0.00    +0.000 A 
ATOM      8  C   UNL     1     -15.333 -14.356  10.603  0.00  0.00    +0.000 A 
ATOM      9  C   UNL     1     -11.331 -16.486  10.601  0.00  0.00    +0.000 A 
ATOM     10  C   UNL     1     -12.862 -16.232  12.576  0.00  0.00    +0.000 A 
ATOM     11  C   UNL     1     -15.913 -14.705  12.916  0.00  0.00    +0.000 A 
ATOM     12  C   UNL     1     -11.865 -15.583   8.423  0.00  0.00    +0.000 A 
ATOM     13  C   UNL     1     -16.505 -13.654  10.325  0.00  0.00    +0.000 A 
ATOM     14  C   UNL     1     -10.125 -16.996  10.138  0.00  0.00    +0.000 A 
ATOM     15  C   UNL     1     -17.098 -14.005  12.672  0.00  0.00    +0.000 A 
ATOM     16  C   UNL     1     -17.376 -13.497  11.405  0.00  0.00    +0.000 A 
ATOM     17  C   UNL     1     -10.657 -16.090   7.944  0.00  0.00    +0.000 A 
ATOM     18  C   UNL     1      -9.802 -16.788   8.801  0.00  0.00    +0.000 A 
ENDROOT
BRANCH  16  19
ATOM     19  O   UNL     1     -18.556 -12.821  11.238  0.00  0.00    +0.000 OA
ATOM     20  H   UNL     1     -18.404 -12.088  10.617  0.00  0.00    +0.000 HD
ENDBRANCH  16  19
BRANCH  18  21
ATOM     21  O   UNL     1      -8.618 -17.288   8.339  0.00  0.00    +0.000 OA
ATOM     22  H   UNL     1      -7.993 -16.549   8.234  0.00  0.00    +0.000 HD
ENDBRANCH  18  21
TORSDOF 2
ENDMDL
MODEL 4
REMARK VINA RESULT:      -5.7     23.748     24.688
REMARK  Name = COUMESTROL.pdbqt.pdb
REMARK  2 active torsions:
REMARK  status: ('A' for Active; 'I' for Inactive)
REMARK    1  A    between atoms: C_16  and  O_19
REMARK    2  A    between atoms: C_18  and  O_21
REMARK                            x       y       z     vdW  Elec       q    Type
REMARK                         _______ _______ _______ _____ _____    ______ ____
ROOT
ATOM      1  O   UNL     1     -13.248 -15.021   9.308  0.00  0.00    +0.000 OA
ATOM      2  O   UNL     1     -14.144 -15.794  13.217  0.00  0.00    +0.000 OA
ATOM      3  O   UNL     1     -12.094 -16.846  13.386  0.00  0.00    +0.000 OA
ATOM      4  C   UNL     1     -12.672 -15.919  11.301  0.00  0.00    +0.000 A 
ATOM      5  C   UNL     1     -13.622 -15.235  10.588  0.00  0.00    +0.000 A 
ATOM      6  C   UNL     1     -11.607 -16.158  10.397  0.00  0.00    +0.000 A 
ATOM      7  C   UNL     1     -14.880 -14.780  11.098  0.00  0.00    +0.000 A 
ATOM      8  C   UNL     1     -12.008 -15.587   9.185  0.00  0.00    +0.000 A 
ATOM      9  C   UNL     1     -15.115 -15.083  12.447  0.00  0.00    +0.000 A 
ATOM     10  C   UNL     1     -12.899 -16.239  12.692  0.00  0.00    +0.000 A 
ATOM     11  C   UNL     1     -10.354 -16.788  10.461  0.00  0.00    +0.000 A 
ATOM     12  C   UNL     1     -15.835 -14.087  10.364  0.00  0.00    +0.000 A 
ATOM     13  C   UNL     1     -11.244 -15.599   8.019  0.00  0.00    +0.000 A 
ATOM     14  C   UNL     1     -16.292 -14.705  13.081  0.00  0.00    +0.000 A 
ATOM     15  C   UNL     1      -9.561 -16.819   9.310  0.00  0.00    +0.000 A 
ATOM     16  C   UNL     1     -10.005 -16.235   8.125  0.00  0.00    +0.000 A 
ATOM     17  C   UNL     1     -17.021 -13.702  10.988  0.00  0.00    +0.000 A 
ATOM     18  C   UNL     1     -17.239 -14.012  12.333  0.00  0.00    +0.000 A 
ENDROOT
BRANCH  16  19
ATOM     19  O   UNL     1      -9.177 -16.302   7.036  0.00  0.00    +0.000 OA
ATOM     20  H   UNL     1      -8.305 -16.618   7.333  0.00  0.00    +0.000 HD
ENDBRANCH  16  19
BRANCH  18  21
ATOM     21  O   UNL     1     -18.399 -13.638  12.950  0.00  0.00    +0.000 OA
ATOM     22  H   UNL     1     -19.131 -13.740  12.317  0.00  0.00    +0.000 HD
ENDBRANCH  18  21
TORSDOF 2
ENDMDL
MODEL 5
REMARK VINA RESULT:      -5.5     19.547     20.653
REMARK  Name = COUMESTROL.pdbqt.pdb
REMARK  2 active torsions:
REMARK  status: ('A' for Active; 'I' for Inactive)
REMARK    1  A    between atoms: C_16  and  O_19
REMARK    2  A    between atoms: C_18  and  O_21
REMARK                            x       y       z     vdW  Elec       q    Type
REMARK                         _______ _______ _______ _____ _____    ______ ____
ROOT
ATOM      1  O   UNL     1       7.766  -5.749  11.318  0.00  0.00    +0.000 OA
ATOM      2  O   UNL     1       5.853  -8.942   9.636  0.00  0.00    +0.000 OA
ATOM      3  O   UNL     1       4.524  -7.433   8.498  0.00  0.00    +0.000 OA
ATOM      4  C   UNL     1       6.175  -6.563   9.934  0.00  0.00    +0.000 A 
ATOM      5  C   UNL     1       7.188  -6.858  10.808  0.00  0.00    +0.000 A 
ATOM      6  C   UNL     1       6.106  -5.148   9.885  0.00  0.00    +0.000 A 
ATOM      7  C   UNL     1       7.619  -8.174  11.170  0.00  0.00    +0.000 A 
ATOM      8  C   UNL     1       7.104  -4.693  10.753  0.00  0.00    +0.000 A 
ATOM      9  C   UNL     1       6.915  -9.218  10.552  0.00  0.00    +0.000 A 
ATOM     10  C   UNL     1       5.439  -7.626   9.289  0.00  0.00    +0.000 A 
ATOM     11  C   UNL     1       5.318  -4.200   9.212  0.00  0.00    +0.000 A 
ATOM     12  C   UNL     1       8.648  -8.461  12.059  0.00  0.00    +0.000 A 
ATOM     13  C   UNL     1       7.378  -3.349  11.001  0.00  0.00    +0.000 A 
ATOM     14  C   UNL     1       7.220 -10.549  10.806  0.00  0.00    +0.000 A 
ATOM     15  C   UNL     1       5.566  -2.843   9.437  0.00  0.00    +0.000 A 
ATOM     16  C   UNL     1       6.572  -2.439  10.311  0.00  0.00    +0.000 A 
ATOM     17  C   UNL     1       8.966  -9.792  12.322  0.00  0.00    +0.000 A 
ATOM     18  C   UNL     1       8.253 -10.820  11.697  0.00  0.00    +0.000 A 
ENDROOT
BRANCH  16  19
ATOM     19  O   UNL     1       6.760  -1.094  10.484  0.00  0.00    +0.000 OA
ATOM     20  H   UNL     1       5.977  -0.730  10.933  0.00  0.00    +0.000 HD
ENDBRANCH  16  19
BRANCH  18  21
ATOM     21  O   UNL     1       8.559 -12.127  11.951  0.00  0.00    +0.000 OA
ATOM     22  H   UNL     1       9.352 -12.362  11.440  0.00  0.00    +0.000 HD
ENDBRANCH  18  21
TORSDOF 2
ENDMDL
MODEL 6
REMARK VINA RESULT:      -5.5     25.610     27.342
REMARK  Name = COUMESTROL.pdbqt.pdb
REMARK  2 active torsions:
REMARK  status: ('A' for Active; 'I' for Inactive)
REMARK    1  A    between atoms: C_16  and  O_19
REMARK    2  A    between atoms: C_18  and  O_21
REMARK                            x       y       z     vdW  Elec       q    Type
REMARK                         _______ _______ _______ _____ _____    ______ ____
ROOT
ATOM      1  O   UNL     1     -11.171  -5.665  27.652  0.00  0.00    +0.000 OA
ATOM      2  O   UNL     1     -12.548  -9.385  26.679  0.00  0.00    +0.000 OA
ATOM      3  O   UNL     1     -10.416  -9.884  25.940  0.00  0.00    +0.000 OA
ATOM      4  C   UNL     1     -10.790  -7.728  26.811  0.00  0.00    +0.000 A 
ATOM      5  C   UNL     1     -11.706  -6.870  27.360  0.00  0.00    +0.000 A 
ATOM      6  C   UNL     1      -9.572  -7.006  26.750  0.00  0.00    +0.000 A 
ATOM      7  C   UNL     1     -13.083  -7.171  27.614  0.00  0.00    +0.000 A 
ATOM      8  C   UNL     1      -9.857  -5.744  27.278  0.00  0.00    +0.000 A 
ATOM      9  C   UNL     1     -13.481  -8.467  27.254  0.00  0.00    +0.000 A 
ATOM     10  C   UNL     1     -11.184  -9.067  26.435  0.00  0.00    +0.000 A 
ATOM     11  C   UNL     1      -8.265  -7.272  26.311  0.00  0.00    +0.000 A 
ATOM     12  C   UNL     1     -14.002  -6.292  28.172  0.00  0.00    +0.000 A 
ATOM     13  C   UNL     1      -8.924  -4.714  27.402  0.00  0.00    +0.000 A 
ATOM     14  C   UNL     1     -14.786  -8.904  27.441  0.00  0.00    +0.000 A 
ATOM     15  C   UNL     1      -7.304  -6.262  26.421  0.00  0.00    +0.000 A 
ATOM     16  C   UNL     1      -7.637  -5.019  26.954  0.00  0.00    +0.000 A 
ATOM     17  C   UNL     1     -15.316  -6.716  28.365  0.00  0.00    +0.000 A 
ATOM     18  C   UNL     1     -15.695  -8.011  28.000  0.00  0.00    +0.000 A 
ENDROOT
BRANCH  16  19
ATOM     19  O   UNL     1      -6.646  -4.076  27.032  0.00  0.00    +0.000 OA
ATOM     20  H   UNL     1      -6.997  -3.301  27.504  0.00  0.00    +0.000 HD
ENDBRANCH  16  19
BRANCH  18  21
ATOM     21  O   UNL     1     -16.981  -8.434  28.187  0.00  0.00    +0.000 OA
ATOM     22  H   UNL     1     -17.580  -7.785  27.778  0.00  0.00    +0.000 HD
ENDBRANCH  18  21
TORSDOF 2
ENDMDL
MODEL 7
REMARK VINA RESULT:      -5.4     26.142     28.091
REMARK  Name = COUMESTROL.pdbqt.pdb
REMARK  2 active torsions:
REMARK  status: ('A' for Active; 'I' for Inactive)
REMARK    1  A    between atoms: C_16  and  O_19
REMARK    2  A    between atoms: C_18  and  O_21
REMARK                            x       y       z     vdW  Elec       q    Type
REMARK                         _______ _______ _______ _____ _____    ______ ____
ROOT
ATOM      1  O   UNL     1     -12.206  -8.520  26.750  0.00  0.00    +0.000 OA
ATOM      2  O   UNL     1     -14.712  -5.891  28.620  0.00  0.00    +0.000 OA
ATOM      3  O   UNL     1     -12.939  -4.412  28.722  0.00  0.00    +0.000 OA
ATOM      4  C   UNL     1     -12.554  -6.505  27.714  0.00  0.00    +0.000 A 
ATOM      5  C   UNL     1     -13.099  -7.711  27.362  0.00  0.00    +0.000 A 
ATOM      6  C   UNL     1     -11.202  -6.552  27.291  0.00  0.00    +0.000 A 
ATOM      7  C   UNL     1     -14.453  -8.114  27.594  0.00  0.00    +0.000 A 
ATOM      8  C   UNL     1     -11.036  -7.811  26.704  0.00  0.00    +0.000 A 
ATOM      9  C   UNL     1     -15.252  -7.159  28.240  0.00  0.00    +0.000 A 
ATOM     10  C   UNL     1     -13.363  -5.510  28.380  0.00  0.00    +0.000 A 
ATOM     11  C   UNL     1     -10.102  -5.681  27.334  0.00  0.00    +0.000 A 
ATOM     12  C   UNL     1     -14.994  -9.341  27.231  0.00  0.00    +0.000 A 
ATOM     13  C   UNL     1      -9.841  -8.270  26.152  0.00  0.00    +0.000 A 
ATOM     14  C   UNL     1     -16.587  -7.407  28.532  0.00  0.00    +0.000 A 
ATOM     15  C   UNL     1      -8.887  -6.109  26.790  0.00  0.00    +0.000 A 
ATOM     16  C   UNL     1      -8.772  -7.373  26.216  0.00  0.00    +0.000 A 
ATOM     17  C   UNL     1     -16.333  -9.604  27.518  0.00  0.00    +0.000 A 
ATOM     18  C   UNL     1     -17.114  -8.640  28.163  0.00  0.00    +0.000 A 
ENDROOT
BRANCH  16  19
ATOM     19  O   UNL     1      -7.553  -7.727  25.701  0.00  0.00    +0.000 OA
ATOM     20  H   UNL     1      -7.602  -8.652  25.405  0.00  0.00    +0.000 HD
ENDBRANCH  16  19
BRANCH  18  21
ATOM     21  O   UNL     1     -18.426  -8.891  28.447  0.00  0.00    +0.000 OA
ATOM     22  H   UNL     1     -18.914  -8.049  28.413  0.00  0.00    +0.000 HD
ENDBRANCH  18  21
TORSDOF 2
ENDMDL
MODEL 8
REMARK VINA RESULT:      -5.2     27.914     28.342
REMARK  Name = COUMESTROL.pdbqt.pdb
REMARK  2 active torsions:
REMARK  status: ('A' for Active; 'I' for Inactive)
REMARK    1  A    between atoms: C_16  and  O_19
REMARK    2  A    between atoms: C_18  and  O_21
REMARK                            x       y       z     vdW  Elec       q    Type
REMARK                         _______ _______ _______ _____ _____    ______ ____
ROOT
ATOM      1  O   UNL     1       4.214 -19.178   5.974  0.00  0.00    +0.000 OA
ATOM      2  O   UNL     1       0.590 -19.766   4.184  0.00  0.00    +0.000 OA
ATOM      3  O   UNL     1       1.534 -18.994   2.221  0.00  0.00    +0.000 OA
ATOM      4  C   UNL     1       2.911 -19.084   4.129  0.00  0.00    +0.000 A 
ATOM      5  C   UNL     1       2.985 -19.401   5.460  0.00  0.00    +0.000 A 
ATOM      6  C   UNL     1       4.201 -18.621   3.769  0.00  0.00    +0.000 A 
ATOM      7  C   UNL     1       1.911 -19.914   6.256  0.00  0.00    +0.000 A 
ATOM      8  C   UNL     1       4.966 -18.697   4.937  0.00  0.00    +0.000 A 
ATOM      9  C   UNL     1       0.699 -20.088   5.572  0.00  0.00    +0.000 A 
ATOM     10  C   UNL     1       1.669 -19.258   3.410  0.00  0.00    +0.000 A 
ATOM     11  C   UNL     1       4.809 -18.146   2.596  0.00  0.00    +0.000 A 
ATOM     12  C   UNL     1       1.999 -20.232   7.606  0.00  0.00    +0.000 A 
ATOM     13  C   UNL     1       6.310 -18.332   5.022  0.00  0.00    +0.000 A 
ATOM     14  C   UNL     1      -0.432 -20.577   6.213  0.00  0.00    +0.000 A 
ATOM     15  C   UNL     1       6.155 -17.771   2.645  0.00  0.00    +0.000 A 
ATOM     16  C   UNL     1       6.877 -17.866   3.833  0.00  0.00    +0.000 A 
ATOM     17  C   UNL     1       0.872 -20.724   8.262  0.00  0.00    +0.000 A 
ATOM     18  C   UNL     1      -0.328 -20.891   7.564  0.00  0.00    +0.000 A 
ENDROOT
BRANCH  16  19
ATOM     19  O   UNL     1       8.191 -17.482   3.809  0.00  0.00    +0.000 OA
ATOM     20  H   UNL     1       8.230 -16.536   3.583  0.00  0.00    +0.000 HD
ENDBRANCH  16  19
BRANCH  18  21
ATOM     21  O   UNL     1      -1.437 -21.373   8.201  0.00  0.00    +0.000 OA
ATOM     22  H   UNL     1      -1.775 -22.133   7.696  0.00  0.00    +0.000 HD
ENDBRANCH  18  21
TORSDOF 2
ENDMDL
MODEL 9
REMARK VINA RESULT:      -5.2     25.585     27.702
REMARK  Name = COUMESTROL.pdbqt.pdb
REMARK  2 active torsions:
REMARK  status: ('A' for Active; 'I' for Inactive)
REMARK    1  A    between atoms: C_16  and  O_19
REMARK    2  A    between atoms: C_18  and  O_21
REMARK                            x       y       z     vdW  Elec       q    Type
REMARK                         _______ _______ _______ _____ _____    ______ ____
ROOT
ATOM      1  O   UNL     1     -12.639  -6.293  27.798  0.00  0.00    +0.000 OA
ATOM      2  O   UNL     1      -9.215  -7.929  26.286  0.00  0.00    +0.000 OA
ATOM      3  O   UNL     1     -10.417  -9.864  25.899  0.00  0.00    +0.000 OA
ATOM      4  C   UNL     1     -11.561  -8.049  26.868  0.00  0.00    +0.000 A 
ATOM      5  C   UNL     1     -11.466  -6.757  27.315  0.00  0.00    +0.000 A 
ATOM      6  C   UNL     1     -12.907  -8.436  27.086  0.00  0.00    +0.000 A 
ATOM      7  C   UNL     1     -10.282  -5.952  27.293  0.00  0.00    +0.000 A 
ATOM      8  C   UNL     1     -13.529  -7.323  27.659  0.00  0.00    +0.000 A 
ATOM      9  C   UNL     1      -9.148  -6.583  26.760  0.00  0.00    +0.000 A 
ATOM     10  C   UNL     1     -10.402  -8.713  26.316  0.00  0.00    +0.000 A 
ATOM     11  C   UNL     1     -13.670  -9.594  26.866  0.00  0.00    +0.000 A 
ATOM     12  C   UNL     1     -10.199  -4.643  27.750  0.00  0.00    +0.000 A 
ATOM     13  C   UNL     1     -14.872  -7.279  28.033  0.00  0.00    +0.000 A 
ATOM     14  C   UNL     1      -7.927  -5.927  26.674  0.00  0.00    +0.000 A 
ATOM     15  C   UNL     1     -15.020  -9.584  27.230  0.00  0.00    +0.000 A 
ATOM     16  C   UNL     1     -15.595  -8.450  27.798  0.00  0.00    +0.000 A 
ATOM     17  C   UNL     1      -8.979  -3.972  27.669  0.00  0.00    +0.000 A 
ATOM     18  C   UNL     1      -7.859  -4.616  27.135  0.00  0.00    +0.000 A 
ENDROOT
BRANCH  16  19
ATOM     19  O   UNL     1     -16.922  -8.511  28.130  0.00  0.00    +0.000 OA
ATOM     20  H   UNL     1     -17.438  -8.621  27.313  0.00  0.00    +0.000 HD
ENDBRANCH  16  19
BRANCH  18  21
ATOM     21  O   UNL     1      -6.661  -3.966  27.053  0.00  0.00    +0.000 OA
ATOM     22  H   UNL     1      -6.454  -3.591  27.927  0.00  0.00    +0.000 HD
ENDBRANCH  18  21
TORSDOF 2
ENDMDL
