MODEL 1
REMARK VINA RESULT:      -6.4      0.000      0.000
REMARK  Name = CP466722.pdbqt.pdb
REMARK  3 active torsions:
REMARK  status: ('A' for Active; 'I' for Inactive)
REMARK    1  A    between atoms: C_5  and  C_23
REMARK    2  A    between atoms: C_14  and  O_16
REMARK    3  A    between atoms: C_15  and  O_18
REMARK                            x       y       z     vdW  Elec       q    Type
REMARK                         _______ _______ _______ _____ _____    ______ ____
ROOT
ATOM      1  N   UNL     1     -11.730  -8.425   0.038  0.00  0.00    +0.000 N 
ATOM      2  N   UNL     1     -10.739  -8.555   0.950  0.00  0.00    +0.000 NA
ATOM      3  N   UNL     1      -9.971  -9.088  -1.127  0.00  0.00    +0.000 NA
ATOM      4  C   UNL     1     -11.229  -8.743  -1.227  0.00  0.00    +0.000 A 
ATOM      5  C   UNL     1      -9.692  -8.959   0.214  0.00  0.00    +0.000 A 
ATOM      6  C   UNL     1     -13.072  -8.056   0.388  0.00  0.00    +0.000 A 
ATOM      7  N   UNL     1     -13.998  -8.093  -0.607  0.00  0.00    +0.000 NA
ATOM      8  C   UNL     1     -15.252  -7.771  -0.274  0.00  0.00    +0.000 A 
ATOM      9  N   UNL     1     -15.666  -7.427   0.949  0.00  0.00    +0.000 NA
ATOM     10  C   UNL     1     -14.753  -7.391   1.922  0.00  0.00    +0.000 A 
ATOM     11  C   UNL     1     -13.401  -7.693   1.709  0.00  0.00    +0.000 A 
ATOM     12  C   UNL     1     -15.173  -7.044   3.198  0.00  0.00    +0.000 A 
ATOM     13  C   UNL     1     -12.511  -7.591   2.805  0.00  0.00    +0.000 A 
ATOM     14  C   UNL     1     -12.936  -7.206   4.071  0.00  0.00    +0.000 A 
ATOM     15  C   UNL     1     -14.292  -6.983   4.280  0.00  0.00    +0.000 A 
ATOM     16  N   UNL     1     -11.937  -8.692  -2.372  0.00  0.00    +0.000 N 
ATOM     17  H   UNL     1     -11.563  -9.164  -3.188  0.00  0.00    +0.000 HD
ATOM     18  H   UNL     1     -12.954  -8.632  -2.330  0.00  0.00    +0.000 HD
ENDROOT
BRANCH   5  19
ATOM     19  C   UNL     1      -8.365  -9.249   0.765  0.00  0.00    +0.000 A 
ATOM     20  N   UNL     1      -7.999 -10.554   0.897  0.00  0.00    +0.000 NA
ATOM     21  C   UNL     1      -6.772 -10.795   1.408  0.00  0.00    +0.000 A 
ATOM     22  C   UNL     1      -5.883  -9.808   1.794  0.00  0.00    +0.000 A 
ATOM     23  C   UNL     1      -6.281  -8.486   1.644  0.00  0.00    +0.000 A 
ATOM     24  C   UNL     1      -7.536  -8.193   1.124  0.00  0.00    +0.000 A 
ENDBRANCH   5  19
BRANCH  14  25
ATOM     25  O   UNL     1     -12.013  -7.155   5.080  0.00  0.00    +0.000 OA
ATOM     26  C   UNL     1     -11.630  -8.452   5.461  0.00  0.00    +0.000 C 
ENDBRANCH  14  25
BRANCH  15  27
ATOM     27  O   UNL     1     -14.766  -6.621   5.512  0.00  0.00    +0.000 OA
ATOM     28  C   UNL     1     -15.193  -7.758   6.221  0.00  0.00    +0.000 C 
ENDBRANCH  15  27
TORSDOF 3
ENDMDL
MODEL 2
REMARK VINA RESULT:      -6.0     19.416     23.308
REMARK  Name = CP466722.pdbqt.pdb
REMARK  3 active torsions:
REMARK  status: ('A' for Active; 'I' for Inactive)
REMARK    1  A    between atoms: C_5  and  C_23
REMARK    2  A    between atoms: C_14  and  O_16
REMARK    3  A    between atoms: C_15  and  O_18
REMARK                            x       y       z     vdW  Elec       q    Type
REMARK                         _______ _______ _______ _____ _____    ______ ____
ROOT
ATOM      1  N   UNL     1      10.337  -8.431  10.152  0.00  0.00    +0.000 N 
ATOM      2  N   UNL     1       9.004  -8.221  10.052  0.00  0.00    +0.000 NA
ATOM      3  N   UNL     1      10.143  -6.356   9.415  0.00  0.00    +0.000 NA
ATOM      4  C   UNL     1      11.011  -7.279   9.742  0.00  0.00    +0.000 A 
ATOM      5  C   UNL     1       8.922  -6.958   9.607  0.00  0.00    +0.000 A 
ATOM      6  C   UNL     1      10.902  -9.654  10.648  0.00  0.00    +0.000 A 
ATOM      7  N   UNL     1      12.250  -9.681  10.823  0.00  0.00    +0.000 NA
ATOM      8  C   UNL     1      12.771 -10.813  11.307  0.00  0.00    +0.000 A 
ATOM      9  N   UNL     1      12.078 -11.907  11.638  0.00  0.00    +0.000 NA
ATOM     10  C   UNL     1      10.756 -11.875  11.464  0.00  0.00    +0.000 A 
ATOM     11  C   UNL     1      10.081 -10.758  10.954  0.00  0.00    +0.000 A 
ATOM     12  C   UNL     1      10.025 -13.002  11.814  0.00  0.00    +0.000 A 
ATOM     13  C   UNL     1       8.679 -10.844  10.779  0.00  0.00    +0.000 A 
ATOM     14  C   UNL     1       7.962 -11.991  11.098  0.00  0.00    +0.000 A 
ATOM     15  C   UNL     1       8.637 -13.062  11.673  0.00  0.00    +0.000 A 
ATOM     16  N   UNL     1      12.351  -7.148   9.687  0.00  0.00    +0.000 N 
ATOM     17  H   UNL     1      12.738  -6.213   9.610  0.00  0.00    +0.000 HD
ATOM     18  H   UNL     1      12.941  -7.827  10.167  0.00  0.00    +0.000 HD
ENDROOT
BRANCH   5  19
ATOM     19  C   UNL     1       7.660  -6.259   9.348  0.00  0.00    +0.000 A 
ATOM     20  N   UNL     1       6.672  -6.942   8.706  0.00  0.00    +0.000 NA
ATOM     21  C   UNL     1       5.519  -6.276   8.478  0.00  0.00    +0.000 A 
ATOM     22  C   UNL     1       5.291  -4.964   8.855  0.00  0.00    +0.000 A 
ATOM     23  C   UNL     1       6.316  -4.294   9.510  0.00  0.00    +0.000 A 
ATOM     24  C   UNL     1       7.519  -4.941   9.764  0.00  0.00    +0.000 A 
ENDBRANCH   5  19
BRANCH  14  25
ATOM     25  O   UNL     1       6.605 -11.981  10.919  0.00  0.00    +0.000 OA
ATOM     26  C   UNL     1       5.983 -11.221  11.923  0.00  0.00    +0.000 C 
ENDBRANCH  14  25
BRANCH  15  27
ATOM     27  O   UNL     1       7.975 -14.207  12.023  0.00  0.00    +0.000 OA
ATOM     28  C   UNL     1       8.230 -15.221  11.083  0.00  0.00    +0.000 C 
ENDBRANCH  15  27
TORSDOF 3
ENDMDL
MODEL 3
REMARK VINA RESULT:      -5.8     17.296     18.626
REMARK  Name = CP466722.pdbqt.pdb
REMARK  3 active torsions:
REMARK  status: ('A' for Active; 'I' for Inactive)
REMARK    1  A    between atoms: C_5  and  C_23
REMARK    2  A    between atoms: C_14  and  O_16
REMARK    3  A    between atoms: C_15  and  O_18
REMARK                            x       y       z     vdW  Elec       q    Type
REMARK                         _______ _______ _______ _____ _____    ______ ____
ROOT
ATOM      1  N   UNL     1      -7.198   6.711   6.839  0.00  0.00    +0.000 N 
ATOM      2  N   UNL     1      -6.670   7.873   7.289  0.00  0.00    +0.000 NA
ATOM      3  N   UNL     1      -7.406   6.614   9.038  0.00  0.00    +0.000 NA
ATOM      4  C   UNL     1      -7.627   5.953   7.931  0.00  0.00    +0.000 A 
ATOM      5  C   UNL     1      -6.814   7.783   8.620  0.00  0.00    +0.000 A 
ATOM      6  C   UNL     1      -7.307   6.390   5.444  0.00  0.00    +0.000 A 
ATOM      7  N   UNL     1      -7.979   5.251   5.128  0.00  0.00    +0.000 NA
ATOM      8  C   UNL     1      -8.099   4.965   3.827  0.00  0.00    +0.000 A 
ATOM      9  N   UNL     1      -7.624   5.707   2.823  0.00  0.00    +0.000 NA
ATOM     10  C   UNL     1      -6.964   6.823   3.139  0.00  0.00    +0.000 A 
ATOM     11  C   UNL     1      -6.754   7.235   4.462  0.00  0.00    +0.000 A 
ATOM     12  C   UNL     1      -6.474   7.606   2.103  0.00  0.00    +0.000 A 
ATOM     13  C   UNL     1      -6.013   8.420   4.685  0.00  0.00    +0.000 A 
ATOM     14  C   UNL     1      -5.494   9.176   3.641  0.00  0.00    +0.000 A 
ATOM     15  C   UNL     1      -5.776   8.793   2.335  0.00  0.00    +0.000 A 
ATOM     16  N   UNL     1      -8.178   4.726   7.849  0.00  0.00    +0.000 N 
ATOM     17  H   UNL     1      -8.669   4.366   8.660  0.00  0.00    +0.000 HD
ATOM     18  H   UNL     1      -8.515   4.387   6.948  0.00  0.00    +0.000 HD
ENDROOT
BRANCH   5  19
ATOM     19  C   UNL     1      -6.393   8.823   9.563  0.00  0.00    +0.000 A 
ATOM     20  N   UNL     1      -5.105   9.259   9.501  0.00  0.00    +0.000 NA
ATOM     21  C   UNL     1      -4.742  10.217  10.382  0.00  0.00    +0.000 A 
ATOM     22  C   UNL     1      -5.591  10.771  11.323  0.00  0.00    +0.000 A 
ATOM     23  C   UNL     1      -6.900  10.309  11.361  0.00  0.00    +0.000 A 
ATOM     24  C   UNL     1      -7.316   9.323  10.475  0.00  0.00    +0.000 A 
ENDBRANCH   5  19
BRANCH  14  25
ATOM     25  O   UNL     1      -4.807  10.320   3.946  0.00  0.00    +0.000 OA
ATOM     26  C   UNL     1      -4.122  10.173   5.164  0.00  0.00    +0.000 C 
ENDBRANCH  14  25
BRANCH  15  27
ATOM     27  O   UNL     1      -5.305   9.515   1.271  0.00  0.00    +0.000 OA
ATOM     28  C   UNL     1      -5.216   8.695   0.132  0.00  0.00    +0.000 C 
ENDBRANCH  15  27
TORSDOF 3
ENDMDL
MODEL 4
REMARK VINA RESULT:      -5.7     18.670     21.236
REMARK  Name = CP466722.pdbqt.pdb
REMARK  3 active torsions:
REMARK  status: ('A' for Active; 'I' for Inactive)
REMARK    1  A    between atoms: C_5  and  C_23
REMARK    2  A    between atoms: C_14  and  O_16
REMARK    3  A    between atoms: C_15  and  O_18
REMARK                            x       y       z     vdW  Elec       q    Type
REMARK                         _______ _______ _______ _____ _____    ______ ____
ROOT
ATOM      1  N   UNL     1       7.972  -9.310  10.851  0.00  0.00    +0.000 N 
ATOM      2  N   UNL     1       6.920  -8.460  10.900  0.00  0.00    +0.000 NA
ATOM      3  N   UNL     1       8.718  -7.430   9.958  0.00  0.00    +0.000 NA
ATOM      4  C   UNL     1       9.055  -8.659  10.257  0.00  0.00    +0.000 A 
ATOM      5  C   UNL     1       7.405  -7.335  10.356  0.00  0.00    +0.000 A 
ATOM      6  C   UNL     1       7.927 -10.643  11.382  0.00  0.00    +0.000 A 
ATOM      7  N   UNL     1       9.094 -11.341  11.388  0.00  0.00    +0.000 NA
ATOM      8  C   UNL     1       9.054 -12.574  11.904  0.00  0.00    +0.000 A 
ATOM      9  N   UNL     1       7.972 -13.166  12.417  0.00  0.00    +0.000 NA
ATOM     10  C   UNL     1       6.830 -12.477  12.408  0.00  0.00    +0.000 A 
ATOM     11  C   UNL     1       6.726 -11.180  11.887  0.00  0.00    +0.000 A 
ATOM     12  C   UNL     1       5.701 -13.078  12.948  0.00  0.00    +0.000 A 
ATOM     13  C   UNL     1       5.457 -10.553  11.898  0.00  0.00    +0.000 A 
ATOM     14  C   UNL     1       4.326 -11.180  12.407  0.00  0.00    +0.000 A 
ATOM     15  C   UNL     1       4.463 -12.435  12.988  0.00  0.00    +0.000 A 
ATOM     16  N   UNL     1      10.257  -9.219  10.023  0.00  0.00    +0.000 N 
ATOM     17  H   UNL     1      11.039  -8.607   9.813  0.00  0.00    +0.000 HD
ATOM     18  H   UNL     1      10.501 -10.095  10.484  0.00  0.00    +0.000 HD
ENDROOT
BRANCH   5  19
ATOM     19  C   UNL     1       6.631  -6.100  10.194  0.00  0.00    +0.000 A 
ATOM     20  N   UNL     1       6.540  -5.258  11.260  0.00  0.00    +0.000 NA
ATOM     21  C   UNL     1       5.820  -4.128  11.086  0.00  0.00    +0.000 A 
ATOM     22  C   UNL     1       5.184  -3.786   9.907  0.00  0.00    +0.000 A 
ATOM     23  C   UNL     1       5.296  -4.663   8.835  0.00  0.00    +0.000 A 
ATOM     24  C   UNL     1       6.026  -5.837   8.971  0.00  0.00    +0.000 A 
ENDBRANCH   5  19
BRANCH  14  25
ATOM     25  O   UNL     1       3.142 -10.492  12.399  0.00  0.00    +0.000 OA
ATOM     26  C   UNL     1       2.502 -10.630  11.156  0.00  0.00    +0.000 C 
ENDBRANCH  14  25
BRANCH  15  27
ATOM     27  O   UNL     1       3.384 -13.087  13.521  0.00  0.00    +0.000 OA
ATOM     28  C   UNL     1       3.419 -13.015  14.924  0.00  0.00    +0.000 C 
ENDBRANCH  15  27
TORSDOF 3
ENDMDL
MODEL 5
REMARK VINA RESULT:      -5.4     20.051     22.988
REMARK  Name = CP466722.pdbqt.pdb
REMARK  3 active torsions:
REMARK  status: ('A' for Active; 'I' for Inactive)
REMARK    1  A    between atoms: C_5  and  C_23
REMARK    2  A    between atoms: C_14  and  O_16
REMARK    3  A    between atoms: C_15  and  O_18
REMARK                            x       y       z     vdW  Elec       q    Type
REMARK                         _______ _______ _______ _____ _____    ______ ____
ROOT
ATOM      1  N   UNL     1       6.976  -9.545  11.025  0.00  0.00    +0.000 N 
ATOM      2  N   UNL     1       6.665 -10.716  11.629  0.00  0.00    +0.000 NA
ATOM      3  N   UNL     1       4.777  -9.500  11.253  0.00  0.00    +0.000 NA
ATOM      4  C   UNL     1       5.800  -8.827  10.793  0.00  0.00    +0.000 A 
ATOM      5  C   UNL     1       5.331 -10.656  11.754  0.00  0.00    +0.000 A 
ATOM      6  C   UNL     1       8.324  -9.148  10.735  0.00  0.00    +0.000 A 
ATOM      7  N   UNL     1       8.502  -7.890  10.251  0.00  0.00    +0.000 NA
ATOM      8  C   UNL     1       9.761  -7.513  10.003  0.00  0.00    +0.000 A 
ATOM      9  N   UNL     1      10.848  -8.264  10.200  0.00  0.00    +0.000 NA
ATOM     10  C   UNL     1      10.667  -9.498  10.675  0.00  0.00    +0.000 A 
ATOM     11  C   UNL     1       9.402 -10.025  10.966  0.00  0.00    +0.000 A 
ATOM     12  C   UNL     1      11.791 -10.284  10.893  0.00  0.00    +0.000 A 
ATOM     13  C   UNL     1       9.322 -11.358  11.435  0.00  0.00    +0.000 A 
ATOM     14  C   UNL     1      10.452 -12.148  11.613  0.00  0.00    +0.000 A 
ATOM     15  C   UNL     1      11.703 -11.585  11.392  0.00  0.00    +0.000 A 
ATOM     16  N   UNL     1       5.737  -7.628  10.182  0.00  0.00    +0.000 N 
ATOM     17  H   UNL     1       4.884  -7.087  10.275  0.00  0.00    +0.000 HD
ATOM     18  H   UNL     1       6.589  -7.082  10.060  0.00  0.00    +0.000 HD
ENDROOT
BRANCH   5  19
ATOM     19  C   UNL     1       4.515 -11.707  12.369  0.00  0.00    +0.000 A 
ATOM     20  N   UNL     1       3.544 -11.331  13.246  0.00  0.00    +0.000 NA
ATOM     21  C   UNL     1       2.807 -12.319  13.800  0.00  0.00    +0.000 A 
ATOM     22  C   UNL     1       2.980 -13.664  13.529  0.00  0.00    +0.000 A 
ATOM     23  C   UNL     1       3.977 -14.017  12.628  0.00  0.00    +0.000 A 
ATOM     24  C   UNL     1       4.759 -13.034  12.036  0.00  0.00    +0.000 A 
ENDBRANCH   5  19
BRANCH  14  25
ATOM     25  O   UNL     1      10.286 -13.420  12.092  0.00  0.00    +0.000 OA
ATOM     26  C   UNL     1       8.934 -13.798  12.026  0.00  0.00    +0.000 C 
ENDBRANCH  14  25
BRANCH  15  27
ATOM     27  O   UNL     1      12.847 -12.314  11.572  0.00  0.00    +0.000 OA
ATOM     28  C   UNL     1      13.641 -11.730  12.574  0.00  0.00    +0.000 C 
ENDBRANCH  15  27
TORSDOF 3
ENDMDL
MODEL 6
REMARK VINA RESULT:      -5.3     19.792     21.506
REMARK  Name = CP466722.pdbqt.pdb
REMARK  3 active torsions:
REMARK  status: ('A' for Active; 'I' for Inactive)
REMARK    1  A    between atoms: C_5  and  C_23
REMARK    2  A    between atoms: C_14  and  O_16
REMARK    3  A    between atoms: C_15  and  O_18
REMARK                            x       y       z     vdW  Elec       q    Type
REMARK                         _______ _______ _______ _____ _____    ______ ____
ROOT
ATOM      1  N   UNL     1     -14.291   6.104  15.353  0.00  0.00    +0.000 N 
ATOM      2  N   UNL     1     -13.444   7.160  15.338  0.00  0.00    +0.000 NA
ATOM      3  N   UNL     1     -14.687   7.122  13.431  0.00  0.00    +0.000 NA
ATOM      4  C   UNL     1     -15.050   6.114  14.181  0.00  0.00    +0.000 A 
ATOM      5  C   UNL     1     -13.707   7.751  14.163  0.00  0.00    +0.000 A 
ATOM      6  C   UNL     1     -14.323   5.143  16.418  0.00  0.00    +0.000 A 
ATOM      7  N   UNL     1     -15.126   4.060  16.242  0.00  0.00    +0.000 NA
ATOM      8  C   UNL     1     -15.137   3.153  17.225  0.00  0.00    +0.000 A 
ATOM      9  N   UNL     1     -14.422   3.222  18.352  0.00  0.00    +0.000 NA
ATOM     10  C   UNL     1     -13.636   4.287  18.519  0.00  0.00    +0.000 A 
ATOM     11  C   UNL     1     -13.539   5.318  17.575  0.00  0.00    +0.000 A 
ATOM     12  C   UNL     1     -12.882   4.364  19.682  0.00  0.00    +0.000 A 
ATOM     13  C   UNL     1     -12.698   6.418  17.869  0.00  0.00    +0.000 A 
ATOM     14  C   UNL     1     -11.976   6.503  19.054  0.00  0.00    +0.000 A 
ATOM     15  C   UNL     1     -12.027   5.437  19.944  0.00  0.00    +0.000 A 
ATOM     16  N   UNL     1     -16.013   5.221  13.880  0.00  0.00    +0.000 N 
ATOM     17  H   UNL     1     -16.334   5.169  12.919  0.00  0.00    +0.000 HD
ATOM     18  H   UNL     1     -16.075   4.351  14.408  0.00  0.00    +0.000 HD
ENDROOT
BRANCH   5  19
ATOM     19  C   UNL     1     -13.023   8.953  13.677  0.00  0.00    +0.000 A 
ATOM     20  N   UNL     1     -13.783   9.951  13.147  0.00  0.00    +0.000 NA
ATOM     21  C   UNL     1     -13.130  11.048  12.706  0.00  0.00    +0.000 A 
ATOM     22  C   UNL     1     -11.757  11.211  12.764  0.00  0.00    +0.000 A 
ATOM     23  C   UNL     1     -11.008  10.178  13.313  0.00  0.00    +0.000 A 
ATOM     24  C   UNL     1     -11.640   9.031  13.777  0.00  0.00    +0.000 A 
ENDBRANCH   5  19
BRANCH  14  25
ATOM     25  O   UNL     1     -11.171   7.592  19.248  0.00  0.00    +0.000 OA
ATOM     26  C   UNL     1     -10.324   7.781  18.142  0.00  0.00    +0.000 C 
ENDBRANCH  14  25
BRANCH  15  27
ATOM     27  O   UNL     1     -11.320   5.461  21.115  0.00  0.00    +0.000 OA
ATOM     28  C   UNL     1     -10.374   4.421  21.132  0.00  0.00    +0.000 C 
ENDBRANCH  15  27
TORSDOF 3
ENDMDL
MODEL 7
REMARK VINA RESULT:      -5.2      9.514     12.497
REMARK  Name = CP466722.pdbqt.pdb
REMARK  3 active torsions:
REMARK  status: ('A' for Active; 'I' for Inactive)
REMARK    1  A    between atoms: C_5  and  C_23
REMARK    2  A    between atoms: C_14  and  O_16
REMARK    3  A    between atoms: C_15  and  O_18
REMARK                            x       y       z     vdW  Elec       q    Type
REMARK                         _______ _______ _______ _____ _____    ______ ____
ROOT
ATOM      1  N   UNL     1     -14.814 -14.813  10.388  0.00  0.00    +0.000 N 
ATOM      2  N   UNL     1     -14.809 -14.589   9.053  0.00  0.00    +0.000 NA
ATOM      3  N   UNL     1     -16.789 -13.917   9.954  0.00  0.00    +0.000 NA
ATOM      4  C   UNL     1     -16.032 -14.379  10.916  0.00  0.00    +0.000 A 
ATOM      5  C   UNL     1     -16.016 -14.050   8.824  0.00  0.00    +0.000 A 
ATOM      6  C   UNL     1     -13.724 -15.439  11.080  0.00  0.00    +0.000 A 
ATOM      7  N   UNL     1     -13.917 -15.725  12.396  0.00  0.00    +0.000 NA
ATOM      8  C   UNL     1     -12.909 -16.329  13.033  0.00  0.00    +0.000 A 
ATOM      9  N   UNL     1     -11.742 -16.679  12.485  0.00  0.00    +0.000 NA
ATOM     10  C   UNL     1     -11.559 -16.395  11.194  0.00  0.00    +0.000 A 
ATOM     11  C   UNL     1     -12.526 -15.753  10.409  0.00  0.00    +0.000 A 
ATOM     12  C   UNL     1     -10.354 -16.763  10.611  0.00  0.00    +0.000 A 
ATOM     13  C   UNL     1     -12.214 -15.471   9.058  0.00  0.00    +0.000 A 
ATOM     14  C   UNL     1     -10.989 -15.809   8.495  0.00  0.00    +0.000 A 
ATOM     15  C   UNL     1     -10.071 -16.512   9.267  0.00  0.00    +0.000 A 
ATOM     16  N   UNL     1     -16.366 -14.425  12.220  0.00  0.00    +0.000 N 
ATOM     17  H   UNL     1     -17.343 -14.314  12.469  0.00  0.00    +0.000 HD
ATOM     18  H   UNL     1     -15.816 -14.998  12.859  0.00  0.00    +0.000 HD
ENDROOT
BRANCH   5  19
ATOM     19  C   UNL     1     -16.494 -13.639   7.501  0.00  0.00    +0.000 A 
ATOM     20  N   UNL     1     -17.803 -13.860   7.197  0.00  0.00    +0.000 NA
ATOM     21  C   UNL     1     -18.219 -13.474   5.971  0.00  0.00    +0.000 A 
ATOM     22  C   UNL     1     -17.404 -12.875   5.027  0.00  0.00    +0.000 A 
ATOM     23  C   UNL     1     -16.075 -12.659   5.366  0.00  0.00    +0.000 A 
ATOM     24  C   UNL     1     -15.605 -13.043   6.615  0.00  0.00    +0.000 A 
ENDBRANCH   5  19
BRANCH  14  25
ATOM     25  O   UNL     1     -10.778 -15.519   7.174  0.00  0.00    +0.000 OA
ATOM     26  C   UNL     1     -11.979 -15.619   6.451  0.00  0.00    +0.000 C 
ENDBRANCH  14  25
BRANCH  15  27
ATOM     27  O   UNL     1      -8.858 -16.887   8.754  0.00  0.00    +0.000 OA
ATOM     28  C   UNL     1      -8.704 -18.281   8.845  0.00  0.00    +0.000 C 
ENDBRANCH  15  27
TORSDOF 3
ENDMDL
MODEL 8
REMARK VINA RESULT:      -5.1     19.853     24.060
REMARK  Name = CP466722.pdbqt.pdb
REMARK  3 active torsions:
REMARK  status: ('A' for Active; 'I' for Inactive)
REMARK    1  A    between atoms: C_5  and  C_23
REMARK    2  A    between atoms: C_14  and  O_16
REMARK    3  A    between atoms: C_15  and  O_18
REMARK                            x       y       z     vdW  Elec       q    Type
REMARK                         _______ _______ _______ _____ _____    ______ ____
ROOT
ATOM      1  N   UNL     1       8.844 -10.019  11.064  0.00  0.00    +0.000 N 
ATOM      2  N   UNL     1       7.911 -10.878  11.536  0.00  0.00    +0.000 NA
ATOM      3  N   UNL     1       6.922  -8.950  10.838  0.00  0.00    +0.000 NA
ATOM      4  C   UNL     1       8.210  -8.853  10.630  0.00  0.00    +0.000 A 
ATOM      5  C   UNL     1       6.763 -10.200  11.387  0.00  0.00    +0.000 A 
ATOM      6  C   UNL     1      10.250 -10.308  11.076  0.00  0.00    +0.000 A 
ATOM      7  N   UNL     1      11.085  -9.304  10.697  0.00  0.00    +0.000 NA
ATOM      8  C   UNL     1      12.396  -9.567  10.731  0.00  0.00    +0.000 A 
ATOM      9  N   UNL     1      12.946 -10.724  11.112  0.00  0.00    +0.000 NA
ATOM     10  C   UNL     1      12.121 -11.705  11.482  0.00  0.00    +0.000 A 
ATOM     11  C   UNL     1      10.726 -11.570  11.482  0.00  0.00    +0.000 A 
ATOM     12  C   UNL     1      12.681 -12.908  11.889  0.00  0.00    +0.000 A 
ATOM     13  C   UNL     1       9.944 -12.687  11.863  0.00  0.00    +0.000 A 
ATOM     14  C   UNL     1      10.516 -13.899  12.232  0.00  0.00    +0.000 A 
ATOM     15  C   UNL     1      11.901 -13.991  12.298  0.00  0.00    +0.000 A 
ATOM     16  N   UNL     1       8.836  -7.797  10.075  0.00  0.00    +0.000 N 
ATOM     17  H   UNL     1       8.332  -6.918  10.016  0.00  0.00    +0.000 HD
ATOM     18  H   UNL     1       9.849  -7.714  10.156  0.00  0.00    +0.000 HD
ENDROOT
BRANCH   5  19
ATOM     19  C   UNL     1       5.447 -10.719  11.773  0.00  0.00    +0.000 A 
ATOM     20  N   UNL     1       5.282 -12.070  11.820  0.00  0.00    +0.000 NA
ATOM     21  C   UNL     1       4.060 -12.523  12.177  0.00  0.00    +0.000 A 
ATOM     22  C   UNL     1       2.990 -11.706  12.493  0.00  0.00    +0.000 A 
ATOM     23  C   UNL     1       3.189 -10.332  12.439  0.00  0.00    +0.000 A 
ATOM     24  C   UNL     1       4.429  -9.824  12.075  0.00  0.00    +0.000 A 
ENDBRANCH   5  19
BRANCH  14  25
ATOM     25  O   UNL     1       9.686 -14.921  12.607  0.00  0.00    +0.000 OA
ATOM     26  C   UNL     1       9.115 -15.531  11.477  0.00  0.00    +0.000 C 
ENDBRANCH  14  25
BRANCH  15  27
ATOM     27  O   UNL     1      12.513 -15.156  12.675  0.00  0.00    +0.000 OA
ATOM     28  C   UNL     1      12.970 -15.852  11.542  0.00  0.00    +0.000 C 
ENDBRANCH  15  27
TORSDOF 3
ENDMDL
MODEL 9
REMARK VINA RESULT:      -5.1     12.637     15.417
REMARK  Name = CP466722.pdbqt.pdb
REMARK  3 active torsions:
REMARK  status: ('A' for Active; 'I' for Inactive)
REMARK    1  A    between atoms: C_5  and  C_23
REMARK    2  A    between atoms: C_14  and  O_16
REMARK    3  A    between atoms: C_15  and  O_18
REMARK                            x       y       z     vdW  Elec       q    Type
REMARK                         _______ _______ _______ _____ _____    ______ ____
ROOT
ATOM      1  N   UNL     1     -10.143 -17.512   9.820  0.00  0.00    +0.000 N 
ATOM      2  N   UNL     1     -11.014 -17.771  10.823  0.00  0.00    +0.000 NA
ATOM      3  N   UNL     1     -11.158 -15.585  10.204  0.00  0.00    +0.000 NA
ATOM      4  C   UNL     1     -10.262 -16.170   9.451  0.00  0.00    +0.000 A 
ATOM      5  C   UNL     1     -11.608 -16.587  11.032  0.00  0.00    +0.000 A 
ATOM      6  C   UNL     1      -9.239 -18.495   9.295  0.00  0.00    +0.000 A 
ATOM      7  N   UNL     1      -8.326 -18.064   8.384  0.00  0.00    +0.000 NA
ATOM      8  C   UNL     1      -7.470 -18.977   7.913  0.00  0.00    +0.000 A 
ATOM      9  N   UNL     1      -7.433 -20.264   8.270  0.00  0.00    +0.000 NA
ATOM     10  C   UNL     1      -8.332 -20.681   9.165  0.00  0.00    +0.000 A 
ATOM     11  C   UNL     1      -9.295 -19.834   9.729  0.00  0.00    +0.000 A 
ATOM     12  C   UNL     1      -8.297 -22.014   9.550  0.00  0.00    +0.000 A 
ATOM     13  C   UNL     1     -10.221 -20.389  10.645  0.00  0.00    +0.000 A 
ATOM     14  C   UNL     1     -10.201 -21.734  10.994  0.00  0.00    +0.000 A 
ATOM     15  C   UNL     1      -9.193 -22.542  10.482  0.00  0.00    +0.000 A 
ATOM     16  N   UNL     1      -9.563 -15.578   8.462  0.00  0.00    +0.000 N 
ATOM     17  H   UNL     1      -9.544 -14.564   8.430  0.00  0.00    +0.000 HD
ATOM     18  H   UNL     1      -8.739 -16.042   8.083  0.00  0.00    +0.000 HD
ENDROOT
BRANCH   5  19
ATOM     19  C   UNL     1     -12.641 -16.353  12.046  0.00  0.00    +0.000 A 
ATOM     20  N   UNL     1     -13.630 -15.464  11.758  0.00  0.00    +0.000 NA
ATOM     21  C   UNL     1     -14.569 -15.265  12.709  0.00  0.00    +0.000 A 
ATOM     22  C   UNL     1     -14.581 -15.906  13.935  0.00  0.00    +0.000 A 
ATOM     23  C   UNL     1     -13.561 -16.810  14.200  0.00  0.00    +0.000 A 
ATOM     24  C   UNL     1     -12.574 -17.043  13.250  0.00  0.00    +0.000 A 
ENDBRANCH   5  19
BRANCH  14  25
ATOM     25  O   UNL     1     -11.120 -22.183  11.904  0.00  0.00    +0.000 OA
ATOM     26  C   UNL     1     -12.144 -21.236  12.077  0.00  0.00    +0.000 C 
ENDBRANCH  14  25
BRANCH  15  27
ATOM     27  O   UNL     1      -9.117 -23.868  10.811  0.00  0.00    +0.000 OA
ATOM     28  C   UNL     1      -7.930 -24.125  11.520  0.00  0.00    +0.000 C 
ENDBRANCH  15  27
TORSDOF 3
ENDMDL
