MODEL 1
REMARK VINA RESULT:      -6.0      0.000      0.000
REMARK  Name = Curcumin.pdbqt.pdb
REMARK  8 active torsions:
REMARK  status: ('A' for Active; 'I' for Inactive)
REMARK    1  A    between atoms: C_2  and  C_4
REMARK    2  A    between atoms: C_5  and  C_6
REMARK    3  A    between atoms: C_8  and  O_12
REMARK    4  A    between atoms: C_9  and  O_14
REMARK    5  A    between atoms: C_16  and  C_18
REMARK    6  A    between atoms: C_19  and  C_20
REMARK    7  A    between atoms: C_22  and  O_26
REMARK    8  A    between atoms: C_23  and  O_28
REMARK                            x       y       z     vdW  Elec       q    Type
REMARK                         _______ _______ _______ _____ _____    ______ ____
ROOT
ATOM      1  C   UNL     1     -10.571 -15.784   8.213  0.00  0.00    +0.000 C 
ATOM      2  C   UNL     1     -11.061 -15.371   6.940  0.00  0.00    +0.000 C 
ATOM      3  O   UNL     1     -12.264 -15.375   6.724  0.00  0.00    +0.000 OA
ATOM      4  C   UNL     1     -10.083 -16.200   9.485  0.00  0.00    +0.000 C 
ATOM      5  O   UNL     1      -8.904 -16.498   9.615  0.00  0.00    +0.000 OA
ENDROOT
BRANCH   2   6
ATOM      6  C   UNL     1     -10.136 -14.950   5.918  0.00  0.00    +0.000 C 
ATOM      7  C   UNL     1      -9.364 -14.600   5.067  0.00  0.00    +0.000 C 
BRANCH   7   8
ATOM      8  C   UNL     1      -8.449 -14.185   4.055  0.00  0.00    +0.000 A 
ATOM      9  C   UNL     1      -8.455 -12.864   3.612  0.00  0.00    +0.000 A 
ATOM     10  C   UNL     1      -7.564 -12.439   2.621  0.00  0.00    +0.000 A 
ATOM     11  C   UNL     1      -6.668 -13.368   2.081  0.00  0.00    +0.000 A 
ATOM     12  C   UNL     1      -6.660 -14.690   2.522  0.00  0.00    +0.000 A 
ATOM     13  C   UNL     1      -7.552 -15.100   3.510  0.00  0.00    +0.000 A 
BRANCH  10  14
ATOM     14  O   UNL     1      -7.511 -11.157   2.137  0.00  0.00    +0.000 OA
ATOM     15  C   UNL     1      -8.542 -10.783   1.267  0.00  0.00    +0.000 C 
ENDBRANCH  10  14
BRANCH  11  16
ATOM     16  O   UNL     1      -5.762 -13.047   1.109  0.00  0.00    +0.000 OA
ATOM     17  H   UNL     1      -4.862 -13.294   1.382  0.00  0.00    +0.000 HD
ENDBRANCH  11  16
ENDBRANCH   7   8
ENDBRANCH   2   6
BRANCH   4  18
ATOM     18  C   UNL     1     -10.981 -16.267  10.610  0.00  0.00    +0.000 C 
ATOM     19  C   UNL     1     -11.735 -16.323  11.545  0.00  0.00    +0.000 C 
BRANCH  19  20
ATOM     20  C   UNL     1     -12.630 -16.387  12.651  0.00  0.00    +0.000 A 
ATOM     21  C   UNL     1     -13.722 -15.521  12.712  0.00  0.00    +0.000 A 
ATOM     22  C   UNL     1     -14.610 -15.571  13.790  0.00  0.00    +0.000 A 
ATOM     23  C   UNL     1     -14.382 -16.506  14.804  0.00  0.00    +0.000 A 
ATOM     24  C   UNL     1     -13.292 -17.374  14.748  0.00  0.00    +0.000 A 
ATOM     25  C   UNL     1     -12.416 -17.313  13.669  0.00  0.00    +0.000 A 
BRANCH  22  26
ATOM     26  O   UNL     1     -15.708 -14.757  13.928  0.00  0.00    +0.000 OA
ATOM     27  C   UNL     1     -16.337 -14.383  12.730  0.00  0.00    +0.000 C 
ENDBRANCH  22  26
BRANCH  23  28
ATOM     28  O   UNL     1     -15.240 -16.571  15.868  0.00  0.00    +0.000 OA
ATOM     29  H   UNL     1     -15.379 -17.507  16.100  0.00  0.00    +0.000 HD
ENDBRANCH  23  28
ENDBRANCH  19  20
ENDBRANCH   4  18
TORSDOF 8
ENDMDL
MODEL 2
REMARK VINA RESULT:      -6.0      0.133     11.600
REMARK  Name = Curcumin.pdbqt.pdb
REMARK  8 active torsions:
REMARK  status: ('A' for Active; 'I' for Inactive)
REMARK    1  A    between atoms: C_2  and  C_4
REMARK    2  A    between atoms: C_5  and  C_6
REMARK    3  A    between atoms: C_8  and  O_12
REMARK    4  A    between atoms: C_9  and  O_14
REMARK    5  A    between atoms: C_16  and  C_18
REMARK    6  A    between atoms: C_19  and  C_20
REMARK    7  A    between atoms: C_22  and  O_26
REMARK    8  A    between atoms: C_23  and  O_28
REMARK                            x       y       z     vdW  Elec       q    Type
REMARK                         _______ _______ _______ _____ _____    ______ ____
ROOT
ATOM      1  C   UNL     1     -10.581 -15.832   8.216  0.00  0.00    +0.000 C 
ATOM      2  C   UNL     1     -10.094 -16.297   9.472  0.00  0.00    +0.000 C 
ATOM      3  O   UNL     1      -8.927 -16.643   9.577  0.00  0.00    +0.000 OA
ATOM      4  C   UNL     1     -11.068 -15.370   6.959  0.00  0.00    +0.000 C 
ATOM      5  O   UNL     1     -12.273 -15.320   6.755  0.00  0.00    +0.000 OA
ENDROOT
BRANCH   2   6
ATOM      6  C   UNL     1     -10.979 -16.353  10.608  0.00  0.00    +0.000 C 
ATOM      7  C   UNL     1     -11.718 -16.400  11.554  0.00  0.00    +0.000 C 
BRANCH   7   8
ATOM      8  C   UNL     1     -12.594 -16.457  12.678  0.00  0.00    +0.000 A 
ATOM      9  C   UNL     1     -13.650 -15.554  12.783  0.00  0.00    +0.000 A 
ATOM     10  C   UNL     1     -14.519 -15.596  13.878  0.00  0.00    +0.000 A 
ATOM     11  C   UNL     1     -14.307 -16.562  14.866  0.00  0.00    +0.000 A 
ATOM     12  C   UNL     1     -13.251 -17.467  14.764  0.00  0.00    +0.000 A 
ATOM     13  C   UNL     1     -12.394 -17.414  13.668  0.00  0.00    +0.000 A 
BRANCH  10  14
ATOM     14  O   UNL     1     -15.579 -14.742  14.048  0.00  0.00    +0.000 OA
ATOM     15  C   UNL     1     -16.540 -14.741  13.030  0.00  0.00    +0.000 C 
ENDBRANCH  10  14
BRANCH  11  16
ATOM     16  O   UNL     1     -15.103 -16.681  15.972  0.00  0.00    +0.000 OA
ATOM     17  H   UNL     1     -14.570 -16.892  16.757  0.00  0.00    +0.000 HD
ENDBRANCH  11  16
ENDBRANCH   7   8
ENDBRANCH   2   6
BRANCH   4  18
ATOM     18  C   UNL     1     -10.137 -14.966   5.936  0.00  0.00    +0.000 C 
ATOM     19  C   UNL     1      -9.364 -14.625   5.082  0.00  0.00    +0.000 C 
BRANCH  19  20
ATOM     20  C   UNL     1      -8.449 -14.218   4.068  0.00  0.00    +0.000 A 
ATOM     21  C   UNL     1      -8.455 -12.899   3.616  0.00  0.00    +0.000 A 
ATOM     22  C   UNL     1      -7.564 -12.483   2.622  0.00  0.00    +0.000 A 
ATOM     23  C   UNL     1      -6.668 -13.416   2.092  0.00  0.00    +0.000 A 
ATOM     24  C   UNL     1      -6.658 -14.736   2.540  0.00  0.00    +0.000 A 
ATOM     25  C   UNL     1      -7.550 -15.136   3.530  0.00  0.00    +0.000 A 
BRANCH  22  26
ATOM     26  O   UNL     1      -7.504 -11.206   2.121  0.00  0.00    +0.000 OA
ATOM     27  C   UNL     1      -8.586 -10.820   1.314  0.00  0.00    +0.000 C 
ENDBRANCH  22  26
BRANCH  23  28
ATOM     28  O   UNL     1      -5.789 -13.029   1.118  0.00  0.00    +0.000 OA
ATOM     29  H   UNL     1      -5.746 -12.055   1.105  0.00  0.00    +0.000 HD
ENDBRANCH  23  28
ENDBRANCH  19  20
ENDBRANCH   4  18
TORSDOF 8
ENDMDL
MODEL 3
REMARK VINA RESULT:      -5.5     15.657     17.626
REMARK  Name = Curcumin.pdbqt.pdb
REMARK  8 active torsions:
REMARK  status: ('A' for Active; 'I' for Inactive)
REMARK    1  A    between atoms: C_2  and  C_4
REMARK    2  A    between atoms: C_5  and  C_6
REMARK    3  A    between atoms: C_8  and  O_12
REMARK    4  A    between atoms: C_9  and  O_14
REMARK    5  A    between atoms: C_16  and  C_18
REMARK    6  A    between atoms: C_19  and  C_20
REMARK    7  A    between atoms: C_22  and  O_26
REMARK    8  A    between atoms: C_23  and  O_28
REMARK                            x       y       z     vdW  Elec       q    Type
REMARK                         _______ _______ _______ _____ _____    ______ ____
ROOT
ATOM      1  C   UNL     1       5.090 -11.549  11.873  0.00  0.00    +0.000 C 
ATOM      2  C   UNL     1       6.253 -10.764  11.623  0.00  0.00    +0.000 C 
ATOM      3  O   UNL     1       7.359 -11.233  11.848  0.00  0.00    +0.000 OA
ATOM      4  C   UNL     1       3.928 -12.333  12.126  0.00  0.00    +0.000 C 
ATOM      5  O   UNL     1       2.835 -11.791  12.207  0.00  0.00    +0.000 OA
ENDROOT
BRANCH   2   6
ATOM      6  C   UNL     1       6.118  -9.426  11.105  0.00  0.00    +0.000 C 
ATOM      7  C   UNL     1       6.007  -8.311  10.674  0.00  0.00    +0.000 C 
BRANCH   7   8
ATOM      8  C   UNL     1       5.874  -6.987  10.159  0.00  0.00    +0.000 A 
ATOM      9  C   UNL     1       6.343  -5.903  10.899  0.00  0.00    +0.000 A 
ATOM     10  C   UNL     1       6.222  -4.599  10.410  0.00  0.00    +0.000 A 
ATOM     11  C   UNL     1       5.620  -4.403   9.163  0.00  0.00    +0.000 A 
ATOM     12  C   UNL     1       5.149  -5.485   8.420  0.00  0.00    +0.000 A 
ATOM     13  C   UNL     1       5.277  -6.779   8.919  0.00  0.00    +0.000 A 
BRANCH  10  14
ATOM     14  O   UNL     1       6.661  -3.485  11.081  0.00  0.00    +0.000 OA
ATOM     15  C   UNL     1       8.047  -3.304  11.134  0.00  0.00    +0.000 C 
ENDBRANCH  10  14
BRANCH  11  16
ATOM     16  O   UNL     1       5.457  -3.166   8.603  0.00  0.00    +0.000 OA
ATOM     17  H   UNL     1       5.634  -2.468   9.256  0.00  0.00    +0.000 HD
ENDBRANCH  11  16
ENDBRANCH   7   8
ENDBRANCH   2   6
BRANCH   4  18
ATOM     18  C   UNL     1       4.048 -13.760  12.285  0.00  0.00    +0.000 C 
ATOM     19  C   UNL     1       4.151 -14.951  12.414  0.00  0.00    +0.000 C 
BRANCH  19  20
ATOM     20  C   UNL     1       4.274 -16.363  12.563  0.00  0.00    +0.000 A 
ATOM     21  C   UNL     1       3.129 -17.158  12.611  0.00  0.00    +0.000 A 
ATOM     22  C   UNL     1       3.232 -18.544  12.756  0.00  0.00    +0.000 A 
ATOM     23  C   UNL     1       4.503 -19.116  12.852  0.00  0.00    +0.000 A 
ATOM     24  C   UNL     1       5.651 -18.326  12.805  0.00  0.00    +0.000 A 
ATOM     25  C   UNL     1       5.535 -16.947  12.660  0.00  0.00    +0.000 A 
BRANCH  22  26
ATOM     26  O   UNL     1       2.158 -19.399  12.813  0.00  0.00    +0.000 OA
ATOM     27  C   UNL     1       1.448 -19.399  14.024  0.00  0.00    +0.000 C 
ENDBRANCH  22  26
BRANCH  23  28
ATOM     28  O   UNL     1       4.625 -20.471  12.995  0.00  0.00    +0.000 OA
ATOM     29  H   UNL     1       4.157 -20.742  13.806  0.00  0.00    +0.000 HD
ENDBRANCH  23  28
ENDBRANCH  19  20
ENDBRANCH   4  18
TORSDOF 8
ENDMDL
MODEL 4
REMARK VINA RESULT:      -5.5     15.635     19.347
REMARK  Name = Curcumin.pdbqt.pdb
REMARK  8 active torsions:
REMARK  status: ('A' for Active; 'I' for Inactive)
REMARK    1  A    between atoms: C_2  and  C_4
REMARK    2  A    between atoms: C_5  and  C_6
REMARK    3  A    between atoms: C_8  and  O_12
REMARK    4  A    between atoms: C_9  and  O_14
REMARK    5  A    between atoms: C_16  and  C_18
REMARK    6  A    between atoms: C_19  and  C_20
REMARK    7  A    between atoms: C_22  and  O_26
REMARK    8  A    between atoms: C_23  and  O_28
REMARK                            x       y       z     vdW  Elec       q    Type
REMARK                         _______ _______ _______ _____ _____    ______ ____
ROOT
ATOM      1  C   UNL     1       5.095 -11.551  11.862  0.00  0.00    +0.000 C 
ATOM      2  C   UNL     1       3.929 -12.324  12.136  0.00  0.00    +0.000 C 
ATOM      3  O   UNL     1       2.845 -11.770  12.237  0.00  0.00    +0.000 OA
ATOM      4  C   UNL     1       6.260 -10.776  11.591  0.00  0.00    +0.000 C 
ATOM      5  O   UNL     1       7.367 -11.254  11.794  0.00  0.00    +0.000 OA
ENDROOT
BRANCH   2   6
ATOM      6  C   UNL     1       4.037 -13.753  12.290  0.00  0.00    +0.000 C 
ATOM      7  C   UNL     1       4.128 -14.944  12.419  0.00  0.00    +0.000 C 
BRANCH   7   8
ATOM      8  C   UNL     1       4.235 -16.358  12.574  0.00  0.00    +0.000 A 
ATOM      9  C   UNL     1       3.083 -17.139  12.632  0.00  0.00    +0.000 A 
ATOM     10  C   UNL     1       3.168 -18.527  12.782  0.00  0.00    +0.000 A 
ATOM     11  C   UNL     1       4.434 -19.115  12.875  0.00  0.00    +0.000 A 
ATOM     12  C   UNL     1       5.588 -18.336  12.818  0.00  0.00    +0.000 A 
ATOM     13  C   UNL     1       5.488 -16.955  12.667  0.00  0.00    +0.000 A 
BRANCH  10  14
ATOM     14  O   UNL     1       2.080 -19.360  12.846  0.00  0.00    +0.000 OA
ATOM     15  C   UNL     1       1.430 -19.430  14.083  0.00  0.00    +0.000 C 
ENDBRANCH  10  14
BRANCH  11  16
ATOM     16  O   UNL     1       4.618 -20.462  13.024  0.00  0.00    +0.000 OA
ATOM     17  H   UNL     1       3.804 -20.946  12.805  0.00  0.00    +0.000 HD
ENDBRANCH  11  16
ENDBRANCH   7   8
ENDBRANCH   2   6
BRANCH   4  18
ATOM     18  C   UNL     1       6.125  -9.436  11.079  0.00  0.00    +0.000 C 
ATOM     19  C   UNL     1       6.008  -8.320  10.650  0.00  0.00    +0.000 C 
BRANCH  19  20
ATOM     20  C   UNL     1       5.868  -6.997  10.138  0.00  0.00    +0.000 A 
ATOM     21  C   UNL     1       6.337  -5.913  10.878  0.00  0.00    +0.000 A 
ATOM     22  C   UNL     1       6.208  -4.610  10.391  0.00  0.00    +0.000 A 
ATOM     23  C   UNL     1       5.601  -4.416   9.147  0.00  0.00    +0.000 A 
ATOM     24  C   UNL     1       5.130  -5.496   8.402  0.00  0.00    +0.000 A 
ATOM     25  C   UNL     1       5.265  -6.789   8.899  0.00  0.00    +0.000 A 
BRANCH  22  26
ATOM     26  O   UNL     1       6.641  -3.488  11.055  0.00  0.00    +0.000 OA
ATOM     27  C   UNL     1       8.034  -3.343  11.154  0.00  0.00    +0.000 C 
ENDBRANCH  22  26
BRANCH  23  28
ATOM     28  O   UNL     1       5.464  -3.148   8.652  0.00  0.00    +0.000 OA
ATOM     29  H   UNL     1       4.653  -2.754   9.022  0.00  0.00    +0.000 HD
ENDBRANCH  23  28
ENDBRANCH  19  20
ENDBRANCH   4  18
TORSDOF 8
ENDMDL
MODEL 5
REMARK VINA RESULT:      -5.5      1.541      1.997
REMARK  Name = Curcumin.pdbqt.pdb
REMARK  8 active torsions:
REMARK  status: ('A' for Active; 'I' for Inactive)
REMARK    1  A    between atoms: C_2  and  C_4
REMARK    2  A    between atoms: C_5  and  C_6
REMARK    3  A    between atoms: C_8  and  O_12
REMARK    4  A    between atoms: C_9  and  O_14
REMARK    5  A    between atoms: C_16  and  C_18
REMARK    6  A    between atoms: C_19  and  C_20
REMARK    7  A    between atoms: C_22  and  O_26
REMARK    8  A    between atoms: C_23  and  O_28
REMARK                            x       y       z     vdW  Elec       q    Type
REMARK                         _______ _______ _______ _____ _____    ______ ____
ROOT
ATOM      1  C   UNL     1      -9.900 -16.283   7.212  0.00  0.00    +0.000 C 
ATOM      2  C   UNL     1     -10.127 -15.744   5.913  0.00  0.00    +0.000 C 
ATOM      3  O   UNL     1     -11.242 -15.347   5.608  0.00  0.00    +0.000 OA
ATOM      4  C   UNL     1      -9.676 -16.826   8.511  0.00  0.00    +0.000 C 
ATOM      5  O   UNL     1      -8.678 -17.499   8.723  0.00  0.00    +0.000 OA
ENDROOT
BRANCH   2   6
ATOM      6  C   UNL     1      -9.041 -15.666   4.969  0.00  0.00    +0.000 C 
ATOM      7  C   UNL     1      -8.136 -15.604   4.182  0.00  0.00    +0.000 C 
BRANCH   7   8
ATOM      8  C   UNL     1      -7.062 -15.528   3.246  0.00  0.00    +0.000 A 
ATOM      9  C   UNL     1      -7.033 -14.502   2.304  0.00  0.00    +0.000 A 
ATOM     10  C   UNL     1      -5.988 -14.411   1.379  0.00  0.00    +0.000 A 
ATOM     11  C   UNL     1      -4.972 -15.372   1.417  0.00  0.00    +0.000 A 
ATOM     12  C   UNL     1      -5.000 -16.400   2.358  0.00  0.00    +0.000 A 
ATOM     13  C   UNL     1      -6.046 -16.478   3.274  0.00  0.00    +0.000 A 
BRANCH  10  14
ATOM     14  O   UNL     1      -5.891 -13.429   0.425  0.00  0.00    +0.000 OA
ATOM     15  C   UNL     1      -6.947 -13.355  -0.491  0.00  0.00    +0.000 C 
ENDBRANCH  10  14
BRANCH  11  16
ATOM     16  O   UNL     1      -3.912 -15.367   0.555  0.00  0.00    +0.000 OA
ATOM     17  H   UNL     1      -4.136 -14.890  -0.263  0.00  0.00    +0.000 HD
ENDBRANCH  11  16
ENDBRANCH   7   8
ENDBRANCH   2   6
BRANCH   4  18
ATOM     18  C   UNL     1     -10.627 -16.577   9.564  0.00  0.00    +0.000 C 
ATOM     19  C   UNL     1     -11.420 -16.374  10.444  0.00  0.00    +0.000 C 
BRANCH  19  20
ATOM     20  C   UNL     1     -12.362 -16.136  11.487  0.00  0.00    +0.000 A 
ATOM     21  C   UNL     1     -13.480 -15.339  11.245  0.00  0.00    +0.000 A 
ATOM     22  C   UNL     1     -14.413 -15.096  12.257  0.00  0.00    +0.000 A 
ATOM     23  C   UNL     1     -14.203 -15.669  13.514  0.00  0.00    +0.000 A 
ATOM     24  C   UNL     1     -13.087 -16.467  13.762  0.00  0.00    +0.000 A 
ATOM     25  C   UNL     1     -12.166 -16.701  12.745  0.00  0.00    +0.000 A 
BRANCH  22  26
ATOM     26  O   UNL     1     -15.539 -14.324  12.103  0.00  0.00    +0.000 OA
ATOM     27  C   UNL     1     -16.327 -14.620  10.979  0.00  0.00    +0.000 C 
ENDBRANCH  22  26
BRANCH  23  28
ATOM     28  O   UNL     1     -15.105 -15.444  14.518  0.00  0.00    +0.000 OA
ATOM     29  H   UNL     1     -15.739 -14.767  14.221  0.00  0.00    +0.000 HD
ENDBRANCH  23  28
ENDBRANCH  19  20
ENDBRANCH   4  18
TORSDOF 8
ENDMDL
MODEL 6
REMARK VINA RESULT:      -5.4     21.508     24.987
REMARK  Name = Curcumin.pdbqt.pdb
REMARK  8 active torsions:
REMARK  status: ('A' for Active; 'I' for Inactive)
REMARK    1  A    between atoms: C_2  and  C_4
REMARK    2  A    between atoms: C_5  and  C_6
REMARK    3  A    between atoms: C_8  and  O_12
REMARK    4  A    between atoms: C_9  and  O_14
REMARK    5  A    between atoms: C_16  and  C_18
REMARK    6  A    between atoms: C_19  and  C_20
REMARK    7  A    between atoms: C_22  and  O_26
REMARK    8  A    between atoms: C_23  and  O_28
REMARK                            x       y       z     vdW  Elec       q    Type
REMARK                         _______ _______ _______ _____ _____    ______ ____
ROOT
ATOM      1  C   UNL     1       6.051   1.114  10.401  0.00  0.00    +0.000 C 
ATOM      2  C   UNL     1       4.991   2.063  10.316  0.00  0.00    +0.000 C 
ATOM      3  O   UNL     1       4.014   1.817   9.624  0.00  0.00    +0.000 OA
ATOM      4  C   UNL     1       7.112   0.167  10.483  0.00  0.00    +0.000 C 
ATOM      5  O   UNL     1       8.207   0.516  10.901  0.00  0.00    +0.000 OA
ENDROOT
BRANCH   2   6
ATOM      6  C   UNL     1       5.077   3.302  11.046  0.00  0.00    +0.000 C 
ATOM      7  C   UNL     1       5.147   4.336  11.654  0.00  0.00    +0.000 C 
BRANCH   7   8
ATOM      8  C   UNL     1       5.229   5.562  12.377  0.00  0.00    +0.000 A 
ATOM      9  C   UNL     1       5.837   5.591  13.630  0.00  0.00    +0.000 A 
ATOM     10  C   UNL     1       5.927   6.784  14.354  0.00  0.00    +0.000 A 
ATOM     11  C   UNL     1       5.394   7.950  13.794  0.00  0.00    +0.000 A 
ATOM     12  C   UNL     1       4.785   7.924  12.540  0.00  0.00    +0.000 A 
ATOM     13  C   UNL     1       4.702   6.729  11.831  0.00  0.00    +0.000 A 
BRANCH  10  14
ATOM     14  O   UNL     1       6.511   6.888  15.591  0.00  0.00    +0.000 OA
ATOM     15  C   UNL     1       7.880   6.601  15.652  0.00  0.00    +0.000 C 
ENDBRANCH  10  14
BRANCH  11  16
ATOM     16  O   UNL     1       5.434   9.162  14.425  0.00  0.00    +0.000 OA
ATOM     17  H   UNL     1       4.653   9.281  14.990  0.00  0.00    +0.000 HD
ENDBRANCH  11  16
ENDBRANCH   7   8
ENDBRANCH   2   6
BRANCH   4  18
ATOM     18  C   UNL     1       6.888  -1.196  10.072  0.00  0.00    +0.000 C 
ATOM     19  C   UNL     1       6.704  -2.332   9.726  0.00  0.00    +0.000 C 
BRANCH  19  20
ATOM     20  C   UNL     1       6.489  -3.679   9.314  0.00  0.00    +0.000 A 
ATOM     21  C   UNL     1       7.566  -4.561   9.233  0.00  0.00    +0.000 A 
ATOM     22  C   UNL     1       7.372  -5.885   8.830  0.00  0.00    +0.000 A 
ATOM     23  C   UNL     1       6.078  -6.307   8.512  0.00  0.00    +0.000 A 
ATOM     24  C   UNL     1       4.998  -5.430   8.591  0.00  0.00    +0.000 A 
ATOM     25  C   UNL     1       5.205  -4.114   8.993  0.00  0.00    +0.000 A 
BRANCH  22  26
ATOM     26  O   UNL     1       8.376  -6.817   8.723  0.00  0.00    +0.000 OA
ATOM     27  C   UNL     1       9.144  -7.015   9.882  0.00  0.00    +0.000 C 
ENDBRANCH  22  26
BRANCH  23  28
ATOM     28  O   UNL     1       5.868  -7.599   8.115  0.00  0.00    +0.000 OA
ATOM     29  H   UNL     1       5.934  -7.642   7.144  0.00  0.00    +0.000 HD
ENDBRANCH  23  28
ENDBRANCH  19  20
ENDBRANCH   4  18
TORSDOF 8
ENDMDL
MODEL 7
REMARK VINA RESULT:      -5.4     23.492     26.516
REMARK  Name = Curcumin.pdbqt.pdb
REMARK  8 active torsions:
REMARK  status: ('A' for Active; 'I' for Inactive)
REMARK    1  A    between atoms: C_2  and  C_4
REMARK    2  A    between atoms: C_5  and  C_6
REMARK    3  A    between atoms: C_8  and  O_12
REMARK    4  A    between atoms: C_9  and  O_14
REMARK    5  A    between atoms: C_16  and  C_18
REMARK    6  A    between atoms: C_19  and  C_20
REMARK    7  A    between atoms: C_22  and  O_26
REMARK    8  A    between atoms: C_23  and  O_28
REMARK                            x       y       z     vdW  Elec       q    Type
REMARK                         _______ _______ _______ _____ _____    ______ ____
ROOT
ATOM      1  C   UNL     1       5.122   3.401  11.027  0.00  0.00    +0.000 C 
ATOM      2  C   UNL     1       5.135   4.194  12.211  0.00  0.00    +0.000 C 
ATOM      3  O   UNL     1       5.258   5.407  12.125  0.00  0.00    +0.000 OA
ATOM      4  C   UNL     1       5.114   2.608   9.843  0.00  0.00    +0.000 C 
ATOM      5  O   UNL     1       5.304   1.403   9.917  0.00  0.00    +0.000 OA
ENDROOT
BRANCH   2   6
ATOM      6  C   UNL     1       4.999   3.562  13.499  0.00  0.00    +0.000 C 
ATOM      7  C   UNL     1       4.887   3.037  14.573  0.00  0.00    +0.000 C 
BRANCH   7   8
ATOM      8  C   UNL     1       4.752   2.414  15.849  0.00  0.00    +0.000 A 
ATOM      9  C   UNL     1       5.190   1.104  16.033  0.00  0.00    +0.000 A 
ATOM     10  C   UNL     1       5.067   0.477  17.277  0.00  0.00    +0.000 A 
ATOM     11  C   UNL     1       4.493   1.191  18.334  0.00  0.00    +0.000 A 
ATOM     12  C   UNL     1       4.054   2.502  18.153  0.00  0.00    +0.000 A 
ATOM     13  C   UNL     1       4.184   3.114  16.909  0.00  0.00    +0.000 A 
BRANCH  10  14
ATOM     14  O   UNL     1       5.475  -0.807  17.532  0.00  0.00    +0.000 OA
ATOM     15  C   UNL     1       6.797  -1.113  17.188  0.00  0.00    +0.000 C 
ENDBRANCH  10  14
BRANCH  11  16
ATOM     16  O   UNL     1       4.330   0.663  19.585  0.00  0.00    +0.000 OA
ATOM     17  H   UNL     1       4.652   1.281  20.263  0.00  0.00    +0.000 HD
ENDBRANCH  11  16
ENDBRANCH   7   8
ENDBRANCH   2   6
BRANCH   4  18
ATOM     18  C   UNL     1       4.880   3.233   8.566  0.00  0.00    +0.000 C 
ATOM     19  C   UNL     1       4.689   3.753   7.499  0.00  0.00    +0.000 C 
BRANCH  19  20
ATOM     20  C   UNL     1       4.466   4.368   6.233  0.00  0.00    +0.000 A 
ATOM     21  C   UNL     1       4.620   3.625   5.063  0.00  0.00    +0.000 A 
ATOM     22  C   UNL     1       4.405   4.213   3.814  0.00  0.00    +0.000 A 
ATOM     23  C   UNL     1       4.032   5.559   3.761  0.00  0.00    +0.000 A 
ATOM     24  C   UNL     1       3.877   6.307   4.927  0.00  0.00    +0.000 A 
ATOM     25  C   UNL     1       4.094   5.709   6.165  0.00  0.00    +0.000 A 
BRANCH  22  26
ATOM     26  O   UNL     1       4.535   3.555   2.615  0.00  0.00    +0.000 OA
ATOM     27  C   UNL     1       5.738   2.853   2.438  0.00  0.00    +0.000 C 
ENDBRANCH  22  26
BRANCH  23  28
ATOM     28  O   UNL     1       3.818   6.153   2.548  0.00  0.00    +0.000 OA
ATOM     29  H   UNL     1       3.543   7.076   2.697  0.00  0.00    +0.000 HD
ENDBRANCH  23  28
ENDBRANCH  19  20
ENDBRANCH   4  18
TORSDOF 8
ENDMDL
MODEL 8
REMARK VINA RESULT:      -5.2      4.040      7.468
REMARK  Name = Curcumin.pdbqt.pdb
REMARK  8 active torsions:
REMARK  status: ('A' for Active; 'I' for Inactive)
REMARK    1  A    between atoms: C_2  and  C_4
REMARK    2  A    between atoms: C_5  and  C_6
REMARK    3  A    between atoms: C_8  and  O_12
REMARK    4  A    between atoms: C_9  and  O_14
REMARK    5  A    between atoms: C_16  and  C_18
REMARK    6  A    between atoms: C_19  and  C_20
REMARK    7  A    between atoms: C_22  and  O_26
REMARK    8  A    between atoms: C_23  and  O_28
REMARK                            x       y       z     vdW  Elec       q    Type
REMARK                         _______ _______ _______ _____ _____    ______ ____
ROOT
ATOM      1  C   UNL     1     -14.530 -15.774  13.907  0.00  0.00    +0.000 C 
ATOM      2  C   UNL     1     -14.755 -15.180  12.631  0.00  0.00    +0.000 C 
ATOM      3  O   UNL     1     -15.739 -14.477  12.456  0.00  0.00    +0.000 OA
ATOM      4  C   UNL     1     -14.308 -16.371  15.182  0.00  0.00    +0.000 C 
ATOM      5  O   UNL     1     -13.526 -17.305  15.287  0.00  0.00    +0.000 OA
ENDROOT
BRANCH   2   6
ATOM      6  C   UNL     1     -13.820 -15.408  11.559  0.00  0.00    +0.000 C 
ATOM      7  C   UNL     1     -13.040 -15.596  10.665  0.00  0.00    +0.000 C 
BRANCH   7   8
ATOM      8  C   UNL     1     -12.112 -15.821   9.605  0.00  0.00    +0.000 A 
ATOM      9  C   UNL     1     -10.866 -16.381   9.879  0.00  0.00    +0.000 A 
ATOM     10  C   UNL     1      -9.945 -16.609   8.852  0.00  0.00    +0.000 A 
ATOM     11  C   UNL     1     -10.298 -16.263   7.544  0.00  0.00    +0.000 A 
ATOM     12  C   UNL     1     -11.545 -15.703   7.267  0.00  0.00    +0.000 A 
ATOM     13  C   UNL     1     -12.452 -15.481   8.299  0.00  0.00    +0.000 A 
BRANCH  10  14
ATOM     14  O   UNL     1      -8.701 -17.157   9.045  0.00  0.00    +0.000 OA
ATOM     15  C   UNL     1      -8.665 -18.537   9.272  0.00  0.00    +0.000 C 
ENDBRANCH  10  14
BRANCH  11  16
ATOM     16  O   UNL     1      -9.465 -16.448   6.475  0.00  0.00    +0.000 OA
ATOM     17  H   UNL     1      -9.868 -17.047   5.825  0.00  0.00    +0.000 HD
ENDBRANCH  11  16
ENDBRANCH   7   8
ENDBRANCH   2   6
BRANCH   4  18
ATOM     18  C   UNL     1     -15.008 -15.870  16.337  0.00  0.00    +0.000 C 
ATOM     19  C   UNL     1     -15.588 -15.450  17.303  0.00  0.00    +0.000 C 
BRANCH  19  20
ATOM     20  C   UNL     1     -16.272 -14.951  18.449  0.00  0.00    +0.000 A 
ATOM     21  C   UNL     1     -17.329 -15.677  18.997  0.00  0.00    +0.000 A 
ATOM     22  C   UNL     1     -18.010 -15.201  20.121  0.00  0.00    +0.000 A 
ATOM     23  C   UNL     1     -17.611 -13.986  20.684  0.00  0.00    +0.000 A 
ATOM     24  C   UNL     1     -16.555 -13.256  20.140  0.00  0.00    +0.000 A 
ATOM     25  C   UNL     1     -15.885 -13.741  19.020  0.00  0.00    +0.000 A 
BRANCH  22  26
ATOM     26  O   UNL     1     -19.060 -15.852  20.723  0.00  0.00    +0.000 OA
ATOM     27  C   UNL     1     -20.230 -15.953  19.954  0.00  0.00    +0.000 C 
ENDBRANCH  22  26
BRANCH  23  28
ATOM     28  O   UNL     1     -18.265 -13.503  21.784  0.00  0.00    +0.000 OA
ATOM     29  H   UNL     1     -18.143 -12.537  21.821  0.00  0.00    +0.000 HD
ENDBRANCH  23  28
ENDBRANCH  19  20
ENDBRANCH   4  18
TORSDOF 8
ENDMDL
MODEL 9
REMARK VINA RESULT:      -5.2     18.432     20.993
REMARK  Name = Curcumin.pdbqt.pdb
REMARK  8 active torsions:
REMARK  status: ('A' for Active; 'I' for Inactive)
REMARK    1  A    between atoms: C_2  and  C_4
REMARK    2  A    between atoms: C_5  and  C_6
REMARK    3  A    between atoms: C_8  and  O_12
REMARK    4  A    between atoms: C_9  and  O_14
REMARK    5  A    between atoms: C_16  and  C_18
REMARK    6  A    between atoms: C_19  and  C_20
REMARK    7  A    between atoms: C_22  and  O_26
REMARK    8  A    between atoms: C_23  and  O_28
REMARK                            x       y       z     vdW  Elec       q    Type
REMARK                         _______ _______ _______ _____ _____    ______ ____
ROOT
ATOM      1  C   UNL     1       6.863  -4.873  11.024  0.00  0.00    +0.000 C 
ATOM      2  C   UNL     1       7.773  -4.116  10.230  0.00  0.00    +0.000 C 
ATOM      3  O   UNL     1       8.732  -4.671   9.714  0.00  0.00    +0.000 OA
ATOM      4  C   UNL     1       5.956  -5.630  11.821  0.00  0.00    +0.000 C 
ATOM      5  O   UNL     1       5.192  -5.055  12.583  0.00  0.00    +0.000 OA
ENDROOT
BRANCH   2   6
ATOM      6  C   UNL     1       7.555  -2.705  10.038  0.00  0.00    +0.000 C 
ATOM      7  C   UNL     1       7.374  -1.529   9.876  0.00  0.00    +0.000 C 
BRANCH   7   8
ATOM      8  C   UNL     1       7.158  -0.132   9.684  0.00  0.00    +0.000 A 
ATOM      9  C   UNL     1       6.054   0.487  10.267  0.00  0.00    +0.000 A 
ATOM     10  C   UNL     1       5.826   1.855  10.090  0.00  0.00    +0.000 A 
ATOM     11  C   UNL     1       6.728   2.591   9.315  0.00  0.00    +0.000 A 
ATOM     12  C   UNL     1       7.834   1.974   8.730  0.00  0.00    +0.000 A 
ATOM     13  C   UNL     1       8.048   0.611   8.915  0.00  0.00    +0.000 A 
BRANCH  10  14
ATOM     14  O   UNL     1       4.763   2.532  10.633  0.00  0.00    +0.000 OA
ATOM     15  C   UNL     1       4.739   2.622  12.029  0.00  0.00    +0.000 C 
ENDBRANCH  10  14
BRANCH  11  16
ATOM     16  O   UNL     1       6.589   3.932   9.085  0.00  0.00    +0.000 OA
ATOM     17  H   UNL     1       6.679   4.129   8.138  0.00  0.00    +0.000 HD
ENDBRANCH  11  16
ENDBRANCH   7   8
ENDBRANCH   2   6
BRANCH   4  18
ATOM     18  C   UNL     1       5.946  -7.067  11.723  0.00  0.00    +0.000 C 
ATOM     19  C   UNL     1       5.941  -8.267  11.643  0.00  0.00    +0.000 C 
BRANCH  19  20
ATOM     20  C   UNL     1       5.940  -9.688  11.548  0.00  0.00    +0.000 A 
ATOM     21  C   UNL     1       4.862 -10.417  12.050  0.00  0.00    +0.000 A 
ATOM     22  C   UNL     1       4.845 -11.812  11.965  0.00  0.00    +0.000 A 
ATOM     23  C   UNL     1       5.928 -12.461  11.366  0.00  0.00    +0.000 A 
ATOM     24  C   UNL     1       7.009 -11.737  10.862  0.00  0.00    +0.000 A 
ATOM     25  C   UNL     1       7.013 -10.349  10.954  0.00  0.00    +0.000 A 
BRANCH  22  26
ATOM     26  O   UNL     1       3.825 -12.604  12.434  0.00  0.00    +0.000 OA
ATOM     27  C   UNL     1       2.851 -11.945  13.200  0.00  0.00    +0.000 C 
ENDBRANCH  22  26
BRANCH  23  28
ATOM     28  O   UNL     1       5.931 -13.825  11.273  0.00  0.00    +0.000 OA
ATOM     29  H   UNL     1       5.586 -14.195  12.106  0.00  0.00    +0.000 HD
ENDBRANCH  23  28
ENDBRANCH  19  20
ENDBRANCH   4  18
TORSDOF 8
ENDMDL
