MODEL 1
REMARK VINA RESULT:      -8.6      0.000      0.000
REMARK  Name = Cyclosporin_A.pdbqt.pdb
REMARK  4 active torsions:
REMARK  status: ('A' for Active; 'I' for Inactive)
REMARK    1  A    between atoms: N_13  and  C_36
REMARK    2  A    between atoms: C_36  and  O_70
REMARK    3  A    between atoms: C_72  and  C_73
REMARK    4  A    between atoms: C_75  and  C_76
REMARK                            x       y       z     vdW  Elec       q    Type
REMARK                         _______ _______ _______ _____ _____    ______ ____
ROOT
ATOM      1  O   UNL     1       6.955  -4.914  12.618  0.00  0.00    +0.000 OA
ATOM      2  O   UNL     1       6.270  -9.239   9.948  0.00  0.00    +0.000 OA
ATOM      3  O   UNL     1       8.539 -12.423  12.711  0.00  0.00    +0.000 OA
ATOM      4  O   UNL     1      11.104  -4.336  15.160  0.00  0.00    +0.000 OA
ATOM      5  O   UNL     1       3.673 -10.991  12.738  0.00  0.00    +0.000 OA
ATOM      6  O   UNL     1       4.428 -10.878  23.986  0.00  0.00    +0.000 OA
ATOM      7  O   UNL     1       6.308  -2.737  17.514  0.00  0.00    +0.000 OA
ATOM      8  O   UNL     1       8.419  -8.095  23.211  0.00  0.00    +0.000 OA
ATOM      9  O   UNL     1       2.751 -13.618  20.359  0.00  0.00    +0.000 OA
ATOM     10  O   UNL     1       7.891  -4.526  21.248  0.00  0.00    +0.000 OA
ATOM     11  O   UNL     1       2.084 -11.335  16.761  0.00  0.00    +0.000 OA
ATOM     12  N   UNL     1       7.025  -8.126  11.341  0.00  0.00    +0.000 NA
ATOM     13  N   UNL     1       8.534  -6.495  13.507  0.00  0.00    +0.000 NA
ATOM     14  N   UNL     1       7.441 -11.330  11.470  0.00  0.00    +0.000 NA
ATOM     15  N   UNL     1       5.518 -12.533  13.699  0.00  0.00    +0.000 NA
ATOM     16  N   UNL     1       9.012  -5.051  16.190  0.00  0.00    +0.000 NA
ATOM     17  N   UNL     1       5.636 -12.040  22.332  0.00  0.00    +0.000 N 
ATOM     18  N   UNL     1       6.814  -9.200  21.914  0.00  0.00    +0.000 N 
ATOM     19  N   UNL     1       7.320  -6.414  21.267  0.00  0.00    +0.000 NA
ATOM     20  N   UNL     1       6.490  -4.970  17.907  0.00  0.00    +0.000 NA
ATOM     21  N   UNL     1       4.496 -11.237  16.183  0.00  0.00    +0.000 NA
ATOM     22  N   UNL     1       4.101 -11.746  19.649  0.00  0.00    +0.000 NA
ATOM     23  C   UNL     1       6.572  -6.969  11.906  0.00  0.00    +0.000 C 
ATOM     24  C   UNL     1       7.612 -10.071  11.885  0.00  0.00    +0.000 C 
ATOM     25  C   UNL     1       9.532  -5.586  13.799  0.00  0.00    +0.000 C 
ATOM     26  C   UNL     1       5.648  -6.137  11.302  0.00  0.00    +0.000 C 
ATOM     27  C   UNL     1       9.092 -10.092  11.919  0.00  0.00    +0.000 C 
ATOM     28  C   UNL     1       7.410  -6.232  12.717  0.00  0.00    +0.000 C 
ATOM     29  C   UNL     1       6.660  -9.446  11.153  0.00  0.00    +0.000 C 
ATOM     30  C   UNL     1       6.080 -12.510  12.522  0.00  0.00    +0.000 C 
ATOM     31  C   UNL     1       7.325 -11.967  12.639  0.00  0.00    +0.000 C 
ATOM     32  C   UNL     1       9.980  -5.236  15.181  0.00  0.00    +0.000 C 
ATOM     33  C   UNL     1       5.520  -6.782  10.033  0.00  0.00    +0.000 C 
ATOM     34  C   UNL     1       6.017  -4.868  11.605  0.00  0.00    +0.000 C 
ATOM     35  C   UNL     1       6.235  -7.955  10.219  0.00  0.00    +0.000 C 
ATOM     36  C   UNL     1       8.805 -11.729  11.509  0.00  0.00    +0.000 C 
ATOM     37  C   UNL     1       8.367  -3.825  16.492  0.00  0.00    +0.000 C 
ATOM     38  C   UNL     1       5.910  -9.590  22.868  0.00  0.00    +0.000 A 
ATOM     39  C   UNL     1       4.763 -11.453  13.522  0.00  0.00    +0.000 C 
ATOM     40  C   UNL     1       4.574 -12.773  21.742  0.00  0.00    +0.000 C 
ATOM     41  C   UNL     1       8.349  -7.288  21.374  0.00  0.00    +0.000 C 
ATOM     42  C   UNL     1       4.925 -13.853  13.362  0.00  0.00    +0.000 C 
ATOM     43  C   UNL     1       5.287  -8.819  23.897  0.00  0.00    +0.000 A 
ATOM     44  C   UNL     1       4.498 -14.151  22.916  0.00  0.00    +0.000 C 
ATOM     45  C   UNL     1       4.330 -11.097  14.904  0.00  0.00    +0.000 C 
ATOM     46  C   UNL     1       9.018  -6.916  22.670  0.00  0.00    +0.000 C 
ATOM     47  C   UNL     1       8.994  -2.690  15.895  0.00  0.00    +0.000 C 
ATOM     48  C   UNL     1       5.364 -10.864  22.980  0.00  0.00    +0.000 A 
ATOM     49  C   UNL     1       7.214  -3.815  17.208  0.00  0.00    +0.000 C 
ATOM     50  C   UNL     1       7.757  -8.306  22.106  0.00  0.00    +0.000 C 
ATOM     51  C   UNL     1       3.788 -12.680  20.618  0.00  0.00    +0.000 C 
ATOM     52  C   UNL     1       7.221  -5.367  19.114  0.00  0.00    +0.000 C 
ATOM     53  C   UNL     1       5.430  -7.352  24.203  0.00  0.00    +0.000 C 
ATOM     54  C   UNL     1       4.395  -9.636  24.543  0.00  0.00    +0.000 A 
ATOM     55  C   UNL     1       7.895  -5.579  20.345  0.00  0.00    +0.000 C 
ATOM     56  C   UNL     1       3.449 -11.561  18.546  0.00  0.00    +0.000 C 
ATOM     57  C   UNL     1       3.437 -10.723  13.936  0.00  0.00    +0.000 C 
ATOM     58  C   UNL     1       5.435 -13.160  23.064  0.00  0.00    +0.000 C 
ATOM     59  C   UNL     1       9.880  -2.358  15.160  0.00  0.00    +0.000 C 
ATOM     60  C   UNL     1       3.498 -11.320  17.050  0.00  0.00    +0.000 C 
ATOM     61  C   UNL     1       7.723  -5.410  22.400  0.00  0.00    +0.000 C 
ATOM     62  C   UNL     1       5.892  -3.797  17.996  0.00  0.00    +0.000 C 
ATOM     63  C   UNL     1       2.219 -11.548  17.978  0.00  0.00    +0.000 C 
ATOM     64  H   UNL     1       8.314  -5.796  16.175  0.00  0.00    +0.000 HD
ATOM     65  H   UNL     1       6.594  -9.459  20.955  0.00  0.00    +0.000 HD
ATOM     66  H   UNL     1       5.412 -11.544  16.501  0.00  0.00    +0.000 HD
ATOM     67  H   UNL     1       5.080 -11.480  19.699  0.00  0.00    +0.000 HD
ATOM     68  C   UNL     1       9.918  -4.670  12.955  0.00  0.00    +0.000 C 
ATOM     69  C   UNL     1      10.570  -3.407  13.028  0.00  0.00    +0.000 C 
ATOM     70  C   UNL     1      10.868  -3.109  14.443  0.00  0.00    +0.000 C 
ATOM     71  C   UNL     1      10.385  -9.914  10.872  0.00  0.00    +0.000 C 
ATOM     72  C   UNL     1      11.551  -9.330  11.141  0.00  0.00    +0.000 C 
ATOM     73  C   UNL     1       9.903 -11.225  10.931  0.00  0.00    +0.000 C 
ATOM     74  C   UNL     1       5.643 -13.857  12.127  0.00  0.00    +0.000 C 
ATOM     75  C   UNL     1       4.403 -14.480  12.104  0.00  0.00    +0.000 C 
ATOM     76  C   UNL     1       4.273 -16.003  11.888  0.00  0.00    +0.000 C 
ATOM     77  C   UNL     1       3.577 -14.051  13.125  0.00  0.00    +0.000 C 
ATOM     78  C   UNL     1      10.074  -5.911  23.330  0.00  0.00    +0.000 C 
ATOM     79  C   UNL     1      10.915  -5.976  24.359  0.00  0.00    +0.000 C 
ATOM     80  C   UNL     1       8.908  -5.197  23.049  0.00  0.00    +0.000 C 
ATOM     81  C   UNL     1       3.499 -14.937  22.510  0.00  0.00    +0.000 C 
ATOM     82  C   UNL     1       3.131 -16.193  23.229  0.00  0.00    +0.000 C 
ATOM     83  C   UNL     1       2.825 -14.523  21.336  0.00  0.00    +0.000 C 
ENDROOT
BRANCH  69  84
ATOM     84  C   UNL     1      10.572  -2.411  12.023  0.00  0.00    +0.000 C 
ATOM     85  C   UNL     1      10.565  -1.565  11.170  0.00  0.00    +0.000 C 
BRANCH  85  86
ATOM     86  C   UNL     1      10.551  -0.487  10.081  0.00  0.00    +0.000 C 
ATOM     87  C   UNL     1      10.534   0.449   9.134  0.00  0.00    +0.000 C 
ENDBRANCH  85  86
ENDBRANCH  69  84
BRANCH  13  88
ATOM     88  C   UNL     1       8.505  -7.717  14.295  0.00  0.00    +0.000 C 
BRANCH  88  89
ATOM     89  O   UNL     1       8.476  -8.818  15.035  0.00  0.00    +0.000 OA
ATOM     90  H   UNL     1       9.380  -9.068  15.296  0.00  0.00    +0.000 HD
ENDBRANCH  88  89
ENDBRANCH  13  88
TORSDOF 4
ENDMDL
MODEL 2
REMARK VINA RESULT:      -8.5     20.147     26.313
REMARK  Name = Cyclosporin_A.pdbqt.pdb
REMARK  4 active torsions:
REMARK  status: ('A' for Active; 'I' for Inactive)
REMARK    1  A    between atoms: N_13  and  C_36
REMARK    2  A    between atoms: C_36  and  O_70
REMARK    3  A    between atoms: C_72  and  C_73
REMARK    4  A    between atoms: C_75  and  C_76
REMARK                            x       y       z     vdW  Elec       q    Type
REMARK                         _______ _______ _______ _____ _____    ______ ____
ROOT
ATOM      1  O   UNL     1     -12.572 -19.829   7.662  0.00  0.00    +0.000 OA
ATOM      2  O   UNL     1     -16.598 -18.342  10.472  0.00  0.00    +0.000 OA
ATOM      3  O   UNL     1     -15.855 -13.621  10.759  0.00  0.00    +0.000 OA
ATOM      4  O   UNL     1      -8.327 -17.435   8.162  0.00  0.00    +0.000 OA
ATOM      5  O   UNL     1     -18.493 -16.287   7.345  0.00  0.00    +0.000 OA
ATOM      6  O   UNL     1     -13.812  -9.676  -0.496  0.00  0.00    +0.000 OA
ATOM      7  O   UNL     1      -9.973 -18.870   3.031  0.00  0.00    +0.000 OA
ATOM      8  O   UNL     1      -9.573 -10.890   1.700  0.00  0.00    +0.000 OA
ATOM      9  O   UNL     1     -17.957 -10.253   1.946  0.00  0.00    +0.000 OA
ATOM     10  O   UNL     1      -8.545 -14.866   1.777  0.00  0.00    +0.000 OA
ATOM     11  O   UNL     1     -18.385 -14.248   3.516  0.00  0.00    +0.000 OA
ATOM     12  N   UNL     1     -14.890 -18.129   9.583  0.00  0.00    +0.000 NA
ATOM     13  N   UNL     1     -12.054 -17.612   8.437  0.00  0.00    +0.000 NA
ATOM     14  N   UNL     1     -16.445 -15.514  10.680  0.00  0.00    +0.000 NA
ATOM     15  N   UNL     1     -17.734 -13.970   8.217  0.00  0.00    +0.000 NA
ATOM     16  N   UNL     1      -9.882 -17.000   6.334  0.00  0.00    +0.000 NA
ATOM     17  N   UNL     1     -14.232  -9.353   1.798  0.00  0.00    +0.000 N 
ATOM     18  N   UNL     1     -11.851 -11.334   1.996  0.00  0.00    +0.000 N 
ATOM     19  N   UNL     1     -10.068 -13.627   1.965  0.00  0.00    +0.000 NA
ATOM     20  N   UNL     1     -11.025 -16.909   3.506  0.00  0.00    +0.000 NA
ATOM     21  N   UNL     1     -16.801 -13.856   5.387  0.00  0.00    +0.000 NA
ATOM     22  N   UNL     1     -16.133 -11.619   2.746  0.00  0.00    +0.000 NA
ATOM     23  C   UNL     1     -14.325 -18.822   8.553  0.00  0.00    +0.000 C 
ATOM     24  C   UNL     1     -15.425 -16.164  10.112  0.00  0.00    +0.000 C 
ATOM     25  C   UNL     1     -10.691 -17.797   8.566  0.00  0.00    +0.000 C 
ATOM     26  C   UNL     1     -14.714 -20.098   8.189  0.00  0.00    +0.000 C 
ATOM     27  C   UNL     1     -14.361 -15.641  10.998  0.00  0.00    +0.000 C 
ATOM     28  C   UNL     1     -12.991 -18.633   8.253  0.00  0.00    +0.000 C 
ATOM     29  C   UNL     1     -16.004 -17.367   9.884  0.00  0.00    +0.000 C 
ATOM     30  C   UNL     1     -17.743 -14.476   9.420  0.00  0.00    +0.000 C 
ATOM     31  C   UNL     1     -16.484 -14.405   9.936  0.00  0.00    +0.000 C 
ATOM     32  C   UNL     1      -9.660 -17.120   7.723  0.00  0.00    +0.000 C 
ATOM     33  C   UNL     1     -15.648 -20.384   9.232  0.00  0.00    +0.000 C 
ATOM     34  C   UNL     1     -13.587 -20.754   7.820  0.00  0.00    +0.000 C 
ATOM     35  C   UNL     1     -15.763 -19.161   9.876  0.00  0.00    +0.000 C 
ATOM     36  C   UNL     1     -15.687 -14.742  11.602  0.00  0.00    +0.000 C 
ATOM     37  C   UNL     1      -9.509 -17.959   5.359  0.00  0.00    +0.000 C 
ATOM     38  C   UNL     1     -12.387 -10.794   0.855  0.00  0.00    +0.000 A 
ATOM     39  C   UNL     1     -17.701 -15.131   7.570  0.00  0.00    +0.000 C 
ATOM     40  C   UNL     1     -15.643  -9.493   1.797  0.00  0.00    +0.000 C 
ATOM     41  C   UNL     1      -9.809 -12.570   2.772  0.00  0.00    +0.000 C 
ATOM     42  C   UNL     1     -19.066 -13.369   8.488  0.00  0.00    +0.000 C 
ATOM     43  C   UNL     1     -12.005 -10.988  -0.507  0.00  0.00    +0.000 A 
ATOM     44  C   UNL     1     -16.091  -7.812   1.290  0.00  0.00    +0.000 C 
ATOM     45  C   UNL     1     -17.301 -14.749   6.185  0.00  0.00    +0.000 C 
ATOM     46  C   UNL     1      -8.638 -11.885   2.120  0.00  0.00    +0.000 C 
ATOM     47  C   UNL     1      -8.601 -18.945   5.849  0.00  0.00    +0.000 C 
ATOM     48  C   UNL     1     -13.496  -9.954   0.812  0.00  0.00    +0.000 A 
ATOM     49  C   UNL     1     -10.072 -17.937   4.125  0.00  0.00    +0.000 C 
ATOM     50  C   UNL     1     -10.573 -11.583   2.170  0.00  0.00    +0.000 C 
ATOM     51  C   UNL     1     -16.561 -10.466   2.115  0.00  0.00    +0.000 C 
ATOM     52  C   UNL     1     -10.299 -15.679   3.182  0.00  0.00    +0.000 C 
ATOM     53  C   UNL     1     -10.921 -11.865  -1.074  0.00  0.00    +0.000 C 
ATOM     54  C   UNL     1     -12.898 -10.299  -1.289  0.00  0.00    +0.000 A 
ATOM     55  C   UNL     1      -9.494 -14.592   2.751  0.00  0.00    +0.000 C 
ATOM     56  C   UNL     1     -16.891 -12.604   3.104  0.00  0.00    +0.000 C 
ATOM     57  C   UNL     1     -18.071 -15.879   6.242  0.00  0.00    +0.000 C 
ATOM     58  C   UNL     1     -14.776  -8.160   1.465  0.00  0.00    +0.000 C 
ATOM     59  C   UNL     1      -8.033 -19.323   6.835  0.00  0.00    +0.000 C 
ATOM     60  C   UNL     1     -17.254 -13.626   4.163  0.00  0.00    +0.000 C 
ATOM     61  C   UNL     1      -8.773 -13.597   1.085  0.00  0.00    +0.000 C 
ATOM     62  C   UNL     1     -10.728 -17.936   2.732  0.00  0.00    +0.000 C 
ATOM     63  C   UNL     1     -17.973 -13.346   2.766  0.00  0.00    +0.000 C 
ATOM     64  H   UNL     1     -10.831 -16.680   6.137  0.00  0.00    +0.000 HD
ATOM     65  H   UNL     1     -12.510 -11.761   2.642  0.00  0.00    +0.000 HD
ATOM     66  H   UNL     1     -16.210 -13.141   5.803  0.00  0.00    +0.000 HD
ATOM     67  H   UNL     1     -15.253 -11.466   3.230  0.00  0.00    +0.000 HD
ATOM     68  C   UNL     1     -10.175 -18.841   9.156  0.00  0.00    +0.000 C 
ATOM     69  C   UNL     1      -8.931 -19.531   9.131  0.00  0.00    +0.000 C 
ATOM     70  C   UNL     1      -8.028 -18.845   8.186  0.00  0.00    +0.000 C 
ATOM     71  C   UNL     1     -13.705 -15.947  12.506  0.00  0.00    +0.000 C 
ATOM     72  C   UNL     1     -12.423 -15.845  12.851  0.00  0.00    +0.000 C 
ATOM     73  C   UNL     1     -14.808 -15.089  12.551  0.00  0.00    +0.000 C 
ATOM     74  C   UNL     1     -18.999 -13.837   9.837  0.00  0.00    +0.000 C 
ATOM     75  C   UNL     1     -20.269 -13.792   9.278  0.00  0.00    +0.000 C 
ATOM     76  C   UNL     1     -21.344 -12.817   9.802  0.00  0.00    +0.000 C 
ATOM     77  C   UNL     1     -20.239 -13.801   7.896  0.00  0.00    +0.000 C 
ATOM     78  C   UNL     1      -7.043 -11.912   1.986  0.00  0.00    +0.000 C 
ATOM     79  C   UNL     1      -6.105 -10.996   1.763  0.00  0.00    +0.000 C 
ATOM     80  C   UNL     1      -7.560 -12.994   1.271  0.00  0.00    +0.000 C 
ATOM     81  C   UNL     1     -17.423  -7.784   1.208  0.00  0.00    +0.000 C 
ATOM     82  C   UNL     1     -18.172  -6.552   0.822  0.00  0.00    +0.000 C 
ATOM     83  C   UNL     1     -18.087  -8.991   1.538  0.00  0.00    +0.000 C 
ENDROOT
BRANCH  69  84
ATOM     84  C   UNL     1      -8.703 -20.853   9.580  0.00  0.00    +0.000 C 
ATOM     85  C   UNL     1      -8.502 -21.976   9.956  0.00  0.00    +0.000 C 
BRANCH  85  86
ATOM     86  C   UNL     1      -8.243 -23.408  10.433  0.00  0.00    +0.000 C 
ATOM     87  C   UNL     1      -8.015 -24.655  10.843  0.00  0.00    +0.000 C 
ENDBRANCH  85  86
ENDBRANCH  69  84
BRANCH  13  88
ATOM     88  C   UNL     1     -12.514 -16.254   8.197  0.00  0.00    +0.000 C 
BRANCH  88  89
ATOM     89  O   UNL     1     -12.923 -15.015   7.956  0.00  0.00    +0.000 OA
ATOM     90  H   UNL     1     -13.536 -15.008   7.200  0.00  0.00    +0.000 HD
ENDBRANCH  88  89
ENDBRANCH  13  88
TORSDOF 4
ENDMDL
MODEL 3
REMARK VINA RESULT:      -8.4      4.964      8.767
REMARK  Name = Cyclosporin_A.pdbqt.pdb
REMARK  4 active torsions:
REMARK  status: ('A' for Active; 'I' for Inactive)
REMARK    1  A    between atoms: N_13  and  C_36
REMARK    2  A    between atoms: C_36  and  O_70
REMARK    3  A    between atoms: C_72  and  C_73
REMARK    4  A    between atoms: C_75  and  C_76
REMARK                            x       y       z     vdW  Elec       q    Type
REMARK                         _______ _______ _______ _____ _____    ______ ____
ROOT
ATOM      1  O   UNL     1       5.106   2.843  13.350  0.00  0.00    +0.000 OA
ATOM      2  O   UNL     1       7.395   1.357   9.006  0.00  0.00    +0.000 OA
ATOM      3  O   UNL     1      11.253  -0.914  10.702  0.00  0.00    +0.000 OA
ATOM      4  O   UNL     1       7.890   4.023  17.205  0.00  0.00    +0.000 OA
ATOM      5  O   UNL     1       6.653  -2.732   9.576  0.00  0.00    +0.000 OA
ATOM      6  O   UNL     1       7.361  -8.677  19.129  0.00  0.00    +0.000 OA
ATOM      7  O   UNL     1       3.277   1.016  18.087  0.00  0.00    +0.000 OA
ATOM      8  O   UNL     1       8.506  -4.344  21.176  0.00  0.00    +0.000 OA
ATOM      9  O   UNL     1       7.840  -9.195  14.336  0.00  0.00    +0.000 OA
ATOM     10  O   UNL     1       5.717  -1.338  20.942  0.00  0.00    +0.000 OA
ATOM     11  O   UNL     1       5.763  -6.115  12.144  0.00  0.00    +0.000 OA
ATOM     12  N   UNL     1       7.253   1.654  10.915  0.00  0.00    +0.000 NA
ATOM     13  N   UNL     1       7.353   2.239  13.961  0.00  0.00    +0.000 NA
ATOM     14  N   UNL     1       9.683  -0.143   9.764  0.00  0.00    +0.000 NA
ATOM     15  N   UNL     1       9.075  -3.207  10.361  0.00  0.00    +0.000 NA
ATOM     16  N   UNL     1       6.810   1.848  16.972  0.00  0.00    +0.000 NA
ATOM     17  N   UNL     1       9.003  -7.776  17.703  0.00  0.00    +0.000 N 
ATOM     18  N   UNL     1       8.006  -5.158  19.039  0.00  0.00    +0.000 N 
ATOM     19  N   UNL     1       6.535  -2.813  19.919  0.00  0.00    +0.000 NA
ATOM     20  N   UNL     1       4.895  -0.469  17.494  0.00  0.00    +0.000 NA
ATOM     21  N   UNL     1       7.500  -4.399  12.595  0.00  0.00    +0.000 NA
ATOM     22  N   UNL     1       7.605  -6.906  15.070  0.00  0.00    +0.000 NA
ATOM     23  C   UNL     1       6.161   1.787  11.722  0.00  0.00    +0.000 C 
ATOM     24  C   UNL     1       8.989   0.481  10.720  0.00  0.00    +0.000 C 
ATOM     25  C   UNL     1       7.508   3.175  14.965  0.00  0.00    +0.000 C 
ATOM     26  C   UNL     1       4.906   2.132  11.254  0.00  0.00    +0.000 C 
ATOM     27  C   UNL     1      10.115   1.263  11.280  0.00  0.00    +0.000 C 
ATOM     28  C   UNL     1       6.320   2.233  13.018  0.00  0.00    +0.000 C 
ATOM     29  C   UNL     1       7.847   0.756  10.047  0.00  0.00    +0.000 C 
ATOM     30  C   UNL     1       9.459  -2.211   9.610  0.00  0.00    +0.000 C 
ATOM     31  C   UNL     1      10.039  -1.263  10.400  0.00  0.00    +0.000 C 
ATOM     32  C   UNL     1       7.640   2.845  16.416  0.00  0.00    +0.000 C 
ATOM     33  C   UNL     1       5.212   2.393   9.883  0.00  0.00    +0.000 C 
ATOM     34  C   UNL     1       4.352   2.934  12.196  0.00  0.00    +0.000 C 
ATOM     35  C   UNL     1       6.527   1.966   9.781  0.00  0.00    +0.000 C 
ATOM     36  C   UNL     1      10.972   0.342  10.119  0.00  0.00    +0.000 C 
ATOM     37  C   UNL     1       5.522   2.068  17.522  0.00  0.00    +0.000 C 
ATOM     38  C   UNL     1       7.602  -6.438  19.320  0.00  0.00    +0.000 A 
ATOM     39  C   UNL     1       7.792  -2.862  10.414  0.00  0.00    +0.000 C 
ATOM     40  C   UNL     1       8.678  -8.468  16.509  0.00  0.00    +0.000 C 
ATOM     41  C   UNL     1       7.887  -2.842  19.998  0.00  0.00    +0.000 C 
ATOM     42  C   UNL     1       9.494  -4.144   9.287  0.00  0.00    +0.000 C 
ATOM     43  C   UNL     1       6.645  -6.899  20.275  0.00  0.00    +0.000 A 
ATOM     44  C   UNL     1       9.552 -10.021  16.838  0.00  0.00    +0.000 C 
ATOM     45  C   UNL     1       7.258  -3.674  11.546  0.00  0.00    +0.000 C 
ATOM     46  C   UNL     1       8.169  -2.987  21.469  0.00  0.00    +0.000 C 
ATOM     47  C   UNL     1       5.233   3.445  17.761  0.00  0.00    +0.000 C 
ATOM     48  C   UNL     1       8.035  -7.579  18.652  0.00  0.00    +0.000 A 
ATOM     49  C   UNL     1       4.663   1.032  17.693  0.00  0.00    +0.000 C 
ATOM     50  C   UNL     1       8.128  -4.205  19.935  0.00  0.00    +0.000 C 
ATOM     51  C   UNL     1       8.004  -8.201  15.340  0.00  0.00    +0.000 C 
ATOM     52  C   UNL     1       5.729  -1.000  18.576  0.00  0.00    +0.000 C 
ATOM     53  C   UNL     1       5.791  -6.102  21.224  0.00  0.00    +0.000 C 
ATOM     54  C   UNL     1       6.527  -8.256  20.120  0.00  0.00    +0.000 A 
ATOM     55  C   UNL     1       6.398  -1.461  19.739  0.00  0.00    +0.000 C 
ATOM     56  C   UNL     1       6.972  -6.522  14.008  0.00  0.00    +0.000 C 
ATOM     57  C   UNL     1       6.322  -3.383  10.590  0.00  0.00    +0.000 C 
ATOM     58  C   UNL     1       9.605  -8.987  17.737  0.00  0.00    +0.000 C 
ATOM     59  C   UNL     1       5.665   4.555  17.628  0.00  0.00    +0.000 C 
ATOM     60  C   UNL     1       6.821  -5.494  12.905  0.00  0.00    +0.000 C 
ATOM     61  C   UNL     1       6.197  -2.627  21.438  0.00  0.00    +0.000 C 
ATOM     62  C   UNL     1       3.673  -0.135  17.864  0.00  0.00    +0.000 C 
ATOM     63  C   UNL     1       6.029  -6.865  13.098  0.00  0.00    +0.000 C 
ATOM     64  H   UNL     1       6.777   1.020  16.377  0.00  0.00    +0.000 HD
ATOM     65  H   UNL     1       7.994  -4.889  18.058  0.00  0.00    +0.000 HD
ATOM     66  H   UNL     1       8.396  -4.264  13.055  0.00  0.00    +0.000 HD
ATOM     67  H   UNL     1       8.166  -6.235  15.586  0.00  0.00    +0.000 HD
ATOM     68  C   UNL     1       7.177   4.428  14.816  0.00  0.00    +0.000 C 
ATOM     69  C   UNL     1       6.835   5.514  15.669  0.00  0.00    +0.000 C 
ATOM     70  C   UNL     1       6.889   5.051  17.070  0.00  0.00    +0.000 C 
ATOM     71  C   UNL     1      10.948   2.680  10.972  0.00  0.00    +0.000 C 
ATOM     72  C   UNL     1      11.445   3.523  11.876  0.00  0.00    +0.000 C 
ATOM     73  C   UNL     1      11.452   1.583  10.268  0.00  0.00    +0.000 C 
ATOM     74  C   UNL     1      10.013  -3.046   8.535  0.00  0.00    +0.000 C 
ATOM     75  C   UNL     1       9.492  -4.094   7.788  0.00  0.00    +0.000 C 
ATOM     76  C   UNL     1      10.395  -4.970   6.894  0.00  0.00    +0.000 C 
ATOM     77  C   UNL     1       8.608  -4.871   8.513  0.00  0.00    +0.000 C 
ATOM     78  C   UNL     1       8.311  -2.172  22.839  0.00  0.00    +0.000 C 
ATOM     79  C   UNL     1       9.006  -2.337  23.962  0.00  0.00    +0.000 C 
ATOM     80  C   UNL     1       6.959  -2.217  22.496  0.00  0.00    +0.000 C 
ATOM     81  C   UNL     1       9.313 -10.817  15.794  0.00  0.00    +0.000 C 
ATOM     82  C   UNL     1       9.879 -12.195  15.697  0.00  0.00    +0.000 C 
ATOM     83  C   UNL     1       8.511 -10.264  14.766  0.00  0.00    +0.000 C 
ENDROOT
BRANCH  69  84
ATOM     84  C   UNL     1       6.160   6.696  15.284  0.00  0.00    +0.000 C 
ATOM     85  C   UNL     1       5.594   7.703  14.953  0.00  0.00    +0.000 C 
BRANCH  85  86
ATOM     86  C   UNL     1       4.876   8.989  14.531  0.00  0.00    +0.000 C 
ATOM     87  C   UNL     1       4.256  10.110  14.165  0.00  0.00    +0.000 C 
ENDBRANCH  85  86
ENDBRANCH  69  84
BRANCH  13  88
ATOM     88  C   UNL     1       8.152   1.029  14.059  0.00  0.00    +0.000 C 
BRANCH  88  89
ATOM     89  O   UNL     1       8.869  -0.082  14.170  0.00  0.00    +0.000 OA
ATOM     90  H   UNL     1       9.249  -0.145  15.064  0.00  0.00    +0.000 HD
ENDBRANCH  88  89
ENDBRANCH  13  88
TORSDOF 4
ENDMDL
MODEL 4
REMARK VINA RESULT:      -7.9     13.214     19.300
REMARK  Name = Cyclosporin_A.pdbqt.pdb
REMARK  4 active torsions:
REMARK  status: ('A' for Active; 'I' for Inactive)
REMARK    1  A    between atoms: N_13  and  C_36
REMARK    2  A    between atoms: C_36  and  O_70
REMARK    3  A    between atoms: C_72  and  C_73
REMARK    4  A    between atoms: C_75  and  C_76
REMARK                            x       y       z     vdW  Elec       q    Type
REMARK                         _______ _______ _______ _____ _____    ______ ____
ROOT
ATOM      1  O   UNL     1      11.989 -15.443  -4.120  0.00  0.00    +0.000 OA
ATOM      2  O   UNL     1      15.345 -12.100  -2.152  0.00  0.00    +0.000 OA
ATOM      3  O   UNL     1      12.890 -10.390   1.585  0.00  0.00    +0.000 OA
ATOM      4  O   UNL     1       7.202 -14.444  -3.816  0.00  0.00    +0.000 OA
ATOM      5  O   UNL     1      16.082 -14.323   1.329  0.00  0.00    +0.000 OA
ATOM      6  O   UNL     1       8.678 -19.935   7.714  0.00  0.00    +0.000 OA
ATOM      7  O   UNL     1       8.885 -19.672  -2.850  0.00  0.00    +0.000 OA
ATOM      8  O   UNL     1       5.390 -18.456   4.356  0.00  0.00    +0.000 OA
ATOM      9  O   UNL     1      12.900 -17.581   8.044  0.00  0.00    +0.000 OA
ATOM     10  O   UNL     1       5.957 -19.683   0.477  0.00  0.00    +0.000 OA
ATOM     11  O   UNL     1      14.926 -17.321   4.245  0.00  0.00    +0.000 OA
ATOM     12  N   UNL     1      13.623 -12.967  -2.346  0.00  0.00    +0.000 NA
ATOM     13  N   UNL     1      10.726 -14.042  -2.627  0.00  0.00    +0.000 NA
ATOM     14  N   UNL     1      14.146 -11.026   0.187  0.00  0.00    +0.000 NA
ATOM     15  N   UNL     1      14.568 -12.810   2.786  0.00  0.00    +0.000 NA
ATOM     16  N   UNL     1       8.336 -15.959  -2.277  0.00  0.00    +0.000 NA
ATOM     17  N   UNL     1       9.112 -17.636   7.447  0.00  0.00    +0.000 N 
ATOM     18  N   UNL     1       7.682 -18.195   4.750  0.00  0.00    +0.000 N 
ATOM     19  N   UNL     1       6.906 -19.036   2.080  0.00  0.00    +0.000 NA
ATOM     20  N   UNL     1       9.147 -18.552  -0.887  0.00  0.00    +0.000 NA
ATOM     21  N   UNL     1      13.455 -15.507   3.402  0.00  0.00    +0.000 NA
ATOM     22  N   UNL     1      11.795 -17.346   5.909  0.00  0.00    +0.000 NA
ATOM     23  C   UNL     1      13.288 -14.191  -2.847  0.00  0.00    +0.000 C 
ATOM     24  C   UNL     1      13.411 -11.822  -0.594  0.00  0.00    +0.000 C 
ATOM     25  C   UNL     1       9.549 -14.049  -3.350  0.00  0.00    +0.000 C 
ATOM     26  C   UNL     1      14.105 -14.915  -3.697  0.00  0.00    +0.000 C 
ATOM     27  C   UNL     1      12.296 -10.874  -0.819  0.00  0.00    +0.000 C 
ATOM     28  C   UNL     1      11.965 -14.486  -3.101  0.00  0.00    +0.000 C 
ATOM     29  C   UNL     1      14.384 -12.384  -1.349  0.00  0.00    +0.000 C 
ATOM     30  C   UNL     1      14.857 -11.828   1.977  0.00  0.00    +0.000 C 
ATOM     31  C   UNL     1      13.706 -11.382   1.398  0.00  0.00    +0.000 C 
ATOM     32  C   UNL     1       8.280 -14.691  -2.895  0.00  0.00    +0.000 C 
ATOM     33  C   UNL     1      15.152 -13.966  -3.910  0.00  0.00    +0.000 C 
ATOM     34  C   UNL     1      13.287 -15.529  -4.586  0.00  0.00    +0.000 C 
ATOM     35  C   UNL     1      14.841 -12.966  -3.001  0.00  0.00    +0.000 C 
ATOM     36  C   UNL     1      13.223  -9.950   0.285  0.00  0.00    +0.000 C 
ATOM     37  C   UNL     1       8.284 -17.203  -2.954  0.00  0.00    +0.000 C 
ATOM     38  C   UNL     1       7.888 -19.079   5.778  0.00  0.00    +0.000 A 
ATOM     39  C   UNL     1      14.929 -13.788   1.962  0.00  0.00    +0.000 C 
ATOM     40  C   UNL     1      10.467 -17.607   7.866  0.00  0.00    +0.000 C 
ATOM     41  C   UNL     1       6.325 -17.954   2.652  0.00  0.00    +0.000 C 
ATOM     42  C   UNL     1      15.588 -12.295   3.735  0.00  0.00    +0.000 C 
ATOM     43  C   UNL     1       7.508 -20.452   5.883  0.00  0.00    +0.000 A 
ATOM     44  C   UNL     1      10.204 -17.538   9.658  0.00  0.00    +0.000 C 
ATOM     45  C   UNL     1      14.314 -15.004   2.569  0.00  0.00    +0.000 C 
ATOM     46  C   UNL     1       4.937 -18.419   3.001  0.00  0.00    +0.000 C 
ATOM     47  C   UNL     1       7.856 -17.095  -4.311  0.00  0.00    +0.000 C 
ATOM     48  C   UNL     1       8.588 -18.798   6.946  0.00  0.00    +0.000 A 
ATOM     49  C   UNL     1       8.704 -18.337  -2.338  0.00  0.00    +0.000 C 
ATOM     50  C   UNL     1       6.611 -18.175   3.990  0.00  0.00    +0.000 C 
ATOM     51  C   UNL     1      11.706 -17.561   7.271  0.00  0.00    +0.000 C 
ATOM     52  C   UNL     1       7.986 -18.512   0.006  0.00  0.00    +0.000 C 
ATOM     53  C   UNL     1       6.799 -21.321   4.879  0.00  0.00    +0.000 C 
ATOM     54  C   UNL     1       8.012 -20.930   7.065  0.00  0.00    +0.000 A 
ATOM     55  C   UNL     1       6.800 -18.623   0.778  0.00  0.00    +0.000 C 
ATOM     56  C   UNL     1      12.894 -17.275   5.231  0.00  0.00    +0.000 C 
ATOM     57  C   UNL     1      15.457 -15.263   1.863  0.00  0.00    +0.000 C 
ATOM     58  C   UNL     1       9.137 -17.550   8.797  0.00  0.00    +0.000 C 
ATOM     59  C   UNL     1       7.549 -16.309  -5.162  0.00  0.00    +0.000 C 
ATOM     60  C   UNL     1      13.695 -16.572   4.153  0.00  0.00    +0.000 C 
ATOM     61  C   UNL     1       5.634 -19.929   1.882  0.00  0.00    +0.000 C 
ATOM     62  C   UNL     1       9.205 -19.623  -1.656  0.00  0.00    +0.000 C 
ATOM     63  C   UNL     1      14.149 -17.771   5.103  0.00  0.00    +0.000 C 
ATOM     64  H   UNL     1       9.075 -15.996  -1.574  0.00  0.00    +0.000 HD
ATOM     65  H   UNL     1       8.500 -17.681   4.430  0.00  0.00    +0.000 HD
ATOM     66  H   UNL     1      12.669 -14.920   3.669  0.00  0.00    +0.000 HD
ATOM     67  H   UNL     1      10.961 -16.886   5.556  0.00  0.00    +0.000 HD
ATOM     68  C   UNL     1       9.513 -13.844  -4.639  0.00  0.00    +0.000 C 
ATOM     69  C   UNL     1       8.625 -14.149  -5.708  0.00  0.00    +0.000 C 
ATOM     70  C   UNL     1       7.462 -14.878  -5.165  0.00  0.00    +0.000 C 
ATOM     71  C   UNL     1      11.919  -9.575  -1.802  0.00  0.00    +0.000 C 
ATOM     72  C   UNL     1      10.722  -9.283  -2.311  0.00  0.00    +0.000 C 
ATOM     73  C   UNL     1      12.613  -9.205  -0.647  0.00  0.00    +0.000 C 
ATOM     74  C   UNL     1      15.803 -11.166   2.886  0.00  0.00    +0.000 C 
ATOM     75  C   UNL     1      16.916 -11.615   3.583  0.00  0.00    +0.000 C 
ATOM     76  C   UNL     1      17.577 -10.755   4.682  0.00  0.00    +0.000 C 
ATOM     77  C   UNL     1      16.790 -12.929   3.991  0.00  0.00    +0.000 C 
ATOM     78  C   UNL     1       3.467 -18.639   2.409  0.00  0.00    +0.000 C 
ATOM     79  C   UNL     1       2.237 -18.613   2.916  0.00  0.00    +0.000 C 
ATOM     80  C   UNL     1       4.301 -19.628   1.886  0.00  0.00    +0.000 C 
ATOM     81  C   UNL     1      11.417 -17.537  10.217  0.00  0.00    +0.000 C 
ATOM     82  C   UNL     1      11.611 -17.477  11.696  0.00  0.00    +0.000 C 
ATOM     83  C   UNL     1      12.511 -17.566   9.318  0.00  0.00    +0.000 C 
ENDROOT
BRANCH  69  84
ATOM     84  C   UNL     1       8.950 -14.149  -7.085  0.00  0.00    +0.000 C 
ATOM     85  C   UNL     1       9.231 -14.155  -8.253  0.00  0.00    +0.000 C 
BRANCH  85  86
ATOM     86  C   UNL     1       9.594 -14.165  -9.741  0.00  0.00    +0.000 C 
ATOM     87  C   UNL     1       9.909 -14.167 -11.036  0.00  0.00    +0.000 C 
ENDBRANCH  85  86
ENDBRANCH  69  84
BRANCH  13  88
ATOM     88  C   UNL     1      10.618 -13.819  -1.195  0.00  0.00    +0.000 C 
BRANCH  88  89
ATOM     89  O   UNL     1      10.495 -13.626   0.111  0.00  0.00    +0.000 OA
ATOM     90  H   UNL     1      10.377 -14.480   0.565  0.00  0.00    +0.000 HD
ENDBRANCH  88  89
ENDBRANCH  13  88
TORSDOF 4
ENDMDL
MODEL 5
REMARK VINA RESULT:      -7.9     22.698     26.603
REMARK  Name = Cyclosporin_A.pdbqt.pdb
REMARK  4 active torsions:
REMARK  status: ('A' for Active; 'I' for Inactive)
REMARK    1  A    between atoms: N_13  and  C_36
REMARK    2  A    between atoms: C_36  and  O_70
REMARK    3  A    between atoms: C_72  and  C_73
REMARK    4  A    between atoms: C_75  and  C_76
REMARK                            x       y       z     vdW  Elec       q    Type
REMARK                         _______ _______ _______ _____ _____    ______ ____
ROOT
ATOM      1  O   UNL     1      -7.391  12.154   3.422  0.00  0.00    +0.000 OA
ATOM      2  O   UNL     1     -11.576   9.608   1.899  0.00  0.00    +0.000 OA
ATOM      3  O   UNL     1     -11.857   6.179   5.227  0.00  0.00    +0.000 OA
ATOM      4  O   UNL     1      -3.748   9.659   5.544  0.00  0.00    +0.000 OA
ATOM      5  O   UNL     1     -13.940  10.803   5.152  0.00  0.00    +0.000 OA
ATOM      6  O   UNL     1     -10.969  11.626  15.996  0.00  0.00    +0.000 OA
ATOM      7  O   UNL     1      -5.166  14.610   7.681  0.00  0.00    +0.000 OA
ATOM      8  O   UNL     1      -6.518  10.263  14.382  0.00  0.00    +0.000 OA
ATOM      9  O   UNL     1     -14.836  10.733  13.216  0.00  0.00    +0.000 OA
ATOM     10  O   UNL     1      -4.660  12.705  11.652  0.00  0.00    +0.000 OA
ATOM     11  O   UNL     1     -14.360  12.270   9.214  0.00  0.00    +0.000 OA
ATOM     12  N   UNL     1      -9.975   9.906   2.947  0.00  0.00    +0.000 NA
ATOM     13  N   UNL     1      -7.343  10.049   4.584  0.00  0.00    +0.000 NA
ATOM     14  N   UNL     1     -12.029   7.565   3.817  0.00  0.00    +0.000 NA
ATOM     15  N   UNL     1     -13.676   8.528   6.361  0.00  0.00    +0.000 NA
ATOM     16  N   UNL     1      -5.402  10.920   6.818  0.00  0.00    +0.000 NA
ATOM     17  N   UNL     1     -11.396   9.771  14.610  0.00  0.00    +0.000 N 
ATOM     18  N   UNL     1      -8.641  10.630  13.467  0.00  0.00    +0.000 N 
ATOM     19  N   UNL     1      -6.409  11.942  12.150  0.00  0.00    +0.000 NA
ATOM     20  N   UNL     1      -6.603  13.096   8.587  0.00  0.00    +0.000 NA
ATOM     21  N   UNL     1     -12.855  10.425   8.511  0.00  0.00    +0.000 NA
ATOM     22  N   UNL     1     -12.743  10.811  12.013  0.00  0.00    +0.000 NA
ATOM     23  C   UNL     1      -9.298  11.053   3.241  0.00  0.00    +0.000 C 
ATOM     24  C   UNL     1     -10.907   8.284   3.910  0.00  0.00    +0.000 C 
ATOM     25  C   UNL     1      -5.969   9.901   4.601  0.00  0.00    +0.000 C 
ATOM     26  C   UNL     1      -9.413  12.217   2.502  0.00  0.00    +0.000 C 
ATOM     27  C   UNL     1      -9.959   7.147   3.875  0.00  0.00    +0.000 C 
ATOM     28  C   UNL     1      -8.043  10.980   3.810  0.00  0.00    +0.000 C 
ATOM     29  C   UNL     1     -11.219   9.322   3.099  0.00  0.00    +0.000 C 
ATOM     30  C   UNL     1     -13.548   7.976   5.186  0.00  0.00    +0.000 C 
ATOM     31  C   UNL     1     -12.322   7.386   5.109  0.00  0.00    +0.000 C 
ATOM     32  C   UNL     1      -5.128   9.945   5.835  0.00  0.00    +0.000 C 
ATOM     33  C   UNL     1     -10.239  11.754   1.432  0.00  0.00    +0.000 C 
ATOM     34  C   UNL     1      -8.180  12.779   2.475  0.00  0.00    +0.000 C 
ATOM     35  C   UNL     1     -10.599  10.484   1.857  0.00  0.00    +0.000 C 
ATOM     36  C   UNL     1     -11.433   6.276   3.883  0.00  0.00    +0.000 C 
ATOM     37  C   UNL     1      -4.855  12.227   6.849  0.00  0.00    +0.000 C 
ATOM     38  C   UNL     1      -9.307  11.184  14.530  0.00  0.00    +0.000 A 
ATOM     39  C   UNL     1     -13.409   9.770   5.968  0.00  0.00    +0.000 C 
ATOM     40  C   UNL     1     -12.744  10.044  14.265  0.00  0.00    +0.000 C 
ATOM     41  C   UNL     1      -6.364  10.613  12.412  0.00  0.00    +0.000 C 
ATOM     42  C   UNL     1     -15.099   8.101   6.379  0.00  0.00    +0.000 C 
ATOM     43  C   UNL     1      -8.924  12.271  15.375  0.00  0.00    +0.000 A 
ATOM     44  C   UNL     1     -13.553   9.364  15.737  0.00  0.00    +0.000 C 
ATOM     45  C   UNL     1     -13.133  10.490   7.245  0.00  0.00    +0.000 C 
ATOM     46  C   UNL     1      -5.382  10.492  13.546  0.00  0.00    +0.000 C 
ATOM     47  C   UNL     1      -3.745  12.401   5.968  0.00  0.00    +0.000 C 
ATOM     48  C   UNL     1     -10.570  10.802  14.970  0.00  0.00    +0.000 A 
ATOM     49  C   UNL     1      -5.438  13.197   7.597  0.00  0.00    +0.000 C 
ATOM     50  C   UNL     1      -7.336  10.503  13.393  0.00  0.00    +0.000 C 
ATOM     51  C   UNL     1     -13.423  10.570  13.191  0.00  0.00    +0.000 C 
ATOM     52  C   UNL     1      -6.165  12.429   9.817  0.00  0.00    +0.000 C 
ATOM     53  C   UNL     1      -7.690  13.131  15.314  0.00  0.00    +0.000 C 
ATOM     54  C   UNL     1      -9.961  12.507  16.240  0.00  0.00    +0.000 A 
ATOM     55  C   UNL     1      -5.623  11.925  11.027  0.00  0.00    +0.000 C 
ATOM     56  C   UNL     1     -13.264  11.295  10.932  0.00  0.00    +0.000 C 
ATOM     57  C   UNL     1     -13.641  11.294   6.261  0.00  0.00    +0.000 C 
ATOM     58  C   UNL     1     -12.191   9.297  15.597  0.00  0.00    +0.000 C 
ATOM     59  C   UNL     1      -3.086  11.850   5.132  0.00  0.00    +0.000 C 
ATOM     60  C   UNL     1     -13.375  11.235   9.421  0.00  0.00    +0.000 C 
ATOM     61  C   UNL     1      -5.171  12.406  12.989  0.00  0.00    +0.000 C 
ATOM     62  C   UNL     1      -6.110  14.309   8.423  0.00  0.00    +0.000 C 
ATOM     63  C   UNL     1     -14.169  12.175  10.438  0.00  0.00    +0.000 C 
ATOM     64  H   UNL     1      -6.402  10.976   7.015  0.00  0.00    +0.000 HD
ATOM     65  H   UNL     1      -9.178  10.520  12.610  0.00  0.00    +0.000 HD
ATOM     66  H   UNL     1     -12.422   9.569   8.847  0.00  0.00    +0.000 HD
ATOM     67  H   UNL     1     -11.906  10.240  11.950  0.00  0.00    +0.000 HD
ATOM     68  C   UNL     1      -5.228  10.090   3.544  0.00  0.00    +0.000 C 
ATOM     69  C   UNL     1      -3.866  10.405   3.281  0.00  0.00    +0.000 C 
ATOM     70  C   UNL     1      -3.153  10.535   4.567  0.00  0.00    +0.000 C 
ATOM     71  C   UNL     1      -9.218   6.151   2.753  0.00  0.00    +0.000 C 
ATOM     72  C   UNL     1      -7.980   5.665   2.818  0.00  0.00    +0.000 C 
ATOM     73  C   UNL     1     -10.478   5.692   3.148  0.00  0.00    +0.000 C 
ATOM     74  C   UNL     1     -14.902   7.405   5.147  0.00  0.00    +0.000 C 
ATOM     75  C   UNL     1     -16.164   7.951   5.334  0.00  0.00    +0.000 C 
ATOM     76  C   UNL     1     -17.411   7.056   5.495  0.00  0.00    +0.000 C 
ATOM     77  C   UNL     1     -16.165   8.974   6.263  0.00  0.00    +0.000 C 
ATOM     78  C   UNL     1      -3.823  10.405  13.894  0.00  0.00    +0.000 C 
ATOM     79  C   UNL     1      -3.108   9.844  14.866  0.00  0.00    +0.000 C 
ATOM     80  C   UNL     1      -4.112  11.715  13.509  0.00  0.00    +0.000 C 
ATOM     81  C   UNL     1     -14.862   9.577  15.580  0.00  0.00    +0.000 C 
ATOM     82  C   UNL     1     -15.866   9.143  16.595  0.00  0.00    +0.000 C 
ATOM     83  C   UNL     1     -15.243  10.216  14.375  0.00  0.00    +0.000 C 
ENDROOT
BRANCH  69  84
ATOM     84  C   UNL     1      -3.349  10.919   2.068  0.00  0.00    +0.000 C 
ATOM     85  C   UNL     1      -2.909  11.348   1.036  0.00  0.00    +0.000 C 
BRANCH  85  86
ATOM     86  C   UNL     1      -2.345  11.890  -0.282  0.00  0.00    +0.000 C 
ATOM     87  C   UNL     1      -1.851  12.358  -1.427  0.00  0.00    +0.000 C 
ENDBRANCH  85  86
ENDBRANCH  69  84
BRANCH  13  88
ATOM     88  C   UNL     1      -8.089   9.386   5.641  0.00  0.00    +0.000 C 
BRANCH  88  89
ATOM     89  O   UNL     1      -8.750   8.784   6.621  0.00  0.00    +0.000 OA
ATOM     90  H   UNL     1      -8.781   9.361   7.405  0.00  0.00    +0.000 HD
ENDBRANCH  88  89
ENDBRANCH  13  88
TORSDOF 4
ENDMDL
MODEL 6
REMARK VINA RESULT:      -7.8     24.590     28.357
REMARK  Name = Cyclosporin_A.pdbqt.pdb
REMARK  4 active torsions:
REMARK  status: ('A' for Active; 'I' for Inactive)
REMARK    1  A    between atoms: N_13  and  C_36
REMARK    2  A    between atoms: C_36  and  O_70
REMARK    3  A    between atoms: C_72  and  C_73
REMARK    4  A    between atoms: C_75  and  C_76
REMARK                            x       y       z     vdW  Elec       q    Type
REMARK                         _______ _______ _______ _____ _____    ______ ____
ROOT
ATOM      1  O   UNL     1      -9.062  11.629   3.730  0.00  0.00    +0.000 OA
ATOM      2  O   UNL     1     -13.804  10.850   1.935  0.00  0.00    +0.000 OA
ATOM      3  O   UNL     1     -15.468   7.610   5.041  0.00  0.00    +0.000 OA
ATOM      4  O   UNL     1      -6.676   7.887   5.806  0.00  0.00    +0.000 OA
ATOM      5  O   UNL     1     -15.734  12.673   5.182  0.00  0.00    +0.000 OA
ATOM      6  O   UNL     1     -13.204  11.868  16.139  0.00  0.00    +0.000 OA
ATOM      7  O   UNL     1      -6.313  12.913   8.193  0.00  0.00    +0.000 OA
ATOM      8  O   UNL     1      -9.472   9.057  14.578  0.00  0.00    +0.000 OA
ATOM      9  O   UNL     1     -16.990  12.568  13.197  0.00  0.00    +0.000 OA
ATOM     10  O   UNL     1      -6.725  10.777  12.056  0.00  0.00    +0.000 OA
ATOM     11  O   UNL     1     -15.795  14.007   9.311  0.00  0.00    +0.000 OA
ATOM     12  N   UNL     1     -12.257  10.498   3.045  0.00  0.00    +0.000 NA
ATOM     13  N   UNL     1      -9.835   9.600   4.765  0.00  0.00    +0.000 NA
ATOM     14  N   UNL     1     -15.058   9.026   3.713  0.00  0.00    +0.000 NA
ATOM     15  N   UNL     1     -16.369  10.406   6.260  0.00  0.00    +0.000 NA
ATOM     16  N   UNL     1      -7.823   9.604   7.103  0.00  0.00    +0.000 NA
ATOM     17  N   UNL     1     -14.203  10.360  14.632  0.00  0.00    +0.000 N 
ATOM     18  N   UNL     1     -11.272  10.211  13.625  0.00  0.00    +0.000 N 
ATOM     19  N   UNL     1      -8.654  10.679  12.455  0.00  0.00    +0.000 NA
ATOM     20  N   UNL     1      -8.242  11.985   8.964  0.00  0.00    +0.000 NA
ATOM     21  N   UNL     1     -15.025  11.775   8.543  0.00  0.00    +0.000 NA
ATOM     22  N   UNL     1     -14.954  11.936  12.064  0.00  0.00    +0.000 NA
ATOM     23  C   UNL     1     -11.226  11.306   3.428  0.00  0.00    +0.000 C 
ATOM     24  C   UNL     1     -13.758   9.283   3.882  0.00  0.00    +0.000 C 
ATOM     25  C   UNL     1      -8.610   8.962   4.813  0.00  0.00    +0.000 C 
ATOM     26  C   UNL     1     -10.876  12.464   2.756  0.00  0.00    +0.000 C 
ATOM     27  C   UNL     1     -13.285   7.883   3.806  0.00  0.00    +0.000 C 
ATOM     28  C   UNL     1     -10.113  10.755   4.028  0.00  0.00    +0.000 C 
ATOM     29  C   UNL     1     -13.634  10.399   3.125  0.00  0.00    +0.000 C 
ATOM     30  C   UNL     1     -16.392   9.899   5.059  0.00  0.00    +0.000 C 
ATOM     31  C   UNL     1     -15.459   8.907   4.982  0.00  0.00    +0.000 C 
ATOM     32  C   UNL     1      -7.872   8.642   6.072  0.00  0.00    +0.000 C 
ATOM     33  C   UNL     1     -11.761  12.382   1.637  0.00  0.00    +0.000 C 
ATOM     34  C   UNL     1      -9.524  12.540   2.800  0.00  0.00    +0.000 C 
ATOM     35  C   UNL     1     -12.575  11.311   1.974  0.00  0.00    +0.000 C 
ATOM     36  C   UNL     1     -14.972   7.607   3.718  0.00  0.00    +0.000 C 
ATOM     37  C   UNL     1      -6.843  10.620   7.229  0.00  0.00    +0.000 C 
ATOM     38  C   UNL     1     -11.744  10.920  14.699  0.00  0.00    +0.000 A 
ATOM     39  C   UNL     1     -15.652  11.482   5.951  0.00  0.00    +0.000 C 
ATOM     40  C   UNL     1     -15.343  11.120  14.265  0.00  0.00    +0.000 C 
ATOM     41  C   UNL     1      -9.105   9.415  12.638  0.00  0.00    +0.000 C 
ATOM     42  C   UNL     1     -17.849  10.525   6.210  0.00  0.00    +0.000 C 
ATOM     43  C   UNL     1     -11.036  11.754  15.618  0.00  0.00    +0.000 A 
ATOM     44  C   UNL     1     -16.414  10.715  15.668  0.00  0.00    +0.000 C 
ATOM     45  C   UNL     1     -15.198  11.994   7.276  0.00  0.00    +0.000 C 
ATOM     46  C   UNL     1      -8.291   8.895  13.792  0.00  0.00    +0.000 C 
ATOM     47  C   UNL     1      -5.703  10.419   6.393  0.00  0.00    +0.000 C 
ATOM     48  C   UNL     1     -13.080  11.004  15.078  0.00  0.00    +0.000 A 
ATOM     49  C   UNL     1      -7.072  11.701   8.017  0.00  0.00    +0.000 C 
ATOM     50  C   UNL     1     -10.098   9.621  13.582  0.00  0.00    +0.000 C 
ATOM     51  C   UNL     1     -15.732  11.905  13.205  0.00  0.00    +0.000 C 
ATOM     52  C   UNL     1      -8.137  11.150  10.164  0.00  0.00    +0.000 C 
ATOM     53  C   UNL     1      -9.573  12.109  15.646  0.00  0.00    +0.000 C 
ATOM     54  C   UNL     1     -11.959  12.311  16.466  0.00  0.00    +0.000 A 
ATOM     55  C   UNL     1      -7.873  10.430  11.357  0.00  0.00    +0.000 C 
ATOM     56  C   UNL     1     -15.211  12.624  10.999  0.00  0.00    +0.000 C 
ATOM     57  C   UNL     1     -15.332  12.971   6.327  0.00  0.00    +0.000 C 
ATOM     58  C   UNL     1     -15.163  10.164  15.565  0.00  0.00    +0.000 C 
ATOM     59  C   UNL     1      -5.248   9.705   5.545  0.00  0.00    +0.000 C 
ATOM     60  C   UNL     1     -15.261  12.677   9.485  0.00  0.00    +0.000 C 
ATOM     61  C   UNL     1      -7.374  10.624  13.357  0.00  0.00    +0.000 C 
ATOM     62  C   UNL     1      -7.337  12.943   8.887  0.00  0.00    +0.000 C 
ATOM     63  C   UNL     1     -15.712  13.794  10.532  0.00  0.00    +0.000 C 
ATOM     64  H   UNL     1      -8.743  10.010   7.274  0.00  0.00    +0.000 HD
ATOM     65  H   UNL     1     -11.769  10.342  12.748  0.00  0.00    +0.000 HD
ATOM     66  H   UNL     1     -14.947  10.806   8.840  0.00  0.00    +0.000 HD
ATOM     67  H   UNL     1     -14.377  11.103  11.991  0.00  0.00    +0.000 HD
ATOM     68  C   UNL     1      -7.800   8.917   3.792  0.00  0.00    +0.000 C 
ATOM     69  C   UNL     1      -6.404   8.727   3.588  0.00  0.00    +0.000 C 
ATOM     70  C   UNL     1      -5.757   8.530   4.901  0.00  0.00    +0.000 C 
ATOM     71  C   UNL     1     -12.899   6.738   2.649  0.00  0.00    +0.000 C 
ATOM     72  C   UNL     1     -11.925   5.832   2.721  0.00  0.00    +0.000 C 
ATOM     73  C   UNL     1     -14.258   6.750   2.978  0.00  0.00    +0.000 C 
ATOM     74  C   UNL     1     -17.856   9.861   4.945  0.00  0.00    +0.000 C 
ATOM     75  C   UNL     1     -18.844  10.819   5.127  0.00  0.00    +0.000 C 
ATOM     76  C   UNL     1     -20.336  10.432   5.197  0.00  0.00    +0.000 C 
ATOM     77  C   UNL     1     -18.521  11.730   6.116  0.00  0.00    +0.000 C 
ATOM     78  C   UNL     1      -6.887   8.231  14.180  0.00  0.00    +0.000 C 
ATOM     79  C   UNL     1      -6.472   7.405  15.137  0.00  0.00    +0.000 C 
ATOM     80  C   UNL     1      -6.664   9.572  13.865  0.00  0.00    +0.000 C 
ATOM     81  C   UNL     1     -17.548  11.396  15.486  0.00  0.00    +0.000 C 
ATOM     82  C   UNL     1     -18.691  11.311  16.444  0.00  0.00    +0.000 C 
ATOM     83  C   UNL     1     -17.613  12.183  14.311  0.00  0.00    +0.000 C 
ENDROOT
BRANCH  69  84
ATOM     84  C   UNL     1      -5.678   9.072   2.425  0.00  0.00    +0.000 C 
ATOM     85  C   UNL     1      -5.063   9.358   1.433  0.00  0.00    +0.000 C 
BRANCH  85  86
ATOM     86  C   UNL     1      -4.279   9.719   0.167  0.00  0.00    +0.000 C 
ATOM     87  C   UNL     1      -3.601  10.030  -0.937  0.00  0.00    +0.000 C 
ENDBRANCH  85  86
ENDBRANCH  69  84
BRANCH  13  88
ATOM     88  C   UNL     1     -10.821   9.206   5.758  0.00  0.00    +0.000 C 
BRANCH  88  89
ATOM     89  O   UNL     1     -11.712   8.824   6.663  0.00  0.00    +0.000 OA
ATOM     90  H   UNL     1     -12.590   8.739   6.250  0.00  0.00    +0.000 HD
ENDBRANCH  88  89
ENDBRANCH  13  88
TORSDOF 4
ENDMDL
MODEL 7
REMARK VINA RESULT:      -7.8     18.576     22.359
REMARK  Name = Cyclosporin_A.pdbqt.pdb
REMARK  4 active torsions:
REMARK  status: ('A' for Active; 'I' for Inactive)
REMARK    1  A    between atoms: N_13  and  C_36
REMARK    2  A    between atoms: C_36  and  O_70
REMARK    3  A    between atoms: C_72  and  C_73
REMARK    4  A    between atoms: C_75  and  C_76
REMARK                            x       y       z     vdW  Elec       q    Type
REMARK                         _______ _______ _______ _____ _____    ______ ____
ROOT
ATOM      1  O   UNL     1      -3.019 -24.597   3.133  0.00  0.00    +0.000 OA
ATOM      2  O   UNL     1      -2.614 -26.256   7.969  0.00  0.00    +0.000 OA
ATOM      3  O   UNL     1      -2.616 -22.125  10.388  0.00  0.00    +0.000 OA
ATOM      4  O   UNL     1      -0.915 -20.345   1.908  0.00  0.00    +0.000 OA
ATOM      5  O   UNL     1      -6.496 -25.119   9.079  0.00  0.00    +0.000 OA
ATOM      6  O   UNL     1     -12.035 -15.682   6.363  0.00  0.00    +0.000 OA
ATOM      7  O   UNL     1      -5.994 -21.464  -0.101  0.00  0.00    +0.000 OA
ATOM      8  O   UNL     1      -7.988 -14.628   3.760  0.00  0.00    +0.000 OA
ATOM      9  O   UNL     1     -11.745 -18.985   9.896  0.00  0.00    +0.000 OA
ATOM     10  O   UNL     1      -6.939 -17.218   0.750  0.00  0.00    +0.000 OA
ATOM     11  O   UNL     1     -10.061 -22.709   8.517  0.00  0.00    +0.000 OA
ATOM     12  N   UNL     1      -2.627 -24.938   6.551  0.00  0.00    +0.000 NA
ATOM     13  N   UNL     1      -2.381 -22.679   4.438  0.00  0.00    +0.000 NA
ATOM     14  N   UNL     1      -2.719 -23.957   9.631  0.00  0.00    +0.000 NA
ATOM     15  N   UNL     1      -5.672 -23.003  10.323  0.00  0.00    +0.000 NA
ATOM     16  N   UNL     1      -3.294 -20.546   2.405  0.00  0.00    +0.000 NA
ATOM     17  N   UNL     1     -10.260 -16.100   7.853  0.00  0.00    +0.000 N 
ATOM     18  N   UNL     1      -8.730 -16.347   5.164  0.00  0.00    +0.000 N 
ATOM     19  N   UNL     1      -7.638 -17.142   2.593  0.00  0.00    +0.000 NA
ATOM     20  N   UNL     1      -6.315 -20.597   1.978  0.00  0.00    +0.000 NA
ATOM     21  N   UNL     1      -7.735 -21.841   8.509  0.00  0.00    +0.000 NA
ATOM     22  N   UNL     1     -10.023 -19.176   8.213  0.00  0.00    +0.000 NA
ATOM     23  C   UNL     1      -3.180 -24.970   5.304  0.00  0.00    +0.000 C 
ATOM     24  C   UNL     1      -2.661 -23.781   8.308  0.00  0.00    +0.000 C 
ATOM     25  C   UNL     1      -1.611 -22.068   3.467  0.00  0.00    +0.000 C 
ATOM     26  C   UNL     1      -3.518 -26.141   4.650  0.00  0.00    +0.000 C 
ATOM     27  C   UNL     1      -1.457 -22.920   8.292  0.00  0.00    +0.000 C 
ATOM     28  C   UNL     1      -2.847 -23.997   4.384  0.00  0.00    +0.000 C 
ATOM     29  C   UNL     1      -2.977 -25.028   7.886  0.00  0.00    +0.000 C 
ATOM     30  C   UNL     1      -4.559 -23.638  10.562  0.00  0.00    +0.000 C 
ATOM     31  C   UNL     1      -3.530 -22.955   9.984  0.00  0.00    +0.000 C 
ATOM     32  C   UNL     1      -1.959 -20.777   2.800  0.00  0.00    +0.000 C 
ATOM     33  C   UNL     1      -3.001 -27.102   5.573  0.00  0.00    +0.000 C 
ATOM     34  C   UNL     1      -3.234 -25.946   3.340  0.00  0.00    +0.000 C 
ATOM     35  C   UNL     1      -2.645 -26.316   6.658  0.00  0.00    +0.000 C 
ATOM     36  C   UNL     1      -1.657 -23.081   9.985  0.00  0.00    +0.000 C 
ATOM     37  C   UNL     1      -3.853 -20.912   1.155  0.00  0.00    +0.000 C 
ATOM     38  C   UNL     1     -10.047 -16.009   5.340  0.00  0.00    +0.000 A 
ATOM     39  C   UNL     1      -6.077 -23.785   9.328  0.00  0.00    +0.000 C 
ATOM     40  C   UNL     1     -10.898 -17.022   8.721  0.00  0.00    +0.000 C 
ATOM     41  C   UNL     1      -6.945 -16.304   3.400  0.00  0.00    +0.000 C 
ATOM     42  C   UNL     1      -6.130 -23.341  11.696  0.00  0.00    +0.000 C 
ATOM     43  C   UNL     1     -11.040 -15.687   4.365  0.00  0.00    +0.000 A 
ATOM     44  C   UNL     1     -11.764 -15.845   9.793  0.00  0.00    +0.000 C 
ATOM     45  C   UNL     1      -7.154 -22.990   8.671  0.00  0.00    +0.000 C 
ATOM     46  C   UNL     1      -7.060 -14.963   2.727  0.00  0.00    +0.000 C 
ATOM     47  C   UNL     1      -2.877 -21.268   0.177  0.00  0.00    +0.000 C 
ATOM     48  C   UNL     1     -10.706 -15.969   6.565  0.00  0.00    +0.000 A 
ATOM     49  C   UNL     1      -5.199 -20.985   1.001  0.00  0.00    +0.000 C 
ATOM     50  C   UNL     1      -7.952 -15.843   4.232  0.00  0.00    +0.000 C 
ATOM     51  C   UNL     1     -10.921 -18.385   8.904  0.00  0.00    +0.000 C 
ATOM     52  C   UNL     1      -6.418 -19.138   2.073  0.00  0.00    +0.000 C 
ATOM     53  C   UNL     1     -10.922 -15.655   2.864  0.00  0.00    +0.000 C 
ATOM     54  C   UNL     1     -12.226 -15.504   5.028  0.00  0.00    +0.000 A 
ATOM     55  C   UNL     1      -6.560 -17.729   1.982  0.00  0.00    +0.000 C 
ATOM     56  C   UNL     1      -9.936 -20.464   8.300  0.00  0.00    +0.000 C 
ATOM     57  C   UNL     1      -7.319 -24.343   8.547  0.00  0.00    +0.000 C 
ATOM     58  C   UNL     1     -10.956 -15.400   8.778  0.00  0.00    +0.000 C 
ATOM     59  C   UNL     1      -1.702 -21.428   0.006  0.00  0.00    +0.000 C 
ATOM     60  C   UNL     1      -9.047 -21.687   8.409  0.00  0.00    +0.000 C 
ATOM     61  C   UNL     1      -7.812 -16.208   1.347  0.00  0.00    +0.000 C 
ATOM     62  C   UNL     1      -6.725 -21.097   0.828  0.00  0.00    +0.000 C 
ATOM     63  C   UNL     1     -10.641 -21.613   8.441  0.00  0.00    +0.000 C 
ATOM     64  H   UNL     1      -3.948 -20.800   3.146  0.00  0.00    +0.000 HD
ATOM     65  H   UNL     1      -8.415 -17.188   5.641  0.00  0.00    +0.000 HD
ATOM     66  H   UNL     1      -7.186 -21.010   8.718  0.00  0.00    +0.000 HD
ATOM     67  H   UNL     1      -9.210 -18.640   7.925  0.00  0.00    +0.000 HD
ATOM     68  C   UNL     1      -0.723 -22.714   2.763  0.00  0.00    +0.000 C 
ATOM     69  C   UNL     1      -0.079 -22.544   1.505  0.00  0.00    +0.000 C 
ATOM     70  C   UNL     1      -0.576 -21.300   0.884  0.00  0.00    +0.000 C 
ATOM     71  C   UNL     1       0.208 -23.072   8.336  0.00  0.00    +0.000 C 
ATOM     72  C   UNL     1       1.093 -22.319   7.685  0.00  0.00    +0.000 C 
ATOM     73  C   UNL     1      -0.373 -23.031   9.607  0.00  0.00    +0.000 C 
ATOM     74  C   UNL     1      -4.857 -23.929  11.971  0.00  0.00    +0.000 C 
ATOM     75  C   UNL     1      -5.942 -24.518  12.606  0.00  0.00    +0.000 C 
ATOM     76  C   UNL     1      -6.105 -24.458  14.140  0.00  0.00    +0.000 C 
ATOM     77  C   UNL     1      -7.138 -24.246  11.969  0.00  0.00    +0.000 C 
ATOM     78  C   UNL     1      -6.433 -14.042   1.577  0.00  0.00    +0.000 C 
ATOM     79  C   UNL     1      -6.310 -12.731   1.388  0.00  0.00    +0.000 C 
ATOM     80  C   UNL     1      -7.163 -15.065   0.969  0.00  0.00    +0.000 C 
ATOM     81  C   UNL     1     -12.458 -16.573  10.670  0.00  0.00    +0.000 C 
ATOM     82  C   UNL     1     -13.300 -15.949  11.733  0.00  0.00    +0.000 C 
ATOM     83  C   UNL     1     -12.323 -17.978  10.550  0.00  0.00    +0.000 C 
ENDROOT
BRANCH  69  84
ATOM     84  C   UNL     1       0.588 -23.550   0.768  0.00  0.00    +0.000 C 
ATOM     85  C   UNL     1       1.147 -24.405   0.137  0.00  0.00    +0.000 C 
BRANCH  85  86
ATOM     86  C   UNL     1       1.857 -25.498  -0.670  0.00  0.00    +0.000 C 
ATOM     87  C   UNL     1       2.471 -26.446  -1.376  0.00  0.00    +0.000 C 
ENDBRANCH  85  86
ENDBRANCH  69  84
BRANCH  13  88
ATOM     88  C   UNL     1      -2.977 -21.817   5.445  0.00  0.00    +0.000 C 
BRANCH  88  89
ATOM     89  O   UNL     1      -3.529 -21.015   6.346  0.00  0.00    +0.000 OA
ATOM     90  H   UNL     1      -3.746 -21.518   7.151  0.00  0.00    +0.000 HD
ENDBRANCH  88  89
ENDBRANCH  13  88
TORSDOF 4
ENDMDL
MODEL 8
REMARK VINA RESULT:      -7.7     22.444     28.177
REMARK  Name = Cyclosporin_A.pdbqt.pdb
REMARK  4 active torsions:
REMARK  status: ('A' for Active; 'I' for Inactive)
REMARK    1  A    between atoms: N_13  and  C_36
REMARK    2  A    between atoms: C_36  and  O_70
REMARK    3  A    between atoms: C_72  and  C_73
REMARK    4  A    between atoms: C_75  and  C_76
REMARK                            x       y       z     vdW  Elec       q    Type
REMARK                         _______ _______ _______ _____ _____    ______ ____
ROOT
ATOM      1  O   UNL     1     -15.498  -0.956  30.920  0.00  0.00    +0.000 OA
ATOM      2  O   UNL     1     -10.564   0.433  30.717  0.00  0.00    +0.000 OA
ATOM      3  O   UNL     1      -9.454  -0.686  26.196  0.00  0.00    +0.000 OA
ATOM      4  O   UNL     1     -16.980  -4.808  28.281  0.00  0.00    +0.000 OA
ATOM      5  O   UNL     1     -11.196   3.669  28.125  0.00  0.00    +0.000 OA
ATOM      6  O   UNL     1     -18.002   4.184  19.152  0.00  0.00    +0.000 OA
ATOM      7  O   UNL     1     -20.253  -0.298  28.455  0.00  0.00    +0.000 OA
ATOM      8  O   UNL     1     -19.230  -0.415  20.421  0.00  0.00    +0.000 OA
ATOM      9  O   UNL     1     -13.858   6.045  20.837  0.00  0.00    +0.000 OA
ATOM     10  O   UNL     1     -20.913  -0.977  24.125  0.00  0.00    +0.000 OA
ATOM     11  O   UNL     1     -13.557   5.739  25.129  0.00  0.00    +0.000 OA
ATOM     12  N   UNL     1     -12.190  -0.403  30.079  0.00  0.00    +0.000 NA
ATOM     13  N   UNL     1     -14.598  -2.002  28.950  0.00  0.00    +0.000 NA
ATOM     14  N   UNL     1      -9.698  -0.028  28.052  0.00  0.00    +0.000 NA
ATOM     15  N   UNL     1     -10.338   2.365  26.059  0.00  0.00    +0.000 NA
ATOM     16  N   UNL     1     -17.299  -2.504  27.548  0.00  0.00    +0.000 NA
ATOM     17  N   UNL     1     -15.938   3.109  19.511  0.00  0.00    +0.000 N 
ATOM     18  N   UNL     1     -17.773   1.249  21.186  0.00  0.00    +0.000 N 
ATOM     19  N   UNL     1     -19.510   0.025  23.166  0.00  0.00    +0.000 NA
ATOM     20  N   UNL     1     -18.713   0.103  26.829  0.00  0.00    +0.000 NA
ATOM     21  N   UNL     1     -12.987   3.324  25.079  0.00  0.00    +0.000 NA
ATOM     22  N   UNL     1     -14.734   4.217  22.150  0.00  0.00    +0.000 NA
ATOM     23  C   UNL     1     -13.498  -0.178  30.398  0.00  0.00    +0.000 C 
ATOM     24  C   UNL     1     -10.917  -0.445  28.404  0.00  0.00    +0.000 C 
ATOM     25  C   UNL     1     -15.367  -3.148  29.006  0.00  0.00    +0.000 C 
ATOM     26  C   UNL     1     -13.900   0.447  31.564  0.00  0.00    +0.000 C 
ATOM     27  C   UNL     1     -10.740  -1.864  28.021  0.00  0.00    +0.000 C 
ATOM     28  C   UNL     1     -14.465  -1.070  29.984  0.00  0.00    +0.000 C 
ATOM     29  C   UNL     1     -11.083   0.242  29.558  0.00  0.00    +0.000 C 
ATOM     30  C   UNL     1      -9.574   1.685  26.868  0.00  0.00    +0.000 C 
ATOM     31  C   UNL     1      -9.919   0.368  26.796  0.00  0.00    +0.000 C 
ATOM     32  C   UNL     1     -16.424  -3.509  28.013  0.00  0.00    +0.000 C 
ATOM     33  C   UNL     1     -12.640   0.581  32.225  0.00  0.00    +0.000 C 
ATOM     34  C   UNL     1     -15.036  -0.176  31.963  0.00  0.00    +0.000 C 
ATOM     35  C   UNL     1     -11.742   0.191  31.244  0.00  0.00    +0.000 C 
ATOM     36  C   UNL     1      -9.240  -1.244  27.477  0.00  0.00    +0.000 C 
ATOM     37  C   UNL     1     -18.525  -2.140  28.160  0.00  0.00    +0.000 C 
ATOM     38  C   UNL     1     -18.156   2.323  20.422  0.00  0.00    +0.000 A 
ATOM     39  C   UNL     1     -11.173   2.817  26.990  0.00  0.00    +0.000 C 
ATOM     40  C   UNL     1     -15.136   4.241  19.805  0.00  0.00    +0.000 C 
ATOM     41  C   UNL     1     -18.761  -0.747  22.343  0.00  0.00    +0.000 C 
ATOM     42  C   UNL     1      -9.170   3.214  25.710  0.00  0.00    +0.000 C 
ATOM     43  C   UNL     1     -19.462   2.856  20.197  0.00  0.00    +0.000 A 
ATOM     44  C   UNL     1     -14.773   4.775  18.112  0.00  0.00    +0.000 C 
ATOM     45  C   UNL     1     -12.343   3.306  26.205  0.00  0.00    +0.000 C 
ATOM     46  C   UNL     1     -19.755  -1.335  21.379  0.00  0.00    +0.000 C 
ATOM     47  C   UNL     1     -18.979  -3.082  29.131  0.00  0.00    +0.000 C 
ATOM     48  C   UNL     1     -17.288   3.165  19.735  0.00  0.00    +0.000 A 
ATOM     49  C   UNL     1     -19.109  -0.950  27.870  0.00  0.00    +0.000 C 
ATOM     50  C   UNL     1     -18.476   0.148  21.325  0.00  0.00    +0.000 C 
ATOM     51  C   UNL     1     -14.625   4.851  20.927  0.00  0.00    +0.000 C 
ATOM     52  C   UNL     1     -19.042  -0.371  25.482  0.00  0.00    +0.000 C 
ATOM     53  C   UNL     1     -20.783   2.403  20.758  0.00  0.00    +0.000 C 
ATOM     54  C   UNL     1     -19.320   3.984  19.429  0.00  0.00    +0.000 A 
ATOM     55  C   UNL     1     -19.537  -0.832  24.235  0.00  0.00    +0.000 C 
ATOM     56  C   UNL     1     -14.292   4.677  23.275  0.00  0.00    +0.000 C 
ATOM     57  C   UNL     1     -12.161   3.969  27.388  0.00  0.00    +0.000 C 
ATOM     58  C   UNL     1     -15.526   3.652  18.343  0.00  0.00    +0.000 C 
ATOM     59  C   UNL     1     -18.686  -4.099  29.694  0.00  0.00    +0.000 C 
ATOM     60  C   UNL     1     -13.570   4.404  24.580  0.00  0.00    +0.000 C 
ATOM     61  C   UNL     1     -20.936  -0.475  22.752  0.00  0.00    +0.000 C 
ATOM     62  C   UNL     1     -19.763   0.411  27.567  0.00  0.00    +0.000 C 
ATOM     63  C   UNL     1     -14.109   5.797  24.018  0.00  0.00    +0.000 C 
ATOM     64  H   UNL     1     -16.790  -1.656  27.298  0.00  0.00    +0.000 HD
ATOM     65  H   UNL     1     -17.016   1.415  21.844  0.00  0.00    +0.000 HD
ATOM     66  H   UNL     1     -12.825   2.549  24.440  0.00  0.00    +0.000 HD
ATOM     67  H   UNL     1     -14.853   3.215  22.034  0.00  0.00    +0.000 HD
ATOM     68  C   UNL     1     -15.528  -3.835  30.104  0.00  0.00    +0.000 C 
ATOM     69  C   UNL     1     -16.485  -4.756  30.615  0.00  0.00    +0.000 C 
ATOM     70  C   UNL     1     -17.540  -4.954  29.601  0.00  0.00    +0.000 C 
ATOM     71  C   UNL     1     -10.087  -3.272  28.646  0.00  0.00    +0.000 C 
ATOM     72  C   UNL     1     -10.565  -4.506  28.495  0.00  0.00    +0.000 C 
ATOM     73  C   UNL     1      -9.151  -2.488  27.964  0.00  0.00    +0.000 C 
ATOM     74  C   UNL     1      -8.330   2.382  26.513  0.00  0.00    +0.000 C 
ATOM     75  C   UNL     1      -7.979   3.724  26.465  0.00  0.00    +0.000 C 
ATOM     76  C   UNL     1      -6.667   4.188  25.797  0.00  0.00    +0.000 C 
ATOM     77  C   UNL     1      -9.036   4.534  26.097  0.00  0.00    +0.000 C 
ATOM     78  C   UNL     1     -20.816  -2.518  21.186  0.00  0.00    +0.000 C 
ATOM     79  C   UNL     1     -21.284  -3.198  20.142  0.00  0.00    +0.000 C 
ATOM     80  C   UNL     1     -21.350  -1.595  22.086  0.00  0.00    +0.000 C 
ATOM     81  C   UNL     1     -14.031   5.881  18.216  0.00  0.00    +0.000 C 
ATOM     82  C   UNL     1     -13.525   6.615  17.019  0.00  0.00    +0.000 C 
ATOM     83  C   UNL     1     -13.729   6.299  19.535  0.00  0.00    +0.000 C 
ENDROOT
BRANCH  69  84
ATOM     84  C   UNL     1     -16.660  -5.108  31.974  0.00  0.00    +0.000 C 
ATOM     85  C   UNL     1     -16.809  -5.398  33.130  0.00  0.00    +0.000 C 
BRANCH  85  86
ATOM     86  C   UNL     1     -16.999  -5.765  34.605  0.00  0.00    +0.000 C 
ATOM     87  C   UNL     1     -17.165  -6.078  35.889  0.00  0.00    +0.000 C 
ENDBRANCH  85  86
ENDBRANCH  69  84
BRANCH  13  88
ATOM     88  C   UNL     1     -14.118  -1.595  27.639  0.00  0.00    +0.000 C 
BRANCH  88  89
ATOM     89  O   UNL     1     -13.675  -1.201  26.453  0.00  0.00    +0.000 OA
ATOM     90  H   UNL     1     -13.998  -1.804  25.760  0.00  0.00    +0.000 HD
ENDBRANCH  88  89
ENDBRANCH  13  88
TORSDOF 4
ENDMDL
MODEL 9
REMARK VINA RESULT:      -7.6      9.735     17.445
REMARK  Name = Cyclosporin_A.pdbqt.pdb
REMARK  4 active torsions:
REMARK  status: ('A' for Active; 'I' for Inactive)
REMARK    1  A    between atoms: N_13  and  C_36
REMARK    2  A    between atoms: C_36  and  O_70
REMARK    3  A    between atoms: C_72  and  C_73
REMARK    4  A    between atoms: C_75  and  C_76
REMARK                            x       y       z     vdW  Elec       q    Type
REMARK                         _______ _______ _______ _____ _____    ______ ____
ROOT
ATOM      1  O   UNL     1      11.039  -0.543   0.451  0.00  0.00    +0.000 OA
ATOM      2  O   UNL     1       8.477   3.401  -1.596  0.00  0.00    +0.000 OA
ATOM      3  O   UNL     1       4.395   3.273   0.902  0.00  0.00    +0.000 OA
ATOM      4  O   UNL     1       8.522  -4.458   1.981  0.00  0.00    +0.000 OA
ATOM      5  O   UNL     1       8.690   5.803   1.836  0.00  0.00    +0.000 OA
ATOM      6  O   UNL     1       7.429   2.702  12.601  0.00  0.00    +0.000 OA
ATOM      7  O   UNL     1      12.720  -2.603   5.147  0.00  0.00    +0.000 OA
ATOM      8  O   UNL     1       6.906  -1.827  10.734  0.00  0.00    +0.000 OA
ATOM      9  O   UNL     1       6.778   6.519   9.689  0.00  0.00    +0.000 OA
ATOM     10  O   UNL     1      10.059  -3.378   8.606  0.00  0.00    +0.000 OA
ATOM     11  O   UNL     1       9.189   6.281   6.120  0.00  0.00    +0.000 OA
ATOM     12  N   UNL     1       8.700   1.816  -0.507  0.00  0.00    +0.000 NA
ATOM     13  N   UNL     1       8.747  -0.823   1.125  0.00  0.00    +0.000 NA
ATOM     14  N   UNL     1       6.030   3.610  -0.172  0.00  0.00    +0.000 NA
ATOM     15  N   UNL     1       6.246   5.291   2.519  0.00  0.00    +0.000 NA
ATOM     16  N   UNL     1       9.302  -2.715   3.497  0.00  0.00    +0.000 NA
ATOM     17  N   UNL     1       5.887   2.972  10.843  0.00  0.00    +0.000 N 
ATOM     18  N   UNL     1       7.247   0.341   9.919  0.00  0.00    +0.000 N 
ATOM     19  N   UNL     1       9.032  -1.724   8.923  0.00  0.00    +0.000 NA
ATOM     20  N   UNL     1      10.909  -1.342   5.699  0.00  0.00    +0.000 NA
ATOM     21  N   UNL     1       7.702   4.616   5.033  0.00  0.00    +0.000 NA
ATOM     22  N   UNL     1       7.327   4.470   8.534  0.00  0.00    +0.000 NA
ATOM     23  C   UNL     1       9.818   1.249   0.032  0.00  0.00    +0.000 C 
ATOM     24  C   UNL     1       6.821   2.563   0.078  0.00  0.00    +0.000 C 
ATOM     25  C   UNL     1       8.738  -2.204   1.111  0.00  0.00    +0.000 C 
ATOM     26  C   UNL     1      11.096   1.493  -0.435  0.00  0.00    +0.000 C 
ATOM     27  C   UNL     1       5.820   1.509  -0.204  0.00  0.00    +0.000 C 
ATOM     28  C   UNL     1       9.748  -0.018   0.573  0.00  0.00    +0.000 C 
ATOM     29  C   UNL     1       7.974   2.993  -0.488  0.00  0.00    +0.000 C 
ATOM     30  C   UNL     1       5.978   5.134   1.252  0.00  0.00    +0.000 C 
ATOM     31  C   UNL     1       5.546   3.857   1.049  0.00  0.00    +0.000 C 
ATOM     32  C   UNL     1       8.597  -3.063   2.325  0.00  0.00    +0.000 C 
ATOM     33  C   UNL     1      10.796   2.293  -1.581  0.00  0.00    +0.000 C 
ATOM     34  C   UNL     1      11.772   0.323  -0.338  0.00  0.00    +0.000 C 
ATOM     35  C   UNL     1       9.435   2.516  -1.445  0.00  0.00    +0.000 C 
ATOM     36  C   UNL     1       4.824   2.889  -0.389  0.00  0.00    +0.000 C 
ATOM     37  C   UNL     1      10.620  -3.131   3.814  0.00  0.00    +0.000 C 
ATOM     38  C   UNL     1       7.487   1.035  11.077  0.00  0.00    +0.000 A 
ATOM     39  C   UNL     1       7.564   5.156   2.408  0.00  0.00    +0.000 C 
ATOM     40  C   UNL     1       6.092   4.348  10.565  0.00  0.00    +0.000 C 
ATOM     41  C   UNL     1       7.690  -1.905   8.888  0.00  0.00    +0.000 C 
ATOM     42  C   UNL     1       5.684   6.664   2.442  0.00  0.00    +0.000 C 
ATOM     43  C   UNL     1       8.397   0.744  12.139  0.00  0.00    +0.000 A 
ATOM     44  C   UNL     1       5.030   5.055  11.851  0.00  0.00    +0.000 C 
ATOM     45  C   UNL     1       8.013   4.925   3.811  0.00  0.00    +0.000 C 
ATOM     46  C   UNL     1       7.425  -2.917   9.970  0.00  0.00    +0.000 C 
ATOM     47  C   UNL     1      11.092  -4.200   2.994  0.00  0.00    +0.000 C 
ATOM     48  C   UNL     1       6.893   2.245  11.421  0.00  0.00    +0.000 A 
ATOM     49  C   UNL     1      11.339  -2.471   4.756  0.00  0.00    +0.000 C 
ATOM     50  C   UNL     1       7.272  -0.969   9.821  0.00  0.00    +0.000 C 
ATOM     51  C   UNL     1       6.768   5.098   9.631  0.00  0.00    +0.000 C 
ATOM     52  C   UNL     1      10.038  -1.869   6.753  0.00  0.00    +0.000 C 
ATOM     53  C   UNL     1       9.370  -0.398  12.269  0.00  0.00    +0.000 C 
ATOM     54  C   UNL     1       8.333   1.781  13.034  0.00  0.00    +0.000 A 
ATOM     55  C   UNL     1       9.340  -2.484   7.825  0.00  0.00    +0.000 C 
ATOM     56  C   UNL     1       7.979   5.058   7.585  0.00  0.00    +0.000 C 
ATOM     57  C   UNL     1       8.956   5.531   3.026  0.00  0.00    +0.000 C 
ATOM     58  C   UNL     1       5.132   3.696  11.702  0.00  0.00    +0.000 C 
ATOM     59  C   UNL     1      10.806  -4.892   2.059  0.00  0.00    +0.000 C 
ATOM     60  C   UNL     1       8.239   5.194   6.097  0.00  0.00    +0.000 C 
ATOM     61  C   UNL     1       9.426  -2.927   9.845  0.00  0.00    +0.000 C 
ATOM     62  C   UNL     1      12.172  -1.709   5.804  0.00  0.00    +0.000 C 
ATOM     63  C   UNL     1       8.849   6.056   7.294  0.00  0.00    +0.000 C 
ATOM     64  H   UNL     1       9.213  -1.719   3.701  0.00  0.00    +0.000 HD
ATOM     65  H   UNL     1       7.273   0.882   9.058  0.00  0.00    +0.000 HD
ATOM     66  H   UNL     1       6.842   4.093   5.174  0.00  0.00    +0.000 HD
ATOM     67  H   UNL     1       6.870   3.582   8.349  0.00  0.00    +0.000 HD
ATOM     68  C   UNL     1       9.226  -2.901   0.121  0.00  0.00    +0.000 C 
ATOM     69  C   UNL     1       9.727  -4.220  -0.065  0.00  0.00    +0.000 C 
ATOM     70  C   UNL     1       9.645  -4.944   1.220  0.00  0.00    +0.000 C 
ATOM     71  C   UNL     1       5.173   0.697  -1.515  0.00  0.00    +0.000 C 
ATOM     72  C   UNL     1       4.811  -0.584  -1.558  0.00  0.00    +0.000 C 
ATOM     73  C   UNL     1       4.514   1.897  -1.232  0.00  0.00    +0.000 C 
ATOM     74  C   UNL     1       5.296   6.425   1.087  0.00  0.00    +0.000 C 
ATOM     75  C   UNL     1       5.658   7.731   1.388  0.00  0.00    +0.000 C 
ATOM     76  C   UNL     1       4.628   8.880   1.348  0.00  0.00    +0.000 C 
ATOM     77  C   UNL     1       6.449   7.813   2.518  0.00  0.00    +0.000 C 
ATOM     78  C   UNL     1       7.422  -4.485  10.292  0.00  0.00    +0.000 C 
ATOM     79  C   UNL     1       6.737  -5.271  11.119  0.00  0.00    +0.000 C 
ATOM     80  C   UNL     1       8.748  -4.060  10.202  0.00  0.00    +0.000 C 
ATOM     81  C   UNL     1       5.139   6.381  11.743  0.00  0.00    +0.000 C 
ATOM     82  C   UNL     1       4.395   7.317  12.638  0.00  0.00    +0.000 C 
ATOM     83  C   UNL     1       5.983   6.849  10.707  0.00  0.00    +0.000 C 
ENDROOT
BRANCH  69  84
ATOM     84  C   UNL     1      10.542  -4.658  -1.135  0.00  0.00    +0.000 C 
ATOM     85  C   UNL     1      11.237  -5.023  -2.045  0.00  0.00    +0.000 C 
BRANCH  85  86
ATOM     86  C   UNL     1      12.123  -5.483  -3.207  0.00  0.00    +0.000 C 
ATOM     87  C   UNL     1      12.889  -5.884  -4.220  0.00  0.00    +0.000 C 
ENDBRANCH  85  86
ENDBRANCH  69  84
BRANCH  13  88
ATOM     88  C   UNL     1       7.798  -0.168   2.011  0.00  0.00    +0.000 C 
BRANCH  88  89
ATOM     89  O   UNL     1       6.947   0.423   2.839  0.00  0.00    +0.000 OA
ATOM     90  H   UNL     1       7.243   1.332   3.026  0.00  0.00    +0.000 HD
ENDBRANCH  88  89
ENDBRANCH  13  88
TORSDOF 4
ENDMDL
