MODEL 1
REMARK VINA RESULT:      -5.7      0.000      0.000
REMARK  Name = Danazol.pdbqt.pdb
REMARK  2 active torsions:
REMARK  status: ('A' for Active; 'I' for Inactive)
REMARK    1  A    between atoms: C_9  and  O_23
REMARK    2  A    between atoms: C_9  and  C_25
REMARK                            x       y       z     vdW  Elec       q    Type
REMARK                         _______ _______ _______ _____ _____    ______ ____
ROOT
ATOM      1  O   UNL     1     -15.068 -10.497  30.076  0.00  0.00    +0.000 OA
ATOM      2  N   UNL     1     -14.593 -11.816  30.234  0.00  0.00    +0.000 NA
ATOM      3  C   UNL     1      -9.437  -6.173  27.329  0.00  0.00    +0.000 C 
ATOM      4  C   UNL     1      -8.107  -6.931  26.806  0.00  0.00    +0.000 C 
ATOM      5  C   UNL     1     -10.766  -6.815  27.351  0.00  0.00    +0.000 C 
ATOM      6  C   UNL     1     -11.061  -8.259  27.053  0.00  0.00    +0.000 C 
ATOM      7  C   UNL     1     -12.488  -8.849  26.957  0.00  0.00    +0.000 C 
ATOM      8  C   UNL     1      -8.503  -8.341  26.670  0.00  0.00    +0.000 C 
ATOM      9  C   UNL     1      -6.998  -6.605  27.957  0.00  0.00    +0.000 C 
ATOM     10  C   UNL     1      -9.868  -8.976  26.763  0.00  0.00    +0.000 C 
ATOM     11  C   UNL     1      -9.068  -5.195  28.294  0.00  0.00    +0.000 C 
ATOM     12  C   UNL     1     -11.911  -6.113  27.794  0.00  0.00    +0.000 C 
ATOM     13  C   UNL     1      -7.628  -5.449  28.629  0.00  0.00    +0.000 C 
ATOM     14  C   UNL     1     -13.662  -7.966  27.729  0.00  0.00    +0.000 C 
ATOM     15  C   UNL     1      -7.783  -6.305  25.400  0.00  0.00    +0.000 C 
ATOM     16  C   UNL     1     -13.308  -6.620  27.992  0.00  0.00    +0.000 C 
ATOM     17  C   UNL     1     -12.539 -10.190  27.643  0.00  0.00    +0.000 C 
ATOM     18  C   UNL     1     -12.904  -8.955  25.462  0.00  0.00    +0.000 C 
ATOM     19  C   UNL     1     -14.387  -8.603  28.623  0.00  0.00    +0.000 C 
ATOM     20  C   UNL     1     -13.363 -10.776  28.647  0.00  0.00    +0.000 A 
ATOM     21  C   UNL     1     -14.318  -9.923  29.128  0.00  0.00    +0.000 A 
ATOM     22  C   UNL     1     -13.574 -11.953  29.358  0.00  0.00    +0.000 A 
ENDROOT
BRANCH   9  23
ATOM     23  O   UNL     1      -5.708  -6.215  27.461  0.00  0.00    +0.000 OA
ATOM     24  H   UNL     1      -5.782  -5.301  27.134  0.00  0.00    +0.000 HD
ENDBRANCH   9  23
BRANCH   9  25
ATOM     25  C   UNL     1      -6.840  -7.747  28.891  0.00  0.00    +0.000 C 
ATOM     26  C   UNL     1      -6.701  -8.651  29.661  0.00  0.00    +0.000 C 
ENDBRANCH   9  25
TORSDOF 2
ENDMDL
MODEL 2
REMARK VINA RESULT:      -5.1     14.492     17.379
REMARK  Name = Danazol.pdbqt.pdb
REMARK  2 active torsions:
REMARK  status: ('A' for Active; 'I' for Inactive)
REMARK    1  A    between atoms: C_9  and  O_23
REMARK    2  A    between atoms: C_9  and  C_25
REMARK                            x       y       z     vdW  Elec       q    Type
REMARK                         _______ _______ _______ _____ _____    ______ ____
ROOT
ATOM      1  O   UNL     1       1.042  -2.677  26.601  0.00  0.00    +0.000 OA
ATOM      2  N   UNL     1       1.045  -1.362  27.111  0.00  0.00    +0.000 NA
ATOM      3  C   UNL     1       4.200  -2.634  19.675  0.00  0.00    +0.000 C 
ATOM      4  C   UNL     1       4.952  -1.280  19.210  0.00  0.00    +0.000 C 
ATOM      5  C   UNL     1       4.046  -3.017  21.092  0.00  0.00    +0.000 C 
ATOM      6  C   UNL     1       4.406  -2.174  22.285  0.00  0.00    +0.000 C 
ATOM      7  C   UNL     1       4.351  -2.676  23.747  0.00  0.00    +0.000 C 
ATOM      8  C   UNL     1       5.135  -0.504  20.447  0.00  0.00    +0.000 C 
ATOM      9  C   UNL     1       3.939  -0.635  18.104  0.00  0.00    +0.000 C 
ATOM     10  C   UNL     1       4.905  -0.906  21.882  0.00  0.00    +0.000 C 
ATOM     11  C   UNL     1       3.224  -2.985  18.699  0.00  0.00    +0.000 C 
ATOM     12  C   UNL     1       3.403  -4.221  21.460  0.00  0.00    +0.000 C 
ATOM     13  C   UNL     1       3.107  -1.811  17.774  0.00  0.00    +0.000 C 
ATOM     14  C   UNL     1       3.365  -3.988  23.999  0.00  0.00    +0.000 C 
ATOM     15  C   UNL     1       6.339  -1.737  18.628  0.00  0.00    +0.000 C 
ATOM     16  C   UNL     1       3.055  -4.724  22.829  0.00  0.00    +0.000 C 
ATOM     17  C   UNL     1       3.764  -1.611  24.636  0.00  0.00    +0.000 C 
ATOM     18  C   UNL     1       5.780  -3.082  24.208  0.00  0.00    +0.000 C 
ATOM     19  C   UNL     1       2.431  -3.855  24.915  0.00  0.00    +0.000 C 
ATOM     20  C   UNL     1       2.703  -1.565  25.587  0.00  0.00    +0.000 A 
ATOM     21  C   UNL     1       2.038  -2.754  25.710  0.00  0.00    +0.000 A 
ATOM     22  C   UNL     1       2.058  -0.722  26.487  0.00  0.00    +0.000 A 
ENDROOT
BRANCH   9  23
ATOM     23  O   UNL     1       4.575  -0.159  16.908  0.00  0.00    +0.000 OA
ATOM     24  H   UNL     1       5.432  -0.615  16.828  0.00  0.00    +0.000 HD
ENDBRANCH   9  23
BRANCH   9  25
ATOM     25  C   UNL     1       3.121   0.453  18.693  0.00  0.00    +0.000 C 
ATOM     26  C   UNL     1       2.461   1.316  19.191  0.00  0.00    +0.000 C 
ENDBRANCH   9  25
TORSDOF 2
ENDMDL
MODEL 3
REMARK VINA RESULT:      -4.8     30.190     32.655
REMARK  Name = Danazol.pdbqt.pdb
REMARK  2 active torsions:
REMARK  status: ('A' for Active; 'I' for Inactive)
REMARK    1  A    between atoms: C_9  and  O_23
REMARK    2  A    between atoms: C_9  and  C_25
REMARK                            x       y       z     vdW  Elec       q    Type
REMARK                         _______ _______ _______ _____ _____    ______ ____
ROOT
ATOM      1  O   UNL     1     -11.674   3.388  -4.913  0.00  0.00    +0.000 OA
ATOM      2  N   UNL     1     -11.351   2.126  -5.454  0.00  0.00    +0.000 NA
ATOM      3  C   UNL     1     -17.928   2.695  -0.630  0.00  0.00    +0.000 C 
ATOM      4  C   UNL     1     -18.440   1.197  -0.300  0.00  0.00    +0.000 C 
ATOM      5  C   UNL     1     -16.518   3.011  -0.928  0.00  0.00    +0.000 C 
ATOM      6  C   UNL     1     -15.405   2.017  -1.119  0.00  0.00    +0.000 C 
ATOM      7  C   UNL     1     -13.918   2.405  -1.295  0.00  0.00    +0.000 C 
ATOM      8  C   UNL     1     -17.305   0.325  -0.641  0.00  0.00    +0.000 C 
ATOM      9  C   UNL     1     -19.774   1.031  -1.226  0.00  0.00    +0.000 C 
ATOM     10  C   UNL     1     -15.886   0.684  -1.006  0.00  0.00    +0.000 C 
ATOM     11  C   UNL     1     -18.995   3.435  -1.214  0.00  0.00    +0.000 C 
ATOM     12  C   UNL     1     -16.103   4.337  -1.189  0.00  0.00    +0.000 C 
ATOM     13  C   UNL     1     -20.077   2.445  -1.531  0.00  0.00    +0.000 C 
ATOM     14  C   UNL     1     -13.659   3.961  -1.812  0.00  0.00    +0.000 C 
ATOM     15  C   UNL     1     -18.719   1.170   1.247  0.00  0.00    +0.000 C 
ATOM     16  C   UNL     1     -14.755   4.836  -1.614  0.00  0.00    +0.000 C 
ATOM     17  C   UNL     1     -13.289   1.560  -2.371  0.00  0.00    +0.000 C 
ATOM     18  C   UNL     1     -13.179   2.245   0.064  0.00  0.00    +0.000 C 
ATOM     19  C   UNL     1     -12.935   4.107  -2.900  0.00  0.00    +0.000 C 
ATOM     20  C   UNL     1     -12.540   1.830  -3.554  0.00  0.00    +0.000 A 
ATOM     21  C   UNL     1     -12.370   3.166  -3.792  0.00  0.00    +0.000 A 
ATOM     22  C   UNL     1     -11.879   1.213  -4.612  0.00  0.00    +0.000 A 
ENDROOT
BRANCH   9  23
ATOM     23  O   UNL     1     -20.902   0.441  -0.561  0.00  0.00    +0.000 OA
ATOM     24  H   UNL     1     -20.730   0.476   0.397  0.00  0.00    +0.000 HD
ENDBRANCH   9  23
BRANCH   9  25
ATOM     25  C   UNL     1     -19.479   0.267  -2.463  0.00  0.00    +0.000 C 
ATOM     26  C   UNL     1     -19.218  -0.334  -3.463  0.00  0.00    +0.000 C 
ENDBRANCH   9  25
TORSDOF 2
ENDMDL
MODEL 4
REMARK VINA RESULT:      -4.6     18.287     20.892
REMARK  Name = Danazol.pdbqt.pdb
REMARK  2 active torsions:
REMARK  status: ('A' for Active; 'I' for Inactive)
REMARK    1  A    between atoms: C_9  and  O_23
REMARK    2  A    between atoms: C_9  and  C_25
REMARK                            x       y       z     vdW  Elec       q    Type
REMARK                         _______ _______ _______ _____ _____    ______ ____
ROOT
ATOM      1  O   UNL     1     -11.369 -17.741   5.230  0.00  0.00    +0.000 OA
ATOM      2  N   UNL     1     -12.082 -18.885   4.815  0.00  0.00    +0.000 NA
ATOM      3  C   UNL     1     -12.536 -16.683  12.677  0.00  0.00    +0.000 C 
ATOM      4  C   UNL     1     -13.264 -17.876  13.491  0.00  0.00    +0.000 C 
ATOM      5  C   UNL     1     -11.754 -16.916  11.447  0.00  0.00    +0.000 C 
ATOM      6  C   UNL     1     -11.641 -18.215  10.697  0.00  0.00    +0.000 C 
ATOM      7  C   UNL     1     -10.700 -18.440   9.491  0.00  0.00    +0.000 C 
ATOM      8  C   UNL     1     -13.186 -19.045  12.601  0.00  0.00    +0.000 C 
ATOM      9  C   UNL     1     -14.761 -17.291  13.777  0.00  0.00    +0.000 C 
ATOM     10  C   UNL     1     -12.426 -19.229  11.312  0.00  0.00    +0.000 C 
ATOM     11  C   UNL     1     -13.252 -15.471  12.884  0.00  0.00    +0.000 C 
ATOM     12  C   UNL     1     -11.111 -15.851  10.775  0.00  0.00    +0.000 C 
ATOM     13  C   UNL     1     -14.541 -15.847  13.553  0.00  0.00    +0.000 C 
ATOM     14  C   UNL     1     -10.224 -17.055   8.709  0.00  0.00    +0.000 C 
ATOM     15  C   UNL     1     -12.400 -18.102  14.785  0.00  0.00    +0.000 C 
ATOM     16  C   UNL     1     -10.374 -15.869   9.469  0.00  0.00    +0.000 C 
ATOM     17  C   UNL     1     -11.410 -19.229   8.422  0.00  0.00    +0.000 C 
ATOM     18  C   UNL     1      -9.408 -19.161   9.971  0.00  0.00    +0.000 C 
ATOM     19  C   UNL     1     -10.461 -16.998   7.416  0.00  0.00    +0.000 C 
ATOM     20  C   UNL     1     -11.642 -19.052   7.027  0.00  0.00    +0.000 A 
ATOM     21  C   UNL     1     -11.126 -17.883   6.538  0.00  0.00    +0.000 A 
ATOM     22  C   UNL     1     -12.223 -19.655   5.916  0.00  0.00    +0.000 A 
ENDROOT
BRANCH   9  23
ATOM     23  O   UNL     1     -15.243 -17.492  15.115  0.00  0.00    +0.000 OA
ATOM     24  H   UNL     1     -16.137 -17.111  15.166  0.00  0.00    +0.000 HD
ENDBRANCH   9  23
BRANCH   9  25
ATOM     25  C   UNL     1     -15.746 -17.839  12.812  0.00  0.00    +0.000 C 
ATOM     26  C   UNL     1     -16.537 -18.305  12.046  0.00  0.00    +0.000 C 
ENDBRANCH   9  25
TORSDOF 2
ENDMDL
MODEL 5
REMARK VINA RESULT:      -4.5     19.964     22.313
REMARK  Name = Danazol.pdbqt.pdb
REMARK  2 active torsions:
REMARK  status: ('A' for Active; 'I' for Inactive)
REMARK    1  A    between atoms: C_9  and  O_23
REMARK    2  A    between atoms: C_9  and  C_25
REMARK                            x       y       z     vdW  Elec       q    Type
REMARK                         _______ _______ _______ _____ _____    ______ ____
ROOT
ATOM      1  O   UNL     1     -14.509 -17.050  12.574  0.00  0.00    +0.000 OA
ATOM      2  N   UNL     1     -15.290 -15.882  12.446  0.00  0.00    +0.000 NA
ATOM      3  C   UNL     1     -10.444 -17.998   6.208  0.00  0.00    +0.000 C 
ATOM      4  C   UNL     1     -10.417 -16.771   5.155  0.00  0.00    +0.000 C 
ATOM      5  C   UNL     1     -10.675 -17.807   7.653  0.00  0.00    +0.000 C 
ATOM      6  C   UNL     1     -11.060 -16.519   8.329  0.00  0.00    +0.000 C 
ATOM      7  C   UNL     1     -11.156 -16.342   9.863  0.00  0.00    +0.000 C 
ATOM      8  C   UNL     1     -10.924 -15.613   5.909  0.00  0.00    +0.000 C 
ATOM      9  C   UNL     1     -11.357 -17.293   3.927  0.00  0.00    +0.000 C 
ATOM     10  C   UNL     1     -11.211 -15.470   7.382  0.00  0.00    +0.000 C 
ATOM     11  C   UNL     1     -10.870 -19.179   5.537  0.00  0.00    +0.000 C 
ATOM     12  C   UNL     1     -10.668 -18.901   8.548  0.00  0.00    +0.000 C 
ATOM     13  C   UNL     1     -11.376 -18.747   4.193  0.00  0.00    +0.000 C 
ATOM     14  C   UNL     1     -11.355 -17.751  10.718  0.00  0.00    +0.000 C 
ATOM     15  C   UNL     1      -8.906 -16.568   4.772  0.00  0.00    +0.000 C 
ATOM     16  C   UNL     1     -10.988 -18.923  10.013  0.00  0.00    +0.000 C 
ATOM     17  C   UNL     1     -12.378 -15.534  10.213  0.00  0.00    +0.000 C 
ATOM     18  C   UNL     1      -9.856 -15.668  10.388  0.00  0.00    +0.000 C 
ATOM     19  C   UNL     1     -12.393 -17.810  11.523  0.00  0.00    +0.000 C 
ATOM     20  C   UNL     1     -13.485 -15.713  11.094  0.00  0.00    +0.000 A 
ATOM     21  C   UNL     1     -13.454 -16.906  11.764  0.00  0.00    +0.000 A 
ATOM     22  C   UNL     1     -14.644 -15.098  11.556  0.00  0.00    +0.000 A 
ENDROOT
BRANCH   9  23
ATOM     23  O   UNL     1     -10.820 -17.062   2.615  0.00  0.00    +0.000 OA
ATOM     24  H   UNL     1     -10.347 -16.212   2.636  0.00  0.00    +0.000 HD
ENDBRANCH   9  23
BRANCH   9  25
ATOM     25  C   UNL     1     -12.721 -16.715   4.010  0.00  0.00    +0.000 C 
ATOM     26  C   UNL     1     -13.830 -16.274   4.074  0.00  0.00    +0.000 C 
ENDBRANCH   9  25
TORSDOF 2
ENDMDL
MODEL 6
REMARK VINA RESULT:      -4.4     16.143     18.756
REMARK  Name = Danazol.pdbqt.pdb
REMARK  2 active torsions:
REMARK  status: ('A' for Active; 'I' for Inactive)
REMARK    1  A    between atoms: C_9  and  O_23
REMARK    2  A    between atoms: C_9  and  C_25
REMARK                            x       y       z     vdW  Elec       q    Type
REMARK                         _______ _______ _______ _____ _____    ______ ____
ROOT
ATOM      1  O   UNL     1       4.943   1.786  18.296  0.00  0.00    +0.000 OA
ATOM      2  N   UNL     1       3.756   2.412  18.733  0.00  0.00    +0.000 NA
ATOM      3  C   UNL     1       5.530  -4.999  21.698  0.00  0.00    +0.000 C 
ATOM      4  C   UNL     1       4.236  -5.539  22.505  0.00  0.00    +0.000 C 
ATOM      5  C   UNL     1       5.432  -4.052  20.571  0.00  0.00    +0.000 C 
ATOM      6  C   UNL     1       4.186  -3.347  20.108  0.00  0.00    +0.000 C 
ATOM      7  C   UNL     1       4.109  -2.470  18.836  0.00  0.00    +0.000 C 
ATOM      8  C   UNL     1       3.124  -4.693  22.047  0.00  0.00    +0.000 C 
ATOM      9  C   UNL     1       4.662  -5.379  24.072  0.00  0.00    +0.000 C 
ATOM     10  C   UNL     1       3.074  -3.683  20.928  0.00  0.00    +0.000 C 
ATOM     11  C   UNL     1       6.658  -5.005  22.567  0.00  0.00    +0.000 C 
ATOM     12  C   UNL     1       6.583  -3.619  19.874  0.00  0.00    +0.000 C 
ATOM     13  C   UNL     1       6.130  -5.255  23.949  0.00  0.00    +0.000 C 
ATOM     14  C   UNL     1       5.568  -1.888  18.300  0.00  0.00    +0.000 C 
ATOM     15  C   UNL     1       4.033  -7.027  22.039  0.00  0.00    +0.000 C 
ATOM     16  C   UNL     1       6.697  -2.590  18.789  0.00  0.00    +0.000 C 
ATOM     17  C   UNL     1       3.308  -1.225  19.115  0.00  0.00    +0.000 C 
ATOM     18  C   UNL     1       3.492  -3.299  17.674  0.00  0.00    +0.000 C 
ATOM     19  C   UNL     1       5.664  -0.585  18.152  0.00  0.00    +0.000 C 
ATOM     20  C   UNL     1       3.527   0.173  18.945  0.00  0.00    +0.000 A 
ATOM     21  C   UNL     1       4.762   0.467  18.434  0.00  0.00    +0.000 A 
ATOM     22  C   UNL     1       2.925   1.417  19.109  0.00  0.00    +0.000 A 
ENDROOT
BRANCH   9  23
ATOM     23  O   UNL     1       4.353  -6.510  24.901  0.00  0.00    +0.000 OA
ATOM     24  H   UNL     1       5.149  -7.068  24.946  0.00  0.00    +0.000 HD
ENDBRANCH   9  23
BRANCH   9  25
ATOM     25  C   UNL     1       4.069  -4.156  24.668  0.00  0.00    +0.000 C 
ATOM     26  C   UNL     1       3.601  -3.156  25.126  0.00  0.00    +0.000 C 
ENDBRANCH   9  25
TORSDOF 2
ENDMDL
MODEL 7
REMARK VINA RESULT:      -4.4     13.951     16.129
REMARK  Name = Danazol.pdbqt.pdb
REMARK  2 active torsions:
REMARK  status: ('A' for Active; 'I' for Inactive)
REMARK    1  A    between atoms: C_9  and  O_23
REMARK    2  A    between atoms: C_9  and  C_25
REMARK                            x       y       z     vdW  Elec       q    Type
REMARK                         _______ _______ _______ _____ _____    ______ ____
ROOT
ATOM      1  O   UNL     1     -28.336  -3.778  17.996  0.00  0.00    +0.000 OA
ATOM      2  N   UNL     1     -28.758  -5.009  18.539  0.00  0.00    +0.000 NA
ATOM      3  C   UNL     1     -20.770  -3.265  18.660  0.00  0.00    +0.000 C 
ATOM      4  C   UNL     1     -19.971  -4.600  19.102  0.00  0.00    +0.000 C 
ATOM      5  C   UNL     1     -22.069  -3.304  17.962  0.00  0.00    +0.000 C 
ATOM      6  C   UNL     1     -22.901  -4.531  17.699  0.00  0.00    +0.000 C 
ATOM      7  C   UNL     1     -24.189  -4.536  16.843  0.00  0.00    +0.000 C 
ATOM      8  C   UNL     1     -20.931  -5.697  18.907  0.00  0.00    +0.000 C 
ATOM      9  C   UNL     1     -19.533  -4.296  20.645  0.00  0.00    +0.000 C 
ATOM     10  C   UNL     1     -22.285  -5.691  18.244  0.00  0.00    +0.000 C 
ATOM     11  C   UNL     1     -20.436  -2.205  19.550  0.00  0.00    +0.000 C 
ATOM     12  C   UNL     1     -22.728  -2.116  17.570  0.00  0.00    +0.000 C 
ATOM     13  C   UNL     1     -19.689  -2.827  20.692  0.00  0.00    +0.000 C 
ATOM     14  C   UNL     1     -24.925  -3.057  16.680  0.00  0.00    +0.000 C 
ATOM     15  C   UNL     1     -18.765  -4.729  18.101  0.00  0.00    +0.000 C 
ATOM     16  C   UNL     1     -24.087  -1.950  16.959  0.00  0.00    +0.000 C 
ATOM     17  C   UNL     1     -25.242  -5.389  17.503  0.00  0.00    +0.000 C 
ATOM     18  C   UNL     1     -23.856  -5.043  15.411  0.00  0.00    +0.000 C 
ATOM     19  C   UNL     1     -26.189  -2.985  17.036  0.00  0.00    +0.000 C 
ATOM     20  C   UNL     1     -26.602  -5.194  17.883  0.00  0.00    +0.000 A 
ATOM     21  C   UNL     1     -27.062  -3.934  17.618  0.00  0.00    +0.000 A 
ATOM     22  C   UNL     1     -27.696  -5.839  18.451  0.00  0.00    +0.000 A 
ENDROOT
BRANCH   9  23
ATOM     23  O   UNL     1     -18.175  -4.635  20.965  0.00  0.00    +0.000 OA
ATOM     24  H   UNL     1     -17.767  -3.856  21.381  0.00  0.00    +0.000 HD
ENDBRANCH   9  23
BRANCH   9  25
ATOM     25  C   UNL     1     -20.447  -4.963  21.604  0.00  0.00    +0.000 C 
ATOM     26  C   UNL     1     -21.162  -5.512  22.390  0.00  0.00    +0.000 C 
ENDBRANCH   9  25
TORSDOF 2
ENDMDL
MODEL 8
REMARK VINA RESULT:      -4.2     12.073     14.363
REMARK  Name = Danazol.pdbqt.pdb
REMARK  2 active torsions:
REMARK  status: ('A' for Active; 'I' for Inactive)
REMARK    1  A    between atoms: C_9  and  O_23
REMARK    2  A    between atoms: C_9  and  C_25
REMARK                            x       y       z     vdW  Elec       q    Type
REMARK                         _______ _______ _______ _____ _____    ______ ____
ROOT
ATOM      1  O   UNL     1     -27.793  -6.212  21.575  0.00  0.00    +0.000 OA
ATOM      2  N   UNL     1     -28.290  -5.325  22.553  0.00  0.00    +0.000 NA
ATOM      3  C   UNL     1     -20.483  -4.555  20.246  0.00  0.00    +0.000 C 
ATOM      4  C   UNL     1     -19.760  -3.521  21.258  0.00  0.00    +0.000 C 
ATOM      5  C   UNL     1     -21.633  -5.390  20.643  0.00  0.00    +0.000 C 
ATOM      6  C   UNL     1     -22.385  -5.308  21.943  0.00  0.00    +0.000 C 
ATOM      7  C   UNL     1     -23.496  -6.299  22.365  0.00  0.00    +0.000 C 
ATOM      8  C   UNL     1     -20.653  -3.446  22.425  0.00  0.00    +0.000 C 
ATOM      9  C   UNL     1     -19.616  -2.154  20.378  0.00  0.00    +0.000 C 
ATOM     10  C   UNL     1     -21.864  -4.276  22.770  0.00  0.00    +0.000 C 
ATOM     11  C   UNL     1     -20.332  -4.084  18.911  0.00  0.00    +0.000 C 
ATOM     12  C   UNL     1     -22.224  -6.300  19.737  0.00  0.00    +0.000 C 
ATOM     13  C   UNL     1     -19.798  -2.685  19.011  0.00  0.00    +0.000 C 
ATOM     14  C   UNL     1     -24.209  -7.123  21.112  0.00  0.00    +0.000 C 
ATOM     15  C   UNL     1     -18.390  -4.188  21.646  0.00  0.00    +0.000 C 
ATOM     16  C   UNL     1     -23.451  -7.144  19.915  0.00  0.00    +0.000 C 
ATOM     17  C   UNL     1     -24.639  -5.552  22.999  0.00  0.00    +0.000 C 
ATOM     18  C   UNL     1     -22.900  -7.362  23.331  0.00  0.00    +0.000 C 
ATOM     19  C   UNL     1     -25.517  -7.032  21.017  0.00  0.00    +0.000 C 
ATOM     20  C   UNL     1     -26.048  -5.500  22.790  0.00  0.00    +0.000 A 
ATOM     21  C   UNL     1     -26.469  -6.290  21.755  0.00  0.00    +0.000 A 
ATOM     22  C   UNL     1     -27.219  -4.921  23.269  0.00  0.00    +0.000 A 
ENDROOT
BRANCH   9  23
ATOM     23  O   UNL     1     -18.335  -1.511  20.466  0.00  0.00    +0.000 OA
ATOM     24  H   UNL     1     -18.345  -0.941  21.254  0.00  0.00    +0.000 HD
ENDBRANCH   9  23
BRANCH   9  25
ATOM     25  C   UNL     1     -20.680  -1.179  20.720  0.00  0.00    +0.000 C 
ATOM     26  C   UNL     1     -21.524  -0.374  20.982  0.00  0.00    +0.000 C 
ENDBRANCH   9  25
TORSDOF 2
ENDMDL
MODEL 9
REMARK VINA RESULT:      -4.1      3.581      5.980
REMARK  Name = Danazol.pdbqt.pdb
REMARK  2 active torsions:
REMARK  status: ('A' for Active; 'I' for Inactive)
REMARK    1  A    between atoms: C_9  and  O_23
REMARK    2  A    between atoms: C_9  and  C_25
REMARK                            x       y       z     vdW  Elec       q    Type
REMARK                         _______ _______ _______ _____ _____    ______ ____
ROOT
ATOM      1  O   UNL     1     -17.809  -3.895  29.986  0.00  0.00    +0.000 OA
ATOM      2  N   UNL     1     -16.941  -3.022  30.674  0.00  0.00    +0.000 NA
ATOM      3  C   UNL     1     -13.828  -9.915  27.566  0.00  0.00    +0.000 C 
ATOM      4  C   UNL     1     -12.324 -10.087  28.133  0.00  0.00    +0.000 C 
ATOM      5  C   UNL     1     -14.885  -9.197  28.305  0.00  0.00    +0.000 C 
ATOM      6  C   UNL     1     -14.704  -8.410  29.574  0.00  0.00    +0.000 C 
ATOM      7  C   UNL     1     -15.868  -7.790  30.382  0.00  0.00    +0.000 C 
ATOM      8  C   UNL     1     -12.250  -9.182  29.291  0.00  0.00    +0.000 C 
ATOM      9  C   UNL     1     -11.382  -9.698  26.858  0.00  0.00    +0.000 C 
ATOM     10  C   UNL     1     -13.343  -8.409  29.985  0.00  0.00    +0.000 C 
ATOM     11  C   UNL     1     -13.795  -9.929  26.142  0.00  0.00    +0.000 C 
ATOM     12  C   UNL     1     -16.196  -9.087  27.787  0.00  0.00    +0.000 C 
ATOM     13  C   UNL     1     -12.351  -9.827  25.749  0.00  0.00    +0.000 C 
ATOM     14  C   UNL     1     -17.267  -7.552  29.520  0.00  0.00    +0.000 C 
ATOM     15  C   UNL     1     -12.206 -11.587  28.590  0.00  0.00    +0.000 C 
ATOM     16  C   UNL     1     -17.361  -8.314  28.329  0.00  0.00    +0.000 C 
ATOM     17  C   UNL     1     -15.494  -6.407  30.847  0.00  0.00    +0.000 C 
ATOM     18  C   UNL     1     -16.220  -8.721  31.577  0.00  0.00    +0.000 C 
ATOM     19  C   UNL     1     -17.756  -6.332  29.517  0.00  0.00    +0.000 C 
ATOM     20  C   UNL     1     -16.095  -5.118  30.757  0.00  0.00    +0.000 A 
ATOM     21  C   UNL     1     -17.275  -5.120  30.064  0.00  0.00    +0.000 A 
ATOM     22  C   UNL     1     -15.926  -3.788  31.130  0.00  0.00    +0.000 A 
ENDROOT
BRANCH   9  23
ATOM     23  O   UNL     1     -10.280 -10.589  26.626  0.00  0.00    +0.000 OA
ATOM     24  H   UNL     1     -10.578 -11.268  25.996  0.00  0.00    +0.000 HD
ENDBRANCH   9  23
BRANCH   9  25
ATOM     25  C   UNL     1     -10.875  -8.307  26.968  0.00  0.00    +0.000 C 
ATOM     26  C   UNL     1     -10.493  -7.179  27.054  0.00  0.00    +0.000 C 
ENDBRANCH   9  25
TORSDOF 2
ENDMDL
