MODEL 1
REMARK VINA RESULT:      -5.1      0.000      0.000
REMARK  Name = Decitabine.pdbqt.pdb
REMARK  4 active torsions:
REMARK  status: ('A' for Active; 'I' for Inactive)
REMARK    1  A    between atoms: N_2  and  C1*_8
REMARK    2  A    between atoms: C4*_10  and  C5*_13
REMARK    3  A    between atoms: C3*_11  and  O3*_16
REMARK    4  A    between atoms: C5*_13  and  O5*_14
REMARK                            x       y       z     vdW  Elec       q    Type
REMARK                         _______ _______ _______ _____ _____    ______ ____
ROOT
ATOM      1  O   UNL     1     -13.289  -7.409   1.703  0.00  0.00    +0.000 OA
ATOM      2  N   UNL     1     -12.612  -8.058   3.820  0.00  0.00    +0.000 N 
ATOM      3  N   UNL     1     -11.679  -9.021   1.897  0.00  0.00    +0.000 NA
ATOM      4  N   UNL     1     -10.985  -9.717   4.065  0.00  0.00    +0.000 NA
ATOM      5  C   UNL     1     -12.585  -8.103   2.430  0.00  0.00    +0.000 A 
ATOM      6  C   UNL     1     -11.766  -8.912   4.387  0.00  0.00    +0.000 A 
ATOM      7  C   UNL     1     -10.933  -9.754   2.683  0.00  0.00    +0.000 A 
ATOM      8  N   UNL     1     -10.063 -10.628   2.115  0.00  0.00    +0.000 N 
ATOM      9  H   UNL     1      -9.831 -11.424   2.696  0.00  0.00    +0.000 HD
ATOM     10  H   UNL     1     -10.291 -10.854   1.155  0.00  0.00    +0.000 HD
ENDROOT
BRANCH   2  11
ATOM     11  C1* UNL     1     -13.399  -7.255   4.585  0.00  0.00    +0.000 A 
ATOM     12  O4* UNL     1     -14.124  -7.747   5.676  0.00  0.00    +0.000 OA
ATOM     13  C4* UNL     1     -14.809  -6.659   6.232  0.00  0.00    +0.000 A 
ATOM     14  C3* UNL     1     -14.510  -5.473   5.471  0.00  0.00    +0.000 A 
ATOM     15  C2* UNL     1     -13.618  -5.869   4.459  0.00  0.00    +0.000 A 
BRANCH  14  16
ATOM     16  O3* UNL     1     -14.503  -4.241   6.061  0.00  0.00    +0.000 OA
ATOM     17  H3* UNL     1     -13.808  -3.676   5.682  0.00  0.00    +0.000 HD
ENDBRANCH  14  16
BRANCH  13  18
ATOM     18  C5* UNL     1     -15.508  -6.747   7.451  0.00  0.00    +0.000 C 
BRANCH  18  19
ATOM     19  O5* UNL     1     -16.172  -6.830   8.601  0.00  0.00    +0.000 OA
ATOM     20  H5* UNL     1     -15.961  -6.068   9.167  0.00  0.00    +0.000 HD
ENDBRANCH  18  19
ENDBRANCH  13  18
ENDBRANCH   2  11
TORSDOF 4
ENDMDL
MODEL 2
REMARK VINA RESULT:      -5.0     10.654     12.110
REMARK  Name = Decitabine.pdbqt.pdb
REMARK  4 active torsions:
REMARK  status: ('A' for Active; 'I' for Inactive)
REMARK    1  A    between atoms: N_2  and  C1*_8
REMARK    2  A    between atoms: C4*_10  and  C5*_13
REMARK    3  A    between atoms: C3*_11  and  O3*_16
REMARK    4  A    between atoms: C5*_13  and  O5*_14
REMARK                            x       y       z     vdW  Elec       q    Type
REMARK                         _______ _______ _______ _____ _____    ______ ____
ROOT
ATOM      1  O   UNL     1      -3.041  -2.215  -0.704  0.00  0.00    +0.000 OA
ATOM      2  N   UNL     1      -5.101  -3.236  -0.981  0.00  0.00    +0.000 N 
ATOM      3  N   UNL     1      -4.918  -1.116   0.002  0.00  0.00    +0.000 NA
ATOM      4  N   UNL     1      -7.043  -2.158  -0.254  0.00  0.00    +0.000 NA
ATOM      5  C   UNL     1      -4.262  -2.202  -0.578  0.00  0.00    +0.000 A 
ATOM      6  C   UNL     1      -6.384  -2.995  -0.729  0.00  0.00    +0.000 A 
ATOM      7  C   UNL     1      -6.220  -1.114   0.131  0.00  0.00    +0.000 A 
ATOM      8  N   UNL     1      -6.811  -0.031   0.696  0.00  0.00    +0.000 N 
ATOM      9  H   UNL     1      -7.699  -0.224   1.142  0.00  0.00    +0.000 HD
ATOM     10  H   UNL     1      -6.173   0.533   1.246  0.00  0.00    +0.000 HD
ENDROOT
BRANCH   2  11
ATOM     11  C1* UNL     1      -4.719  -4.399  -1.572  0.00  0.00    +0.000 A 
ATOM     12  O4* UNL     1      -3.991  -5.377  -0.885  0.00  0.00    +0.000 OA
ATOM     13  C4* UNL     1      -3.779  -6.431  -1.783  0.00  0.00    +0.000 A 
ATOM     14  C3* UNL     1      -4.380  -6.101  -3.050  0.00  0.00    +0.000 A 
ATOM     15  C2* UNL     1      -4.971  -4.836  -2.888  0.00  0.00    +0.000 A 
BRANCH  14  16
ATOM     16  O3* UNL     1      -4.866  -7.076  -3.874  0.00  0.00    +0.000 OA
ATOM     17  H3* UNL     1      -5.242  -7.811  -3.361  0.00  0.00    +0.000 HD
ENDBRANCH  14  16
BRANCH  13  18
ATOM     18  C5* UNL     1      -3.227  -7.664  -1.387  0.00  0.00    +0.000 C 
BRANCH  18  19
ATOM     19  O5* UNL     1      -2.700  -8.827  -1.013  0.00  0.00    +0.000 OA
ATOM     20  H5* UNL     1      -3.240  -9.231  -0.313  0.00  0.00    +0.000 HD
ENDBRANCH  18  19
ENDBRANCH  13  18
ENDBRANCH   2  11
TORSDOF 4
ENDMDL
MODEL 3
REMARK VINA RESULT:      -4.6     19.005     20.158
REMARK  Name = Decitabine.pdbqt.pdb
REMARK  4 active torsions:
REMARK  status: ('A' for Active; 'I' for Inactive)
REMARK    1  A    between atoms: N_2  and  C1*_8
REMARK    2  A    between atoms: C4*_10  and  C5*_13
REMARK    3  A    between atoms: C3*_11  and  O3*_16
REMARK    4  A    between atoms: C5*_13  and  O5*_14
REMARK                            x       y       z     vdW  Elec       q    Type
REMARK                         _______ _______ _______ _____ _____    ______ ____
ROOT
ATOM      1  O   UNL     1       5.534  -9.688  15.113  0.00  0.00    +0.000 OA
ATOM      2  N   UNL     1       4.289 -10.053  13.195  0.00  0.00    +0.000 N 
ATOM      3  N   UNL     1       3.924 -11.312  15.139  0.00  0.00    +0.000 NA
ATOM      4  N   UNL     1       2.648 -11.718  13.170  0.00  0.00    +0.000 NA
ATOM      5  C   UNL     1       4.650 -10.296  14.517  0.00  0.00    +0.000 A 
ATOM      6  C   UNL     1       3.313 -10.848  12.767  0.00  0.00    +0.000 A 
ATOM      7  C   UNL     1       2.984 -11.953  14.493  0.00  0.00    +0.000 A 
ATOM      8  N   UNL     1       2.303 -12.929  15.145  0.00  0.00    +0.000 N 
ATOM      9  H   UNL     1       1.914 -13.641  14.541  0.00  0.00    +0.000 HD
ATOM     10  H   UNL     1       2.789 -13.281  15.961  0.00  0.00    +0.000 HD
ENDROOT
BRANCH   2  11
ATOM     11  C1* UNL     1       4.835  -9.123  12.369  0.00  0.00    +0.000 A 
ATOM     12  O4* UNL     1       4.828  -9.270  10.977  0.00  0.00    +0.000 OA
ATOM     13  C4* UNL     1       5.460  -8.138  10.446  0.00  0.00    +0.000 A 
ATOM     14  C3* UNL     1       5.872  -7.276  11.525  0.00  0.00    +0.000 A 
ATOM     15  C2* UNL     1       5.459  -7.907  12.711  0.00  0.00    +0.000 A 
BRANCH  14  16
ATOM     16  O3* UNL     1       5.940  -5.923  11.358  0.00  0.00    +0.000 OA
ATOM     17  H3* UNL     1       5.223  -5.475  11.840  0.00  0.00    +0.000 HD
ENDBRANCH  14  16
BRANCH  13  18
ATOM     18  C5* UNL     1       5.483  -7.861   9.065  0.00  0.00    +0.000 C 
BRANCH  18  19
ATOM     19  O5* UNL     1       5.501  -7.602   7.761  0.00  0.00    +0.000 OA
ATOM     20  H5* UNL     1       4.860  -6.904   7.548  0.00  0.00    +0.000 HD
ENDBRANCH  18  19
ENDBRANCH  13  18
ENDBRANCH   2  11
TORSDOF 4
ENDMDL
MODEL 4
REMARK VINA RESULT:      -4.5     11.272     13.257
REMARK  Name = Decitabine.pdbqt.pdb
REMARK  4 active torsions:
REMARK  status: ('A' for Active; 'I' for Inactive)
REMARK    1  A    between atoms: N_2  and  C1*_8
REMARK    2  A    between atoms: C4*_10  and  C5*_13
REMARK    3  A    between atoms: C3*_11  and  O3*_16
REMARK    4  A    between atoms: C5*_13  and  O5*_14
REMARK                            x       y       z     vdW  Elec       q    Type
REMARK                         _______ _______ _______ _____ _____    ______ ____
ROOT
ATOM      1  O   UNL     1      -2.931  -5.123  -2.485  0.00  0.00    +0.000 OA
ATOM      2  N   UNL     1      -4.264  -3.351  -1.821  0.00  0.00    +0.000 N 
ATOM      3  N   UNL     1      -4.171  -5.335  -0.576  0.00  0.00    +0.000 NA
ATOM      4  N   UNL     1      -5.565  -3.532   0.113  0.00  0.00    +0.000 NA
ATOM      5  C   UNL     1      -3.728  -4.628  -1.694  0.00  0.00    +0.000 A 
ATOM      6  C   UNL     1      -5.114  -3.043  -0.845  0.00  0.00    +0.000 A 
ATOM      7  C   UNL     1      -5.021  -4.796   0.261  0.00  0.00    +0.000 A 
ATOM      8  N   UNL     1      -5.417  -5.523   1.336  0.00  0.00    +0.000 N 
ATOM      9  H   UNL     1      -6.327  -5.271   1.699  0.00  0.00    +0.000 HD
ATOM     10  H   UNL     1      -5.264  -6.518   1.226  0.00  0.00    +0.000 HD
ENDROOT
BRANCH   2  11
ATOM     11  C1* UNL     1      -3.999  -2.460  -2.812  0.00  0.00    +0.000 A 
ATOM     12  O4* UNL     1      -4.605  -2.546  -4.070  0.00  0.00    +0.000 OA
ATOM     13  C4* UNL     1      -4.113  -1.478  -4.832  0.00  0.00    +0.000 A 
ATOM     14  C3* UNL     1      -3.182  -0.719  -4.037  0.00  0.00    +0.000 A 
ATOM     15  C2* UNL     1      -3.139  -1.344  -2.778  0.00  0.00    +0.000 A 
BRANCH  14  16
ATOM     16  O3* UNL     1      -3.017   0.622  -4.234  0.00  0.00    +0.000 OA
ATOM     17  H3* UNL     1      -2.104   0.826  -4.504  0.00  0.00    +0.000 HD
ENDBRANCH  14  16
BRANCH  13  18
ATOM     18  C5* UNL     1      -4.633  -1.148  -6.099  0.00  0.00    +0.000 C 
BRANCH  18  19
ATOM     19  O5* UNL     1      -5.125  -0.831  -7.293  0.00  0.00    +0.000 OA
ATOM     20  H5* UNL     1      -4.404  -0.590  -7.900  0.00  0.00    +0.000 HD
ENDBRANCH  18  19
ENDBRANCH  13  18
ENDBRANCH   2  11
TORSDOF 4
ENDMDL
MODEL 5
REMARK VINA RESULT:      -4.4     19.788     20.777
REMARK  Name = Decitabine.pdbqt.pdb
REMARK  4 active torsions:
REMARK  status: ('A' for Active; 'I' for Inactive)
REMARK    1  A    between atoms: N_2  and  C1*_8
REMARK    2  A    between atoms: C4*_10  and  C5*_13
REMARK    3  A    between atoms: C3*_11  and  O3*_16
REMARK    4  A    between atoms: C5*_13  and  O5*_14
REMARK                            x       y       z     vdW  Elec       q    Type
REMARK                         _______ _______ _______ _____ _____    ______ ____
ROOT
ATOM      1  O   UNL     1       5.765  -7.222   7.837  0.00  0.00    +0.000 OA
ATOM      2  N   UNL     1       6.292  -6.377   9.927  0.00  0.00    +0.000 N 
ATOM      3  N   UNL     1       5.454  -8.552   9.672  0.00  0.00    +0.000 NA
ATOM      4  N   UNL     1       5.970  -7.693  11.831  0.00  0.00    +0.000 NA
ATOM      5  C   UNL     1       5.838  -7.361   9.054  0.00  0.00    +0.000 A 
ATOM      6  C   UNL     1       6.268  -6.758  11.201  0.00  0.00    +0.000 A 
ATOM      7  C   UNL     1       5.537  -8.687  10.970  0.00  0.00    +0.000 A 
ATOM      8  N   UNL     1       5.157  -9.867  11.522  0.00  0.00    +0.000 N 
ATOM      9  H   UNL     1       4.847  -9.799  12.482  0.00  0.00    +0.000 HD
ATOM     10  H   UNL     1       4.556 -10.416  10.919  0.00  0.00    +0.000 HD
ENDROOT
BRANCH   2  11
ATOM     11  C1* UNL     1       6.724  -5.134   9.586  0.00  0.00    +0.000 A 
ATOM     12  O4* UNL     1       6.011  -3.980   9.927  0.00  0.00    +0.000 OA
ATOM     13  C4* UNL     1       6.739  -2.891   9.431  0.00  0.00    +0.000 A 
ATOM     14  C3* UNL     1       7.921  -3.376   8.766  0.00  0.00    +0.000 A 
ATOM     15  C2* UNL     1       7.895  -4.776   8.888  0.00  0.00    +0.000 A 
BRANCH  14  16
ATOM     16  O3* UNL     1       9.064  -2.629   8.727  0.00  0.00    +0.000 OA
ATOM     17  H3* UNL     1       9.618  -2.799   9.509  0.00  0.00    +0.000 HD
ENDBRANCH  14  16
BRANCH  13  18
ATOM     18  C5* UNL     1       6.408  -1.556   9.736  0.00  0.00    +0.000 C 
BRANCH  18  19
ATOM     19  O5* UNL     1       6.091  -0.297  10.024  0.00  0.00    +0.000 OA
ATOM     20  H5* UNL     1       5.623   0.111   9.275  0.00  0.00    +0.000 HD
ENDBRANCH  18  19
ENDBRANCH  13  18
ENDBRANCH   2  11
TORSDOF 4
ENDMDL
MODEL 6
REMARK VINA RESULT:      -4.3     22.084     23.305
REMARK  Name = Decitabine.pdbqt.pdb
REMARK  4 active torsions:
REMARK  status: ('A' for Active; 'I' for Inactive)
REMARK    1  A    between atoms: N_2  and  C1*_8
REMARK    2  A    between atoms: C4*_10  and  C5*_13
REMARK    3  A    between atoms: C3*_11  and  O3*_16
REMARK    4  A    between atoms: C5*_13  and  O5*_14
REMARK                            x       y       z     vdW  Elec       q    Type
REMARK                         _______ _______ _______ _____ _____    ______ ____
ROOT
ATOM      1  O   UNL     1     -12.051  -6.745  28.840  0.00  0.00    +0.000 OA
ATOM      2  N   UNL     1     -11.236  -7.929  27.025  0.00  0.00    +0.000 N 
ATOM      3  N   UNL     1     -13.474  -8.123  27.697  0.00  0.00    +0.000 NA
ATOM      4  N   UNL     1     -12.650  -9.365  25.840  0.00  0.00    +0.000 NA
ATOM      5  C   UNL     1     -12.228  -7.536  27.919  0.00  0.00    +0.000 A 
ATOM      6  C   UNL     1     -11.666  -8.804  26.120  0.00  0.00    +0.000 A 
ATOM      7  C   UNL     1     -13.649  -8.965  26.711  0.00  0.00    +0.000 A 
ATOM      8  N   UNL     1     -14.882  -9.503  26.533  0.00  0.00    +0.000 N 
ATOM      9  H   UNL     1     -14.882 -10.404  26.072  0.00  0.00    +0.000 HD
ATOM     10  H   UNL     1     -15.467  -9.447  27.358  0.00  0.00    +0.000 HD
ENDROOT
BRANCH   2  11
ATOM     11  C1* UNL     1      -9.944  -7.508  27.019  0.00  0.00    +0.000 A 
ATOM     12  O4* UNL     1      -9.594  -6.186  26.724  0.00  0.00    +0.000 OA
ATOM     13  C4* UNL     1      -8.199  -6.104  26.816  0.00  0.00    +0.000 A 
ATOM     14  C3* UNL     1      -7.672  -7.398  27.169  0.00  0.00    +0.000 A 
ATOM     15  C2* UNL     1      -8.781  -8.251  27.303  0.00  0.00    +0.000 A 
BRANCH  14  16
ATOM     16  O3* UNL     1      -6.521  -7.515  27.894  0.00  0.00    +0.000 OA
ATOM     17  H3* UNL     1      -6.690  -7.943  28.752  0.00  0.00    +0.000 HD
ENDBRANCH  14  16
BRANCH  13  18
ATOM     18  C5* UNL     1      -7.505  -4.880  26.750  0.00  0.00    +0.000 C 
BRANCH  18  19
ATOM     19  O5* UNL     1      -6.847  -3.726  26.691  0.00  0.00    +0.000 OA
ATOM     20  H5* UNL     1      -6.151  -3.770  26.014  0.00  0.00    +0.000 HD
ENDBRANCH  18  19
ENDBRANCH  13  18
ENDBRANCH   2  11
TORSDOF 4
ENDMDL
MODEL 7
REMARK VINA RESULT:      -4.1      9.856     11.081
REMARK  Name = Decitabine.pdbqt.pdb
REMARK  4 active torsions:
REMARK  status: ('A' for Active; 'I' for Inactive)
REMARK    1  A    between atoms: N_2  and  C1*_8
REMARK    2  A    between atoms: C4*_10  and  C5*_13
REMARK    3  A    between atoms: C3*_11  and  O3*_16
REMARK    4  A    between atoms: C5*_13  and  O5*_14
REMARK                            x       y       z     vdW  Elec       q    Type
REMARK                         _______ _______ _______ _____ _____    ______ ____
ROOT
ATOM      1  O   UNL     1     -13.957 -15.952   9.259  0.00  0.00    +0.000 OA
ATOM      2  N   UNL     1     -12.044 -15.900  10.561  0.00  0.00    +0.000 N 
ATOM      3  N   UNL     1     -11.949 -15.542   8.246  0.00  0.00    +0.000 NA
ATOM      4  N   UNL     1      -9.967 -15.505   9.564  0.00  0.00    +0.000 NA
ATOM      5  C   UNL     1     -12.743 -15.809   9.361  0.00  0.00    +0.000 A 
ATOM      6  C   UNL     1     -10.734 -15.719  10.416  0.00  0.00    +0.000 A 
ATOM      7  C   UNL     1     -10.655 -15.391   8.368  0.00  0.00    +0.000 A 
ATOM      8  N   UNL     1      -9.928 -15.126   7.253  0.00  0.00    +0.000 N 
ATOM      9  H   UNL     1      -8.961 -15.421   7.305  0.00  0.00    +0.000 HD
ATOM     10  H   UNL     1     -10.404 -15.377   6.395  0.00  0.00    +0.000 HD
ENDROOT
BRANCH   2  11
ATOM     11  C1* UNL     1     -12.575 -16.149  11.786  0.00  0.00    +0.000 A 
ATOM     12  O4* UNL     1     -13.610 -15.372  12.320  0.00  0.00    +0.000 OA
ATOM     13  C4* UNL     1     -13.913 -15.908  13.578  0.00  0.00    +0.000 A 
ATOM     14  C3* UNL     1     -13.049 -17.033  13.834  0.00  0.00    +0.000 A 
ATOM     15  C2* UNL     1     -12.235 -17.170  12.696  0.00  0.00    +0.000 A 
BRANCH  14  16
ATOM     16  O3* UNL     1     -13.463 -18.075  14.612  0.00  0.00    +0.000 OA
ATOM     17  H3* UNL     1     -13.027 -18.057  15.482  0.00  0.00    +0.000 HD
ENDBRANCH  14  16
BRANCH  13  18
ATOM     18  C5* UNL     1     -15.023 -15.485  14.335  0.00  0.00    +0.000 C 
BRANCH  18  19
ATOM     19  O5* UNL     1     -16.073 -15.089  15.048  0.00  0.00    +0.000 OA
ATOM     20  H5* UNL     1     -15.835 -15.025  15.989  0.00  0.00    +0.000 HD
ENDBRANCH  18  19
ENDBRANCH  13  18
ENDBRANCH   2  11
TORSDOF 4
ENDMDL
MODEL 8
REMARK VINA RESULT:      -4.1      2.360      2.870
REMARK  Name = Decitabine.pdbqt.pdb
REMARK  4 active torsions:
REMARK  status: ('A' for Active; 'I' for Inactive)
REMARK    1  A    between atoms: N_2  and  C1*_8
REMARK    2  A    between atoms: C4*_10  and  C5*_13
REMARK    3  A    between atoms: C3*_11  and  O3*_16
REMARK    4  A    between atoms: C5*_13  and  O5*_14
REMARK                            x       y       z     vdW  Elec       q    Type
REMARK                         _______ _______ _______ _____ _____    ______ ____
ROOT
ATOM      1  O   UNL     1     -13.400  -7.485   0.928  0.00  0.00    +0.000 OA
ATOM      2  N   UNL     1     -11.994  -8.476   2.477  0.00  0.00    +0.000 N 
ATOM      3  N   UNL     1     -11.254  -7.974   0.310  0.00  0.00    +0.000 NA
ATOM      4  N   UNL     1      -9.798  -9.013   1.882  0.00  0.00    +0.000 NA
ATOM      5  C   UNL     1     -12.303  -7.945   1.229  0.00  0.00    +0.000 A 
ATOM      6  C   UNL     1     -10.744  -8.923   2.559  0.00  0.00    +0.000 A 
ATOM      7  C   UNL     1     -10.088  -8.466   0.643  0.00  0.00    +0.000 A 
ATOM      8  N   UNL     1      -9.098  -8.466  -0.285  0.00  0.00    +0.000 N 
ATOM      9  H   UNL     1      -8.400  -9.186  -0.152  0.00  0.00    +0.000 HD
ATOM     10  H   UNL     1      -9.439  -8.374  -1.235  0.00  0.00    +0.000 HD
ENDROOT
BRANCH   2  11
ATOM     11  C1* UNL     1     -12.830  -8.566   3.544  0.00  0.00    +0.000 A 
ATOM     12  O4* UNL     1     -14.162  -8.975   3.412  0.00  0.00    +0.000 OA
ATOM     13  C4* UNL     1     -14.721  -8.961   4.696  0.00  0.00    +0.000 A 
ATOM     14  C3* UNL     1     -13.723  -8.531   5.642  0.00  0.00    +0.000 A 
ATOM     15  C2* UNL     1     -12.550  -8.305   4.900  0.00  0.00    +0.000 A 
BRANCH  14  16
ATOM     16  O3* UNL     1     -13.741  -8.972   6.934  0.00  0.00    +0.000 OA
ATOM     17  H3* UNL     1     -12.838  -9.100   7.273  0.00  0.00    +0.000 HD
ENDBRANCH  14  16
BRANCH  13  18
ATOM     18  C5* UNL     1     -16.002  -9.478   4.971  0.00  0.00    +0.000 C 
BRANCH  18  19
ATOM     19  O5* UNL     1     -17.210  -9.968   5.235  0.00  0.00    +0.000 OA
ATOM     20  H5* UNL     1     -17.422 -10.690   4.620  0.00  0.00    +0.000 HD
ENDBRANCH  18  19
ENDBRANCH  13  18
ENDBRANCH   2  11
TORSDOF 4
ENDMDL
MODEL 9
REMARK VINA RESULT:      -4.0     20.303     21.532
REMARK  Name = Decitabine.pdbqt.pdb
REMARK  4 active torsions:
REMARK  status: ('A' for Active; 'I' for Inactive)
REMARK    1  A    between atoms: N_2  and  C1*_8
REMARK    2  A    between atoms: C4*_10  and  C5*_13
REMARK    3  A    between atoms: C3*_11  and  O3*_16
REMARK    4  A    between atoms: C5*_13  and  O5*_14
REMARK                            x       y       z     vdW  Elec       q    Type
REMARK                         _______ _______ _______ _____ _____    ______ ____
ROOT
ATOM      1  O   UNL     1       4.921  -7.186   8.373  0.00  0.00    +0.000 OA
ATOM      2  N   UNL     1       6.719  -7.110   9.829  0.00  0.00    +0.000 N 
ATOM      3  N   UNL     1       5.000  -8.681  10.101  0.00  0.00    +0.000 NA
ATOM      4  N   UNL     1       6.830  -8.605  11.623  0.00  0.00    +0.000 NA
ATOM      5  C   UNL     1       5.513  -7.618   9.357  0.00  0.00    +0.000 A 
ATOM      6  C   UNL     1       7.159  -7.735  10.917  0.00  0.00    +0.000 A 
ATOM      7  C   UNL     1       5.641  -9.132  11.149  0.00  0.00    +0.000 A 
ATOM      8  N   UNL     1       5.104 -10.172  11.836  0.00  0.00    +0.000 N 
ATOM      9  H   UNL     1       5.374 -10.214  12.810  0.00  0.00    +0.000 HD
ATOM     10  H   UNL     1       4.113 -10.297  11.664  0.00  0.00    +0.000 HD
ENDROOT
BRANCH   2  11
ATOM     11  C1* UNL     1       7.427  -6.083   9.290  0.00  0.00    +0.000 A 
ATOM     12  O4* UNL     1       8.562  -6.296   8.500  0.00  0.00    +0.000 OA
ATOM     13  C4* UNL     1       9.029  -5.035   8.111  0.00  0.00    +0.000 A 
ATOM     14  C3* UNL     1       8.175  -4.020   8.673  0.00  0.00    +0.000 A 
ATOM     15  C2* UNL     1       7.177  -4.700   9.392  0.00  0.00    +0.000 A 
BRANCH  14  16
ATOM     16  O3* UNL     1       7.985  -2.827   8.035  0.00  0.00    +0.000 OA
ATOM     17  H3* UNL     1       8.532  -2.769   7.233  0.00  0.00    +0.000 HD
ENDBRANCH  14  16
BRANCH  13  18
ATOM     18  C5* UNL     1      10.060  -4.866   7.166  0.00  0.00    +0.000 C 
BRANCH  18  19
ATOM     19  O5* UNL     1      11.033  -4.712   6.272  0.00  0.00    +0.000 OA
ATOM     20  H5* UNL     1      10.933  -3.861   5.810  0.00  0.00    +0.000 HD
ENDBRANCH  18  19
ENDBRANCH  13  18
ENDBRANCH   2  11
TORSDOF 4
ENDMDL
