MODEL 1
REMARK VINA RESULT:      -3.7      0.000      0.000
REMARK  Name = Deferoxamine.pdbqt.pdb
REMARK  19 active torsions:
REMARK  status: ('A' for Active; 'I' for Inactive)
REMARK    1  A    between atoms: C_1  and  C_2
REMARK    2  A    between atoms: C_3  and  C_4
REMARK    3  A    between atoms: C_4  and  N_5
REMARK    4  A    between atoms: C_6  and  C_9
REMARK    5  A    between atoms: C_10  and  C_11
REMARK    6  A    between atoms: N_13  and  O_14
REMARK    7  A    between atoms: N_13  and  C_16
REMARK    8  A    between atoms: C_17  and  C_18
REMARK    9  A    between atoms: C_19  and  C_20
REMARK   10  A    between atoms: C_20  and  N_21
REMARK   11  A    between atoms: C_24  and  N_25
REMARK   12  A    between atoms: N_25  and  O_28
REMARK   13  A    between atoms: C_26  and  C_30
REMARK   14  A    between atoms: C_31  and  C_32
REMARK   15  A    between atoms: N_34  and  C_36
REMARK   16  A    between atoms: C_37  and  C_38
REMARK   17  A    between atoms: C_38  and  C_39
REMARK   18  A    between atoms: C_40  and  N_41
REMARK   19  A    between atoms: N_41  and  O_45
REMARK                            x       y       z     vdW  Elec       q    Type
REMARK                         _______ _______ _______ _____ _____    ______ ____
ROOT
ATOM      1  C   UNL     1       3.077   1.953  20.732  0.00  0.00    +0.000 C 
ATOM      2  C   UNL     1       3.590   2.087  19.654  0.00  0.00    +0.000 C 
ENDROOT
BRANCH   2   3
ATOM      3  N   UNL     1       4.165   2.237  18.443  0.00  0.00    +0.000 N 
ATOM      4  C   UNL     1       5.159   1.503  17.819  0.00  0.00    +0.000 C 
ATOM      5  O   UNL     1       5.840   0.641  18.364  0.00  0.00    +0.000 OA
BRANCH   4   6
ATOM      6  C   UNL     1       5.437   1.803  16.430  0.00  0.00    +0.000 C 
ATOM      7  C   UNL     1       5.680   2.055  15.281  0.00  0.00    +0.000 C 
BRANCH   7   8
ATOM      8  C   UNL     1       5.987   2.376  13.908  0.00  0.00    +0.000 C 
ATOM      9  O   UNL     1       7.137   2.664  13.609  0.00  0.00    +0.000 OA
ATOM     10  N   UNL     1       4.918   2.323  13.042  0.00  0.00    +0.000 N 
ATOM     11  H   UNL     1       4.028   2.062  13.446  0.00  0.00    +0.000 HD
BRANCH  10  12
ATOM     12  C   UNL     1       4.887   2.567  11.713  0.00  0.00    +0.000 C 
ATOM     13  C   UNL     1       4.865   2.783  10.533  0.00  0.00    +0.000 C 
BRANCH  13  14
ATOM     14  C   UNL     1       4.846   3.055   9.026  0.00  0.00    +0.000 C 
BRANCH  14  15
ATOM     15  C   UNL     1       4.836   3.324   7.518  0.00  0.00    +0.000 C 
ATOM     16  C   UNL     1       4.830   3.536   6.337  0.00  0.00    +0.000 C 
BRANCH  16  17
ATOM     17  N   UNL     1       4.831   3.773   5.011  0.00  0.00    +0.000 N 
ATOM     18  C   UNL     1       5.097   4.916   4.295  0.00  0.00    +0.000 C 
ATOM     19  O   UNL     1       5.410   6.028   4.681  0.00  0.00    +0.000 OA
ATOM     20  C   UNL     1       5.013   4.878   2.789  0.00  0.00    +0.000 C 
BRANCH  17  21
ATOM     21  O   UNL     1       4.482   2.583   4.322  0.00  0.00    +0.000 OA
ATOM     22  H   UNL     1       3.518   2.508   4.481  0.00  0.00    +0.000 HD
ENDBRANCH  17  21
ENDBRANCH  16  17
ENDBRANCH  14  15
ENDBRANCH  13  14
ENDBRANCH  10  12
ENDBRANCH   7   8
ENDBRANCH   4   6
BRANCH   3  23
ATOM     23  O   UNL     1       3.335   3.037  17.626  0.00  0.00    +0.000 OA
ATOM     24  H   UNL     1       3.759   2.929  16.755  0.00  0.00    +0.000 HD
ENDBRANCH   3  23
ENDBRANCH   2   3
BRANCH   1  25
ATOM     25  C   UNL     1       2.428   1.766  22.107  0.00  0.00    +0.000 C 
ATOM     26  C   UNL     1       1.926   1.607  23.184  0.00  0.00    +0.000 C 
BRANCH  26  27
ATOM     27  C   UNL     1       1.290   1.392  24.562  0.00  0.00    +0.000 C 
BRANCH  27  28
ATOM     28  N   UNL     1       0.739   1.216  25.782  0.00  0.00    +0.000 N 
ATOM     29  C   UNL     1      -0.062   0.193  26.232  0.00  0.00    +0.000 C 
ATOM     30  O   UNL     1      -0.427  -0.771  25.574  0.00  0.00    +0.000 OA
ATOM     31  H   UNL     1       0.962   1.943  26.449  0.00  0.00    +0.000 HD
BRANCH  29  32
ATOM     32  C   UNL     1      -0.486   0.301  27.606  0.00  0.00    +0.000 C 
ATOM     33  C   UNL     1      -0.857   0.375  28.747  0.00  0.00    +0.000 C 
BRANCH  33  34
ATOM     34  C   UNL     1      -1.309   0.442  30.121  0.00  0.00    +0.000 C 
ATOM     35  O   UNL     1      -0.903   1.374  30.809  0.00  0.00    +0.000 OA
ATOM     36  N   UNL     1      -2.138  -0.572  30.570  0.00  0.00    +0.000 N 
BRANCH  36  37
ATOM     37  C   UNL     1      -2.820  -0.704  31.727  0.00  0.00    +0.000 C 
ATOM     38  C   UNL     1      -3.424  -0.820  32.757  0.00  0.00    +0.000 C 
BRANCH  38  39
ATOM     39  C   UNL     1      -4.189  -0.972  34.076  0.00  0.00    +0.000 C 
ATOM     40  C   UNL     1      -4.784  -1.090  35.111  0.00  0.00    +0.000 C 
BRANCH  40  41
ATOM     41  C   UNL     1      -5.540  -1.242  36.434  0.00  0.00    +0.000 C 
BRANCH  41  42
ATOM     42  N   UNL     1      -6.256  -1.385  37.690  0.00  0.00    +0.000 NA
ATOM     43  H   UNL     1      -5.806  -0.837  38.421  0.00  0.00    +0.000 HD
ATOM     44  H   UNL     1      -7.202  -1.017  37.604  0.00  0.00    +0.000 HD
ENDBRANCH  41  42
ENDBRANCH  40  41
ENDBRANCH  38  39
ENDBRANCH  36  37
BRANCH  36  45
ATOM     45  O   UNL     1      -2.679  -1.449  29.603  0.00  0.00    +0.000 OA
ATOM     46  H   UNL     1      -2.424  -1.003  28.774  0.00  0.00    +0.000 HD
ENDBRANCH  36  45
ENDBRANCH  33  34
ENDBRANCH  29  32
ENDBRANCH  27  28
ENDBRANCH  26  27
ENDBRANCH   1  25
TORSDOF 19
ENDMDL
MODEL 2
REMARK VINA RESULT:      -3.5     21.733     24.426
REMARK  Name = Deferoxamine.pdbqt.pdb
REMARK  19 active torsions:
REMARK  status: ('A' for Active; 'I' for Inactive)
REMARK    1  A    between atoms: C_1  and  C_2
REMARK    2  A    between atoms: C_3  and  C_4
REMARK    3  A    between atoms: C_4  and  N_5
REMARK    4  A    between atoms: C_6  and  C_9
REMARK    5  A    between atoms: C_10  and  C_11
REMARK    6  A    between atoms: N_13  and  O_14
REMARK    7  A    between atoms: N_13  and  C_16
REMARK    8  A    between atoms: C_17  and  C_18
REMARK    9  A    between atoms: C_19  and  C_20
REMARK   10  A    between atoms: C_20  and  N_21
REMARK   11  A    between atoms: C_24  and  N_25
REMARK   12  A    between atoms: N_25  and  O_28
REMARK   13  A    between atoms: C_26  and  C_30
REMARK   14  A    between atoms: C_31  and  C_32
REMARK   15  A    between atoms: N_34  and  C_36
REMARK   16  A    between atoms: C_37  and  C_38
REMARK   17  A    between atoms: C_38  and  C_39
REMARK   18  A    between atoms: C_40  and  N_41
REMARK   19  A    between atoms: N_41  and  O_45
REMARK                            x       y       z     vdW  Elec       q    Type
REMARK                         _______ _______ _______ _____ _____    ______ ____
ROOT
ATOM      1  C   UNL     1     -20.002  -3.533  21.925  0.00  0.00    +0.000 C 
ATOM      2  C   UNL     1     -19.479  -2.478  21.684  0.00  0.00    +0.000 C 
ENDROOT
BRANCH   2   3
ATOM      3  N   UNL     1     -18.892  -1.294  21.415  0.00  0.00    +0.000 N 
ATOM      4  C   UNL     1     -18.456  -0.290  22.262  0.00  0.00    +0.000 C 
ATOM      5  O   UNL     1     -18.695  -0.234  23.464  0.00  0.00    +0.000 OA
BRANCH   4   6
ATOM      6  C   UNL     1     -17.691   0.791  21.677  0.00  0.00    +0.000 C 
ATOM      7  C   UNL     1     -17.060   1.697  21.201  0.00  0.00    +0.000 C 
BRANCH   7   8
ATOM      8  C   UNL     1     -16.319   2.798  20.638  0.00  0.00    +0.000 C 
ATOM      9  O   UNL     1     -15.722   3.557  21.389  0.00  0.00    +0.000 OA
ATOM     10  N   UNL     1     -16.357   2.889  19.265  0.00  0.00    +0.000 N 
ATOM     11  H   UNL     1     -16.893   2.178  18.785  0.00  0.00    +0.000 HD
BRANCH  10  12
ATOM     12  C   UNL     1     -15.772   3.799  18.456  0.00  0.00    +0.000 C 
ATOM     13  C   UNL     1     -15.251   4.603  17.733  0.00  0.00    +0.000 C 
BRANCH  13  14
ATOM     14  C   UNL     1     -14.586   5.623  16.803  0.00  0.00    +0.000 C 
BRANCH  14  15
ATOM     15  C   UNL     1     -13.927   6.640  15.867  0.00  0.00    +0.000 C 
ATOM     16  C   UNL     1     -13.409   7.438  15.135  0.00  0.00    +0.000 C 
BRANCH  16  17
ATOM     17  N   UNL     1     -12.823   8.335  14.319  0.00  0.00    +0.000 N 
ATOM     18  C   UNL     1     -11.585   8.931  14.368  0.00  0.00    +0.000 C 
ATOM     19  O   UNL     1     -10.682   8.799  15.175  0.00  0.00    +0.000 OA
ATOM     20  C   UNL     1     -11.200   9.918  13.294  0.00  0.00    +0.000 C 
BRANCH  17  21
ATOM     21  O   UNL     1     -13.713   8.658  13.262  0.00  0.00    +0.000 OA
ATOM     22  H   UNL     1     -14.341   7.906  13.263  0.00  0.00    +0.000 HD
ENDBRANCH  17  21
ENDBRANCH  16  17
ENDBRANCH  14  15
ENDBRANCH  13  14
ENDBRANCH  10  12
ENDBRANCH   7   8
ENDBRANCH   4   6
BRANCH   3  23
ATOM     23  O   UNL     1     -18.355  -1.323  20.108  0.00  0.00    +0.000 OA
ATOM     24  H   UNL     1     -17.441  -1.614  20.281  0.00  0.00    +0.000 HD
ENDBRANCH   3  23
ENDBRANCH   2   3
BRANCH   1  25
ATOM     25  C   UNL     1     -20.678  -4.870  22.242  0.00  0.00    +0.000 C 
ATOM     26  C   UNL     1     -21.203  -5.922  22.479  0.00  0.00    +0.000 C 
BRANCH  26  27
ATOM     27  C   UNL     1     -21.868  -7.272  22.769  0.00  0.00    +0.000 C 
BRANCH  27  28
ATOM     28  N   UNL     1     -22.471  -8.454  23.020  0.00  0.00    +0.000 N 
ATOM     29  C   UNL     1     -23.069  -8.893  24.177  0.00  0.00    +0.000 C 
ATOM     30  O   UNL     1     -23.160  -8.260  25.219  0.00  0.00    +0.000 OA
ATOM     31  H   UNL     1     -22.481  -9.092  22.234  0.00  0.00    +0.000 HD
BRANCH  29  32
ATOM     32  C   UNL     1     -23.629 -10.221  24.116  0.00  0.00    +0.000 C 
ATOM     33  C   UNL     1     -24.091 -11.327  24.041  0.00  0.00    +0.000 C 
BRANCH  33  34
ATOM     34  C   UNL     1     -24.634 -12.666  23.934  0.00  0.00    +0.000 C 
ATOM     35  O   UNL     1     -25.855 -12.784  23.902  0.00  0.00    +0.000 OA
ATOM     36  N   UNL     1     -23.736 -13.719  23.912  0.00  0.00    +0.000 N 
BRANCH  36  37
ATOM     37  C   UNL     1     -23.928 -15.034  23.680  0.00  0.00    +0.000 C 
ATOM     38  C   UNL     1     -24.101 -16.204  23.475  0.00  0.00    +0.000 C 
BRANCH  38  39
ATOM     39  C   UNL     1     -24.326 -17.698  23.220  0.00  0.00    +0.000 C 
ATOM     40  C   UNL     1     -24.506 -18.868  23.023  0.00  0.00    +0.000 C 
BRANCH  40  41
ATOM     41  C   UNL     1     -24.739 -20.360  22.775  0.00  0.00    +0.000 C 
BRANCH  41  42
ATOM     42  N   UNL     1     -24.960 -21.778  22.539  0.00  0.00    +0.000 NA
ATOM     43  H   UNL     1     -24.383 -22.336  23.165  0.00  0.00    +0.000 HD
ATOM     44  H   UNL     1     -25.926 -22.027  22.748  0.00  0.00    +0.000 HD
ENDBRANCH  41  42
ENDBRANCH  40  41
ENDBRANCH  38  39
ENDBRANCH  36  37
BRANCH  36  45
ATOM     45  O   UNL     1     -22.368 -13.407  23.745  0.00  0.00    +0.000 OA
ATOM     46  H   UNL     1     -22.250 -13.559  22.789  0.00  0.00    +0.000 HD
ENDBRANCH  36  45
ENDBRANCH  33  34
ENDBRANCH  29  32
ENDBRANCH  27  28
ENDBRANCH  26  27
ENDBRANCH   1  25
TORSDOF 19
ENDMDL
MODEL 3
REMARK VINA RESULT:      -3.5      6.134     13.777
REMARK  Name = Deferoxamine.pdbqt.pdb
REMARK  19 active torsions:
REMARK  status: ('A' for Active; 'I' for Inactive)
REMARK    1  A    between atoms: C_1  and  C_2
REMARK    2  A    between atoms: C_3  and  C_4
REMARK    3  A    between atoms: C_4  and  N_5
REMARK    4  A    between atoms: C_6  and  C_9
REMARK    5  A    between atoms: C_10  and  C_11
REMARK    6  A    between atoms: N_13  and  O_14
REMARK    7  A    between atoms: N_13  and  C_16
REMARK    8  A    between atoms: C_17  and  C_18
REMARK    9  A    between atoms: C_19  and  C_20
REMARK   10  A    between atoms: C_20  and  N_21
REMARK   11  A    between atoms: C_24  and  N_25
REMARK   12  A    between atoms: N_25  and  O_28
REMARK   13  A    between atoms: C_26  and  C_30
REMARK   14  A    between atoms: C_31  and  C_32
REMARK   15  A    between atoms: N_34  and  C_36
REMARK   16  A    between atoms: C_37  and  C_38
REMARK   17  A    between atoms: C_38  and  C_39
REMARK   18  A    between atoms: C_40  and  N_41
REMARK   19  A    between atoms: N_41  and  O_45
REMARK                            x       y       z     vdW  Elec       q    Type
REMARK                         _______ _______ _______ _____ _____    ______ ____
ROOT
ATOM      1  C   UNL     1       4.950   3.425   7.559  0.00  0.00    +0.000 C 
ATOM      2  C   UNL     1       4.980   3.676   6.385  0.00  0.00    +0.000 C 
ENDROOT
BRANCH   2   3
ATOM      3  N   UNL     1       5.014   3.959   5.066  0.00  0.00    +0.000 N 
ATOM      4  C   UNL     1       6.032   3.817   4.139  0.00  0.00    +0.000 C 
ATOM      5  O   UNL     1       7.197   3.548   4.413  0.00  0.00    +0.000 OA
BRANCH   4   6
ATOM      6  C   UNL     1       5.701   4.037   2.746  0.00  0.00    +0.000 C 
ATOM      7  C   UNL     1       5.438   4.214   1.587  0.00  0.00    +0.000 C 
BRANCH   7   8
ATOM      8  C   UNL     1       5.146   4.428   0.191  0.00  0.00    +0.000 C 
ATOM      9  O   UNL     1       5.172   5.567  -0.252  0.00  0.00    +0.000 OA
ATOM     10  N   UNL     1       4.858   3.290  -0.528  0.00  0.00    +0.000 N 
ATOM     11  H   UNL     1       4.882   2.418  -0.015  0.00  0.00    +0.000 HD
BRANCH  10  12
ATOM     12  C   UNL     1       4.548   3.167  -1.837  0.00  0.00    +0.000 C 
ATOM     13  C   UNL     1       4.273   3.052  -3.000  0.00  0.00    +0.000 C 
BRANCH  13  14
ATOM     14  C   UNL     1       3.923   2.896  -4.483  0.00  0.00    +0.000 C 
BRANCH  14  15
ATOM     15  C   UNL     1       3.579   2.733  -5.966  0.00  0.00    +0.000 C 
ATOM     16  C   UNL     1       3.311   2.608  -7.130  0.00  0.00    +0.000 C 
BRANCH  16  17
ATOM     17  N   UNL     1       3.016   2.470  -8.437  0.00  0.00    +0.000 N 
ATOM     18  C   UNL     1       3.296   3.272  -9.518  0.00  0.00    +0.000 C 
ATOM     19  O   UNL     1       3.897   4.330  -9.575  0.00  0.00    +0.000 OA
ATOM     20  C   UNL     1       2.824   2.851 -10.888  0.00  0.00    +0.000 C 
BRANCH  17  21
ATOM     21  O   UNL     1       2.290   1.267  -8.629  0.00  0.00    +0.000 OA
ATOM     22  H   UNL     1       1.998   1.330  -9.562  0.00  0.00    +0.000 HD
ENDBRANCH  17  21
ENDBRANCH  16  17
ENDBRANCH  14  15
ENDBRANCH  13  14
ENDBRANCH  10  12
ENDBRANCH   7   8
ENDBRANCH   4   6
BRANCH   3  23
ATOM     23  O   UNL     1       3.693   4.059   4.574  0.00  0.00    +0.000 OA
ATOM     24  H   UNL     1       3.591   5.025   4.487  0.00  0.00    +0.000 HD
ENDBRANCH   3  23
ENDBRANCH   2   3
BRANCH   1  25
ATOM     25  C   UNL     1       4.903   3.119   9.059  0.00  0.00    +0.000 C 
ATOM     26  C   UNL     1       4.872   2.867  10.231  0.00  0.00    +0.000 C 
BRANCH  26  27
ATOM     27  C   UNL     1       4.837   2.532  11.726  0.00  0.00    +0.000 C 
BRANCH  27  28
ATOM     28  N   UNL     1       4.823   2.230  13.043  0.00  0.00    +0.000 N 
ATOM     29  C   UNL     1       5.880   2.091  13.910  0.00  0.00    +0.000 C 
ATOM     30  O   UNL     1       7.061   2.223  13.625  0.00  0.00    +0.000 OA
ATOM     31  H   UNL     1       3.897   2.096  13.430  0.00  0.00    +0.000 HD
BRANCH  29  32
ATOM     32  C   UNL     1       5.522   1.763  15.269  0.00  0.00    +0.000 C 
ATOM     33  C   UNL     1       5.202   1.496  16.395  0.00  0.00    +0.000 C 
BRANCH  33  34
ATOM     34  C   UNL     1       4.795   1.167  17.746  0.00  0.00    +0.000 C 
ATOM     35  O   UNL     1       5.367   0.235  18.302  0.00  0.00    +0.000 OA
ATOM     36  N   UNL     1       3.761   1.905  18.299  0.00  0.00    +0.000 N 
BRANCH  36  37
ATOM     37  C   UNL     1       3.271   1.928  19.555  0.00  0.00    +0.000 C 
ATOM     38  C   UNL     1       2.837   1.951  20.674  0.00  0.00    +0.000 C 
BRANCH  38  39
ATOM     39  C   UNL     1       2.289   1.979  22.104  0.00  0.00    +0.000 C 
ATOM     40  C   UNL     1       1.865   2.005  23.226  0.00  0.00    +0.000 C 
BRANCH  40  41
ATOM     41  C   UNL     1       1.326   2.041  24.659  0.00  0.00    +0.000 C 
BRANCH  41  42
ATOM     42  N   UNL     1       0.814   2.075  26.019  0.00  0.00    +0.000 NA
ATOM     43  H   UNL     1      -0.168   1.807  26.036  0.00  0.00    +0.000 HD
ATOM     44  H   UNL     1       1.302   1.394  26.600  0.00  0.00    +0.000 HD
ENDBRANCH  41  42
ENDBRANCH  40  41
ENDBRANCH  38  39
ENDBRANCH  36  37
BRANCH  36  45
ATOM     45  O   UNL     1       3.354   3.072  17.613  0.00  0.00    +0.000 OA
ATOM     46  H   UNL     1       3.988   3.728  17.955  0.00  0.00    +0.000 HD
ENDBRANCH  36  45
ENDBRANCH  33  34
ENDBRANCH  29  32
ENDBRANCH  27  28
ENDBRANCH  26  27
ENDBRANCH   1  25
TORSDOF 19
ENDMDL
MODEL 4
REMARK VINA RESULT:      -3.5     22.197     24.879
REMARK  Name = Deferoxamine.pdbqt.pdb
REMARK  19 active torsions:
REMARK  status: ('A' for Active; 'I' for Inactive)
REMARK    1  A    between atoms: C_1  and  C_2
REMARK    2  A    between atoms: C_3  and  C_4
REMARK    3  A    between atoms: C_4  and  N_5
REMARK    4  A    between atoms: C_6  and  C_9
REMARK    5  A    between atoms: C_10  and  C_11
REMARK    6  A    between atoms: N_13  and  O_14
REMARK    7  A    between atoms: N_13  and  C_16
REMARK    8  A    between atoms: C_17  and  C_18
REMARK    9  A    between atoms: C_19  and  C_20
REMARK   10  A    between atoms: C_20  and  N_21
REMARK   11  A    between atoms: C_24  and  N_25
REMARK   12  A    between atoms: N_25  and  O_28
REMARK   13  A    between atoms: C_26  and  C_30
REMARK   14  A    between atoms: C_31  and  C_32
REMARK   15  A    between atoms: N_34  and  C_36
REMARK   16  A    between atoms: C_37  and  C_38
REMARK   17  A    between atoms: C_38  and  C_39
REMARK   18  A    between atoms: C_40  and  N_41
REMARK   19  A    between atoms: N_41  and  O_45
REMARK                            x       y       z     vdW  Elec       q    Type
REMARK                         _______ _______ _______ _____ _____    ______ ____
ROOT
ATOM      1  C   UNL     1     -20.017  -3.525  21.924  0.00  0.00    +0.000 C 
ATOM      2  C   UNL     1     -19.493  -2.471  21.683  0.00  0.00    +0.000 C 
ENDROOT
BRANCH   2   3
ATOM      3  N   UNL     1     -18.906  -1.286  21.415  0.00  0.00    +0.000 N 
ATOM      4  C   UNL     1     -18.470  -0.283  22.263  0.00  0.00    +0.000 C 
ATOM      5  O   UNL     1     -18.710  -0.227  23.464  0.00  0.00    +0.000 OA
BRANCH   4   6
ATOM      6  C   UNL     1     -17.704   0.798  21.678  0.00  0.00    +0.000 C 
ATOM      7  C   UNL     1     -17.072   1.704  21.203  0.00  0.00    +0.000 C 
BRANCH   7   8
ATOM      8  C   UNL     1     -16.331   2.805  20.641  0.00  0.00    +0.000 C 
ATOM      9  O   UNL     1     -15.736   3.565  21.392  0.00  0.00    +0.000 OA
ATOM     10  N   UNL     1     -16.366   2.895  19.268  0.00  0.00    +0.000 N 
ATOM     11  H   UNL     1     -16.900   2.183  18.787  0.00  0.00    +0.000 HD
BRANCH  10  12
ATOM     12  C   UNL     1     -15.779   3.805  18.459  0.00  0.00    +0.000 C 
ATOM     13  C   UNL     1     -15.257   4.608  17.737  0.00  0.00    +0.000 C 
BRANCH  13  14
ATOM     14  C   UNL     1     -14.591   5.628  16.808  0.00  0.00    +0.000 C 
BRANCH  14  15
ATOM     15  C   UNL     1     -13.931   6.644  15.872  0.00  0.00    +0.000 C 
ATOM     16  C   UNL     1     -13.412   7.443  15.141  0.00  0.00    +0.000 C 
BRANCH  16  17
ATOM     17  N   UNL     1     -12.824   8.339  14.325  0.00  0.00    +0.000 N 
ATOM     18  C   UNL     1     -11.576   8.915  14.361  0.00  0.00    +0.000 C 
ATOM     19  O   UNL     1     -10.663   8.759  15.152  0.00  0.00    +0.000 OA
ATOM     20  C   UNL     1     -11.193   9.908  13.291  0.00  0.00    +0.000 C 
BRANCH  17  21
ATOM     21  O   UNL     1     -13.725   8.688  13.286  0.00  0.00    +0.000 OA
ATOM     22  H   UNL     1     -14.365   7.946  13.288  0.00  0.00    +0.000 HD
ENDBRANCH  17  21
ENDBRANCH  16  17
ENDBRANCH  14  15
ENDBRANCH  13  14
ENDBRANCH  10  12
ENDBRANCH   7   8
ENDBRANCH   4   6
BRANCH   3  23
ATOM     23  O   UNL     1     -18.368  -1.316  20.109  0.00  0.00    +0.000 OA
ATOM     24  H   UNL     1     -17.453  -1.607  20.282  0.00  0.00    +0.000 HD
ENDBRANCH   3  23
ENDBRANCH   2   3
BRANCH   1  25
ATOM     25  C   UNL     1     -20.693  -4.862  22.240  0.00  0.00    +0.000 C 
ATOM     26  C   UNL     1     -21.219  -5.914  22.475  0.00  0.00    +0.000 C 
BRANCH  26  27
ATOM     27  C   UNL     1     -21.886  -7.263  22.763  0.00  0.00    +0.000 C 
BRANCH  27  28
ATOM     28  N   UNL     1     -22.490  -8.445  23.015  0.00  0.00    +0.000 N 
ATOM     29  C   UNL     1     -22.993  -8.926  24.201  0.00  0.00    +0.000 C 
ATOM     30  O   UNL     1     -22.976  -8.341  25.274  0.00  0.00    +0.000 OA
ATOM     31  H   UNL     1     -22.585  -9.045  22.205  0.00  0.00    +0.000 HD
BRANCH  29  32
ATOM     32  C   UNL     1     -23.585 -10.239  24.131  0.00  0.00    +0.000 C 
ATOM     33  C   UNL     1     -24.086 -11.330  24.095  0.00  0.00    +0.000 C 
BRANCH  33  34
ATOM     34  C   UNL     1     -24.706 -12.639  24.067  0.00  0.00    +0.000 C 
ATOM     35  O   UNL     1     -23.985 -13.615  24.249  0.00  0.00    +0.000 OA
ATOM     36  N   UNL     1     -26.064 -12.696  23.798  0.00  0.00    +0.000 N 
BRANCH  36  37
ATOM     37  C   UNL     1     -26.927 -13.732  23.846  0.00  0.00    +0.000 C 
ATOM     38  C   UNL     1     -27.693 -14.655  23.890  0.00  0.00    +0.000 C 
BRANCH  38  39
ATOM     39  C   UNL     1     -28.665 -15.837  23.943  0.00  0.00    +0.000 C 
ATOM     40  C   UNL     1     -29.423 -16.767  23.986  0.00  0.00    +0.000 C 
BRANCH  40  41
ATOM     41  C   UNL     1     -30.386 -17.956  24.041  0.00  0.00    +0.000 C 
BRANCH  41  42
ATOM     42  N   UNL     1     -31.301 -19.084  24.092  0.00  0.00    +0.000 NA
ATOM     43  H   UNL     1     -31.527 -19.402  23.151  0.00  0.00    +0.000 HD
ATOM     44  H   UNL     1     -30.863 -19.876  24.560  0.00  0.00    +0.000 HD
ENDBRANCH  41  42
ENDBRANCH  40  41
ENDBRANCH  38  39
ENDBRANCH  36  37
BRANCH  36  45
ATOM     45  O   UNL     1     -26.785 -11.481  23.820  0.00  0.00    +0.000 OA
ATOM     46  H   UNL     1     -27.172 -11.502  24.714  0.00  0.00    +0.000 HD
ENDBRANCH  36  45
ENDBRANCH  33  34
ENDBRANCH  29  32
ENDBRANCH  27  28
ENDBRANCH  26  27
ENDBRANCH   1  25
TORSDOF 19
ENDMDL
MODEL 5
REMARK VINA RESULT:      -3.5      6.134     13.825
REMARK  Name = Deferoxamine.pdbqt.pdb
REMARK  19 active torsions:
REMARK  status: ('A' for Active; 'I' for Inactive)
REMARK    1  A    between atoms: C_1  and  C_2
REMARK    2  A    between atoms: C_3  and  C_4
REMARK    3  A    between atoms: C_4  and  N_5
REMARK    4  A    between atoms: C_6  and  C_9
REMARK    5  A    between atoms: C_10  and  C_11
REMARK    6  A    between atoms: N_13  and  O_14
REMARK    7  A    between atoms: N_13  and  C_16
REMARK    8  A    between atoms: C_17  and  C_18
REMARK    9  A    between atoms: C_19  and  C_20
REMARK   10  A    between atoms: C_20  and  N_21
REMARK   11  A    between atoms: C_24  and  N_25
REMARK   12  A    between atoms: N_25  and  O_28
REMARK   13  A    between atoms: C_26  and  C_30
REMARK   14  A    between atoms: C_31  and  C_32
REMARK   15  A    between atoms: N_34  and  C_36
REMARK   16  A    between atoms: C_37  and  C_38
REMARK   17  A    between atoms: C_38  and  C_39
REMARK   18  A    between atoms: C_40  and  N_41
REMARK   19  A    between atoms: N_41  and  O_45
REMARK                            x       y       z     vdW  Elec       q    Type
REMARK                         _______ _______ _______ _____ _____    ______ ____
ROOT
ATOM      1  C   UNL     1       4.947   3.430   7.501  0.00  0.00    +0.000 C 
ATOM      2  C   UNL     1       4.964   3.714   6.334  0.00  0.00    +0.000 C 
ENDROOT
BRANCH   2   3
ATOM      3  N   UNL     1       4.985   4.033   5.023  0.00  0.00    +0.000 N 
ATOM      4  C   UNL     1       5.996   3.925   4.084  0.00  0.00    +0.000 C 
ATOM      5  O   UNL     1       7.166   3.658   4.341  0.00  0.00    +0.000 OA
BRANCH   4   6
ATOM      6  C   UNL     1       5.652   4.182   2.701  0.00  0.00    +0.000 C 
ATOM      7  C   UNL     1       5.372   4.408   1.554  0.00  0.00    +0.000 C 
BRANCH   7   8
ATOM      8  C   UNL     1       5.032   4.701   0.184  0.00  0.00    +0.000 C 
ATOM      9  O   UNL     1       4.322   3.920  -0.431  0.00  0.00    +0.000 OA
ATOM     10  N   UNL     1       5.559   5.872  -0.312  0.00  0.00    +0.000 N 
ATOM     11  H   UNL     1       6.126   6.414   0.328  0.00  0.00    +0.000 HD
BRANCH  10  12
ATOM     12  C   UNL     1       5.423   6.412  -1.543  0.00  0.00    +0.000 C 
ATOM     13  C   UNL     1       5.296   6.890  -2.637  0.00  0.00    +0.000 C 
BRANCH  13  14
ATOM     14  C   UNL     1       5.126   7.497  -4.033  0.00  0.00    +0.000 C 
BRANCH  14  15
ATOM     15  C   UNL     1       4.951   8.110  -5.425  0.00  0.00    +0.000 C 
ATOM     16  C   UNL     1       4.815   8.589  -6.517  0.00  0.00    +0.000 C 
BRANCH  16  17
ATOM     17  N   UNL     1       4.664   9.120  -7.746  0.00  0.00    +0.000 N 
ATOM     18  C   UNL     1       3.919  10.189  -8.186  0.00  0.00    +0.000 C 
ATOM     19  O   UNL     1       3.194  10.947  -7.566  0.00  0.00    +0.000 OA
ATOM     20  C   UNL     1       3.945  10.552  -9.650  0.00  0.00    +0.000 C 
BRANCH  17  21
ATOM     21  O   UNL     1       5.440   8.381  -8.675  0.00  0.00    +0.000 OA
ATOM     22  H   UNL     1       4.835   7.660  -8.946  0.00  0.00    +0.000 HD
ENDBRANCH  17  21
ENDBRANCH  16  17
ENDBRANCH  14  15
ENDBRANCH  13  14
ENDBRANCH  10  12
ENDBRANCH   7   8
ENDBRANCH   4   6
BRANCH   3  23
ATOM     23  O   UNL     1       3.660   4.137   4.545  0.00  0.00    +0.000 OA
ATOM     24  H   UNL     1       3.539   5.104   4.516  0.00  0.00    +0.000 HD
ENDBRANCH   3  23
ENDBRANCH   2   3
BRANCH   1  25
ATOM     25  C   UNL     1       4.926   3.083   8.992  0.00  0.00    +0.000 C 
ATOM     26  C   UNL     1       4.895   2.811  10.160  0.00  0.00    +0.000 C 
BRANCH  26  27
ATOM     27  C   UNL     1       4.842   2.461  11.651  0.00  0.00    +0.000 C 
BRANCH  27  28
ATOM     28  N   UNL     1       4.796   2.171  12.969  0.00  0.00    +0.000 N 
ATOM     29  C   UNL     1       5.821   2.137  13.885  0.00  0.00    +0.000 C 
ATOM     30  O   UNL     1       6.998   2.373  13.651  0.00  0.00    +0.000 OA
ATOM     31  H   UNL     1       3.870   1.958  13.317  0.00  0.00    +0.000 HD
BRANCH  29  32
ATOM     32  C   UNL     1       5.433   1.790  15.231  0.00  0.00    +0.000 C 
ATOM     33  C   UNL     1       5.089   1.511  16.347  0.00  0.00    +0.000 C 
BRANCH  33  34
ATOM     34  C   UNL     1       4.652   1.171  17.686  0.00  0.00    +0.000 C 
ATOM     35  O   UNL     1       5.144   0.176  18.210  0.00  0.00    +0.000 OA
ATOM     36  N   UNL     1       3.682   1.973  18.263  0.00  0.00    +0.000 N 
BRANCH  36  37
ATOM     37  C   UNL     1       3.192   1.994  19.519  0.00  0.00    +0.000 C 
ATOM     38  C   UNL     1       2.755   2.016  20.637  0.00  0.00    +0.000 C 
BRANCH  38  39
ATOM     39  C   UNL     1       2.202   2.050  22.065  0.00  0.00    +0.000 C 
ATOM     40  C   UNL     1       1.765   2.080  23.182  0.00  0.00    +0.000 C 
BRANCH  40  41
ATOM     41  C   UNL     1       1.204   2.121  24.606  0.00  0.00    +0.000 C 
BRANCH  41  42
ATOM     42  N   UNL     1       0.672   2.160  25.959  0.00  0.00    +0.000 NA
ATOM     43  H   UNL     1       1.272   2.722  26.561  0.00  0.00    +0.000 HD
ATOM     44  H   UNL     1      -0.241   2.613  25.969  0.00  0.00    +0.000 HD
ENDBRANCH  41  42
ENDBRANCH  40  41
ENDBRANCH  38  39
ENDBRANCH  36  37
BRANCH  36  45
ATOM     45  O   UNL     1       3.375   3.192  17.618  0.00  0.00    +0.000 OA
ATOM     46  H   UNL     1       4.080   3.238  16.945  0.00  0.00    +0.000 HD
ENDBRANCH  36  45
ENDBRANCH  33  34
ENDBRANCH  29  32
ENDBRANCH  27  28
ENDBRANCH  26  27
ENDBRANCH   1  25
TORSDOF 19
ENDMDL
MODEL 6
REMARK VINA RESULT:      -3.5      7.212     13.834
REMARK  Name = Deferoxamine.pdbqt.pdb
REMARK  19 active torsions:
REMARK  status: ('A' for Active; 'I' for Inactive)
REMARK    1  A    between atoms: C_1  and  C_2
REMARK    2  A    between atoms: C_3  and  C_4
REMARK    3  A    between atoms: C_4  and  N_5
REMARK    4  A    between atoms: C_6  and  C_9
REMARK    5  A    between atoms: C_10  and  C_11
REMARK    6  A    between atoms: N_13  and  O_14
REMARK    7  A    between atoms: N_13  and  C_16
REMARK    8  A    between atoms: C_17  and  C_18
REMARK    9  A    between atoms: C_19  and  C_20
REMARK   10  A    between atoms: C_20  and  N_21
REMARK   11  A    between atoms: C_24  and  N_25
REMARK   12  A    between atoms: N_25  and  O_28
REMARK   13  A    between atoms: C_26  and  C_30
REMARK   14  A    between atoms: C_31  and  C_32
REMARK   15  A    between atoms: N_34  and  C_36
REMARK   16  A    between atoms: C_37  and  C_38
REMARK   17  A    between atoms: C_38  and  C_39
REMARK   18  A    between atoms: C_40  and  N_41
REMARK   19  A    between atoms: N_41  and  O_45
REMARK                            x       y       z     vdW  Elec       q    Type
REMARK                         _______ _______ _______ _____ _____    ______ ____
ROOT
ATOM      1  C   UNL     1       4.891   3.421   7.759  0.00  0.00    +0.000 C 
ATOM      2  C   UNL     1       4.933   3.706   6.593  0.00  0.00    +0.000 C 
ENDROOT
BRANCH   2   3
ATOM      3  N   UNL     1       4.980   4.028   5.284  0.00  0.00    +0.000 N 
ATOM      4  C   UNL     1       6.033   4.000   4.385  0.00  0.00    +0.000 C 
ATOM      5  O   UNL     1       7.208   3.825   4.688  0.00  0.00    +0.000 OA
BRANCH   4   6
ATOM      6  C   UNL     1       5.724   4.230   2.989  0.00  0.00    +0.000 C 
ATOM      7  C   UNL     1       5.480   4.415   1.827  0.00  0.00    +0.000 C 
BRANCH   7   8
ATOM      8  C   UNL     1       5.210   4.637   0.428  0.00  0.00    +0.000 C 
ATOM      9  O   UNL     1       5.322   5.767  -0.025  0.00  0.00    +0.000 OA
ATOM     10  N   UNL     1       4.841   3.518  -0.283  0.00  0.00    +0.000 N 
ATOM     11  H   UNL     1       4.799   2.651   0.238  0.00  0.00    +0.000 HD
BRANCH  10  12
ATOM     12  C   UNL     1       4.528   3.406  -1.592  0.00  0.00    +0.000 C 
ATOM     13  C   UNL     1       4.245   3.304  -2.754  0.00  0.00    +0.000 C 
BRANCH  13  14
ATOM     14  C   UNL     1       3.876   3.169  -4.235  0.00  0.00    +0.000 C 
BRANCH  14  15
ATOM     15  C   UNL     1       3.503   3.027  -5.713  0.00  0.00    +0.000 C 
ATOM     16  C   UNL     1       3.214   2.914  -6.873  0.00  0.00    +0.000 C 
BRANCH  16  17
ATOM     17  N   UNL     1       2.895   2.783  -8.175  0.00  0.00    +0.000 N 
ATOM     18  C   UNL     1       3.678   2.556  -9.282  0.00  0.00    +0.000 C 
ATOM     19  O   UNL     1       4.884   2.408  -9.372  0.00  0.00    +0.000 OA
ATOM     20  C   UNL     1       3.025   2.459 -10.638  0.00  0.00    +0.000 C 
BRANCH  17  21
ATOM     21  O   UNL     1       1.491   2.923  -8.329  0.00  0.00    +0.000 OA
ATOM     22  H   UNL     1       1.378   2.962  -9.302  0.00  0.00    +0.000 HD
ENDBRANCH  17  21
ENDBRANCH  16  17
ENDBRANCH  14  15
ENDBRANCH  13  14
ENDBRANCH  10  12
ENDBRANCH   7   8
ENDBRANCH   4   6
BRANCH   3  23
ATOM     23  O   UNL     1       3.670   4.028   4.753  0.00  0.00    +0.000 OA
ATOM     24  H   UNL     1       3.577   3.100   4.466  0.00  0.00    +0.000 HD
ENDBRANCH   3  23
ENDBRANCH   2   3
BRANCH   1  25
ATOM     25  C   UNL     1       4.831   3.071   9.249  0.00  0.00    +0.000 C 
ATOM     26  C   UNL     1       4.785   2.784  10.412  0.00  0.00    +0.000 C 
BRANCH  26  27
ATOM     27  C   UNL     1       4.727   2.403  11.895  0.00  0.00    +0.000 C 
BRANCH  27  28
ATOM     28  N   UNL     1       4.694   2.063  13.202  0.00  0.00    +0.000 N 
ATOM     29  C   UNL     1       5.677   2.187  14.155  0.00  0.00    +0.000 C 
ATOM     30  O   UNL     1       6.795   2.646  13.973  0.00  0.00    +0.000 OA
ATOM     31  H   UNL     1       3.813   1.668  13.508  0.00  0.00    +0.000 HD
BRANCH  29  32
ATOM     32  C   UNL     1       5.317   1.727  15.474  0.00  0.00    +0.000 C 
ATOM     33  C   UNL     1       5.036   1.356  16.582  0.00  0.00    +0.000 C 
BRANCH  33  34
ATOM     34  C   UNL     1       4.704   0.930  17.926  0.00  0.00    +0.000 C 
ATOM     35  O   UNL     1       4.138   1.737  18.656  0.00  0.00    +0.000 OA
ATOM     36  N   UNL     1       5.085  -0.348  18.302  0.00  0.00    +0.000 N 
BRANCH  36  37
ATOM     37  C   UNL     1       4.796  -1.061  19.410  0.00  0.00    +0.000 C 
ATOM     38  C   UNL     1       4.536  -1.697  20.394  0.00  0.00    +0.000 C 
BRANCH  38  39
ATOM     39  C   UNL     1       4.198  -2.506  21.650  0.00  0.00    +0.000 C 
ATOM     40  C   UNL     1       3.928  -3.138  22.634  0.00  0.00    +0.000 C 
BRANCH  40  41
ATOM     41  C   UNL     1       3.579  -3.943  23.888  0.00  0.00    +0.000 C 
BRANCH  41  42
ATOM     42  N   UNL     1       3.249  -4.708  25.080  0.00  0.00    +0.000 NA
ATOM     43  H   UNL     1       2.354  -4.404  25.461  0.00  0.00    +0.000 HD
ATOM     44  H   UNL     1       3.136  -5.694  24.849  0.00  0.00    +0.000 HD
ENDBRANCH  41  42
ENDBRANCH  40  41
ENDBRANCH  38  39
ENDBRANCH  36  37
BRANCH  36  45
ATOM     45  O   UNL     1       5.536  -1.219  17.285  0.00  0.00    +0.000 OA
ATOM     46  H   UNL     1       4.695  -1.478  16.864  0.00  0.00    +0.000 HD
ENDBRANCH  36  45
ENDBRANCH  33  34
ENDBRANCH  29  32
ENDBRANCH  27  28
ENDBRANCH  26  27
ENDBRANCH   1  25
TORSDOF 19
ENDMDL
MODEL 7
REMARK VINA RESULT:      -3.4     25.884     26.899
REMARK  Name = Deferoxamine.pdbqt.pdb
REMARK  19 active torsions:
REMARK  status: ('A' for Active; 'I' for Inactive)
REMARK    1  A    between atoms: C_1  and  C_2
REMARK    2  A    between atoms: C_3  and  C_4
REMARK    3  A    between atoms: C_4  and  N_5
REMARK    4  A    between atoms: C_6  and  C_9
REMARK    5  A    between atoms: C_10  and  C_11
REMARK    6  A    between atoms: N_13  and  O_14
REMARK    7  A    between atoms: N_13  and  C_16
REMARK    8  A    between atoms: C_17  and  C_18
REMARK    9  A    between atoms: C_19  and  C_20
REMARK   10  A    between atoms: C_20  and  N_21
REMARK   11  A    between atoms: C_24  and  N_25
REMARK   12  A    between atoms: N_25  and  O_28
REMARK   13  A    between atoms: C_26  and  C_30
REMARK   14  A    between atoms: C_31  and  C_32
REMARK   15  A    between atoms: N_34  and  C_36
REMARK   16  A    between atoms: C_37  and  C_38
REMARK   17  A    between atoms: C_38  and  C_39
REMARK   18  A    between atoms: C_40  and  N_41
REMARK   19  A    between atoms: N_41  and  O_45
REMARK                            x       y       z     vdW  Elec       q    Type
REMARK                         _______ _______ _______ _____ _____    ______ ____
ROOT
ATOM      1  C   UNL     1       3.367 -19.557   5.921  0.00  0.00    +0.000 C 
ATOM      2  C   UNL     1       4.521 -19.316   5.690  0.00  0.00    +0.000 C 
ENDROOT
BRANCH   2   3
ATOM      3  N   UNL     1       5.817 -19.044   5.431  0.00  0.00    +0.000 N 
ATOM      4  C   UNL     1       6.391 -18.149   4.545  0.00  0.00    +0.000 C 
ATOM      5  O   UNL     1       5.782 -17.533   3.677  0.00  0.00    +0.000 OA
BRANCH   4   6
ATOM      6  C   UNL     1       7.824 -17.954   4.630  0.00  0.00    +0.000 C 
ATOM      7  C   UNL     1       9.014 -17.798   4.688  0.00  0.00    +0.000 C 
BRANCH   7   8
ATOM      8  C   UNL     1      10.445 -17.631   4.745  0.00  0.00    +0.000 C 
ATOM      9  O   UNL     1      11.103 -17.797   3.728  0.00  0.00    +0.000 OA
ATOM     10  N   UNL     1      10.946 -17.289   5.981  0.00  0.00    +0.000 N 
ATOM     11  H   UNL     1      10.268 -17.183   6.725  0.00  0.00    +0.000 HD
BRANCH  10  12
ATOM     12  C   UNL     1      12.227 -17.066   6.348  0.00  0.00    +0.000 C 
ATOM     13  C   UNL     1      13.366 -16.872   6.671  0.00  0.00    +0.000 C 
BRANCH  13  14
ATOM     14  C   UNL     1      14.824 -16.632   7.077  0.00  0.00    +0.000 C 
BRANCH  14  15
ATOM     15  C   UNL     1      16.278 -16.385   7.487  0.00  0.00    +0.000 C 
ATOM     16  C   UNL     1      17.418 -16.188   7.809  0.00  0.00    +0.000 C 
BRANCH  16  17
ATOM     17  N   UNL     1      18.695 -15.961   8.173  0.00  0.00    +0.000 N 
ATOM     18  C   UNL     1      19.252 -15.680   9.398  0.00  0.00    +0.000 C 
ATOM     19  O   UNL     1      18.726 -15.566  10.491  0.00  0.00    +0.000 OA
ATOM     20  C   UNL     1      20.742 -15.466   9.498  0.00  0.00    +0.000 C 
BRANCH  17  21
ATOM     21  O   UNL     1      19.530 -16.043   7.029  0.00  0.00    +0.000 OA
ATOM     22  H   UNL     1      19.068 -16.696   6.463  0.00  0.00    +0.000 HD
ENDBRANCH  17  21
ENDBRANCH  16  17
ENDBRANCH  14  15
ENDBRANCH  13  14
ENDBRANCH  10  12
ENDBRANCH   7   8
ENDBRANCH   4   6
BRANCH   3  23
ATOM     23  O   UNL     1       6.615 -19.506   6.501  0.00  0.00    +0.000 OA
ATOM     24  H   UNL     1       6.459 -20.468   6.459  0.00  0.00    +0.000 HD
ENDBRANCH   3  23
ENDBRANCH   2   3
BRANCH   1  25
ATOM     25  C   UNL     1       1.892 -19.851   6.207  0.00  0.00    +0.000 C 
ATOM     26  C   UNL     1       0.735 -20.070   6.439  0.00  0.00    +0.000 C 
BRANCH  26  27
ATOM     27  C   UNL     1      -0.742 -20.338   6.743  0.00  0.00    +0.000 C 
BRANCH  27  28
ATOM     28  N   UNL     1      -2.049 -20.566   6.996  0.00  0.00    +0.000 N 
ATOM     29  C   UNL     1      -3.142 -20.316   6.200  0.00  0.00    +0.000 C 
ATOM     30  O   UNL     1      -3.114 -19.824   5.081  0.00  0.00    +0.000 OA
ATOM     31  H   UNL     1      -2.233 -20.986   7.899  0.00  0.00    +0.000 HD
BRANCH  29  32
ATOM     32  C   UNL     1      -4.416 -20.683   6.769  0.00  0.00    +0.000 C 
ATOM     33  C   UNL     1      -5.466 -20.991   7.265  0.00  0.00    +0.000 C 
BRANCH  33  34
ATOM     34  C   UNL     1      -6.725 -21.353   7.882  0.00  0.00    +0.000 C 
ATOM     35  O   UNL     1      -7.074 -22.528   7.817  0.00  0.00    +0.000 OA
ATOM     36  N   UNL     1      -7.463 -20.339   8.468  0.00  0.00    +0.000 N 
BRANCH  36  37
ATOM     37  C   UNL     1      -8.577 -20.388   9.228  0.00  0.00    +0.000 C 
ATOM     38  C   UNL     1      -9.568 -20.428   9.903  0.00  0.00    +0.000 C 
BRANCH  38  39
ATOM     39  C   UNL     1     -10.831 -20.473  10.769  0.00  0.00    +0.000 C 
ATOM     40  C   UNL     1     -11.818 -20.512  11.451  0.00  0.00    +0.000 C 
BRANCH  40  41
ATOM     41  C   UNL     1     -13.076 -20.565  12.322  0.00  0.00    +0.000 C 
BRANCH  41  42
ATOM     42  N   UNL     1     -14.269 -20.616  13.151  0.00  0.00    +0.000 NA
ATOM     43  H   UNL     1     -15.079 -20.879  12.591  0.00  0.00    +0.000 HD
ATOM     44  H   UNL     1     -14.175 -21.335  13.866  0.00  0.00    +0.000 HD
ENDBRANCH  41  42
ENDBRANCH  40  41
ENDBRANCH  38  39
ENDBRANCH  36  37
BRANCH  36  45
ATOM     45  O   UNL     1      -6.829 -19.088   8.643  0.00  0.00    +0.000 OA
ATOM     46  H   UNL     1      -6.836 -18.739   7.732  0.00  0.00    +0.000 HD
ENDBRANCH  36  45
ENDBRANCH  33  34
ENDBRANCH  29  32
ENDBRANCH  27  28
ENDBRANCH  26  27
ENDBRANCH   1  25
TORSDOF 19
ENDMDL
MODEL 8
REMARK VINA RESULT:      -3.4     25.868     26.802
REMARK  Name = Deferoxamine.pdbqt.pdb
REMARK  19 active torsions:
REMARK  status: ('A' for Active; 'I' for Inactive)
REMARK    1  A    between atoms: C_1  and  C_2
REMARK    2  A    between atoms: C_3  and  C_4
REMARK    3  A    between atoms: C_4  and  N_5
REMARK    4  A    between atoms: C_6  and  C_9
REMARK    5  A    between atoms: C_10  and  C_11
REMARK    6  A    between atoms: N_13  and  O_14
REMARK    7  A    between atoms: N_13  and  C_16
REMARK    8  A    between atoms: C_17  and  C_18
REMARK    9  A    between atoms: C_19  and  C_20
REMARK   10  A    between atoms: C_20  and  N_21
REMARK   11  A    between atoms: C_24  and  N_25
REMARK   12  A    between atoms: N_25  and  O_28
REMARK   13  A    between atoms: C_26  and  C_30
REMARK   14  A    between atoms: C_31  and  C_32
REMARK   15  A    between atoms: N_34  and  C_36
REMARK   16  A    between atoms: C_37  and  C_38
REMARK   17  A    between atoms: C_38  and  C_39
REMARK   18  A    between atoms: C_40  and  N_41
REMARK   19  A    between atoms: N_41  and  O_45
REMARK                            x       y       z     vdW  Elec       q    Type
REMARK                         _______ _______ _______ _____ _____    ______ ____
ROOT
ATOM      1  C   UNL     1       2.886 -19.811   4.358  0.00  0.00    +0.000 C 
ATOM      2  C   UNL     1       3.992 -19.626   3.928  0.00  0.00    +0.000 C 
ENDROOT
BRANCH   2   3
ATOM      3  N   UNL     1       5.234 -19.417   3.445  0.00  0.00    +0.000 N 
ATOM      4  C   UNL     1       5.658 -18.981   2.201  0.00  0.00    +0.000 C 
ATOM      5  O   UNL     1       4.936 -18.862   1.217  0.00  0.00    +0.000 OA
BRANCH   4   6
ATOM      6  C   UNL     1       7.065 -18.677   2.045  0.00  0.00    +0.000 C 
ATOM      7  C   UNL     1       8.233 -18.419   1.928  0.00  0.00    +0.000 C 
BRANCH   7   8
ATOM      8  C   UNL     1       9.631 -18.089   1.800  0.00  0.00    +0.000 C 
ATOM      9  O   UNL     1      10.370 -18.861   1.207  0.00  0.00    +0.000 OA
ATOM     10  N   UNL     1      10.007 -16.898   2.378  0.00  0.00    +0.000 N 
ATOM     11  H   UNL     1       9.272 -16.368   2.829  0.00  0.00    +0.000 HD
BRANCH  10  12
ATOM     12  C   UNL     1      11.229 -16.323   2.425  0.00  0.00    +0.000 C 
ATOM     13  C   UNL     1      12.316 -15.817   2.463  0.00  0.00    +0.000 C 
BRANCH  13  14
ATOM     14  C   UNL     1      13.706 -15.173   2.502  0.00  0.00    +0.000 C 
BRANCH  14  15
ATOM     15  C   UNL     1      15.099 -14.538   2.544  0.00  0.00    +0.000 C 
ATOM     16  C   UNL     1      16.191 -14.042   2.579  0.00  0.00    +0.000 C 
BRANCH  16  17
ATOM     17  N   UNL     1      17.419 -13.490   2.622  0.00  0.00    +0.000 N 
ATOM     18  C   UNL     1      18.055 -12.770   3.605  0.00  0.00    +0.000 C 
ATOM     19  O   UNL     1      17.667 -12.442   4.712  0.00  0.00    +0.000 OA
ATOM     20  C   UNL     1      19.457 -12.268   3.361  0.00  0.00    +0.000 C 
BRANCH  17  21
ATOM     21  O   UNL     1      18.091 -13.747   1.399  0.00  0.00    +0.000 OA
ATOM     22  H   UNL     1      17.720 -14.609   1.118  0.00  0.00    +0.000 HD
ENDBRANCH  17  21
ENDBRANCH  16  17
ENDBRANCH  14  15
ENDBRANCH  13  14
ENDBRANCH  10  12
ENDBRANCH   7   8
ENDBRANCH   4   6
BRANCH   3  23
ATOM     23  O   UNL     1       6.141 -19.296   4.522  0.00  0.00    +0.000 OA
ATOM     24  H   UNL     1       5.568 -18.924   5.217  0.00  0.00    +0.000 HD
ENDBRANCH   3  23
ENDBRANCH   2   3
BRANCH   1  25
ATOM     25  C   UNL     1       1.470 -20.036   4.894  0.00  0.00    +0.000 C 
ATOM     26  C   UNL     1       0.361 -20.201   5.321  0.00  0.00    +0.000 C 
BRANCH  26  27
ATOM     27  C   UNL     1      -1.055 -20.399   5.873  0.00  0.00    +0.000 C 
BRANCH  27  28
ATOM     28  N   UNL     1      -2.310 -20.561   6.346  0.00  0.00    +0.000 N 
ATOM     29  C   UNL     1      -3.465 -19.913   5.979  0.00  0.00    +0.000 C 
ATOM     30  O   UNL     1      -3.556 -19.041   5.127  0.00  0.00    +0.000 OA
ATOM     31  H   UNL     1      -2.395 -21.268   7.066  0.00  0.00    +0.000 HD
BRANCH  29  32
ATOM     32  C   UNL     1      -4.654 -20.326   6.684  0.00  0.00    +0.000 C 
ATOM     33  C   UNL     1      -5.630 -20.677   7.289  0.00  0.00    +0.000 C 
BRANCH  33  34
ATOM     34  C   UNL     1      -6.797 -21.095   8.039  0.00  0.00    +0.000 C 
ATOM     35  O   UNL     1      -6.958 -22.298   8.220  0.00  0.00    +0.000 OA
ATOM     36  N   UNL     1      -7.669 -20.107   8.466  0.00  0.00    +0.000 N 
BRANCH  36  37
ATOM     37  C   UNL     1      -8.737 -20.170   9.286  0.00  0.00    +0.000 C 
ATOM     38  C   UNL     1      -9.689 -20.224  10.016  0.00  0.00    +0.000 C 
BRANCH  38  39
ATOM     39  C   UNL     1     -10.902 -20.285  10.949  0.00  0.00    +0.000 C 
ATOM     40  C   UNL     1     -11.853 -20.328  11.680  0.00  0.00    +0.000 C 
BRANCH  40  41
ATOM     41  C   UNL     1     -13.067 -20.379  12.611  0.00  0.00    +0.000 C 
BRANCH  41  42
ATOM     42  N   UNL     1     -14.219 -20.427  13.496  0.00  0.00    +0.000 NA
ATOM     43  H   UNL     1     -13.935 -20.696  14.436  0.00  0.00    +0.000 HD
ATOM     44  H   UNL     1     -14.640 -19.503  13.583  0.00  0.00    +0.000 HD
ENDBRANCH  41  42
ENDBRANCH  40  41
ENDBRANCH  38  39
ENDBRANCH  36  37
BRANCH  36  45
ATOM     45  O   UNL     1      -7.235 -18.765   8.361  0.00  0.00    +0.000 OA
ATOM     46  H   UNL     1      -6.343 -18.879   7.985  0.00  0.00    +0.000 HD
ENDBRANCH  36  45
ENDBRANCH  33  34
ENDBRANCH  29  32
ENDBRANCH  27  28
ENDBRANCH  26  27
ENDBRANCH   1  25
TORSDOF 19
ENDMDL
MODEL 9
REMARK VINA RESULT:      -3.2     21.088     24.215
REMARK  Name = Deferoxamine.pdbqt.pdb
REMARK  19 active torsions:
REMARK  status: ('A' for Active; 'I' for Inactive)
REMARK    1  A    between atoms: C_1  and  C_2
REMARK    2  A    between atoms: C_3  and  C_4
REMARK    3  A    between atoms: C_4  and  N_5
REMARK    4  A    between atoms: C_6  and  C_9
REMARK    5  A    between atoms: C_10  and  C_11
REMARK    6  A    between atoms: N_13  and  O_14
REMARK    7  A    between atoms: N_13  and  C_16
REMARK    8  A    between atoms: C_17  and  C_18
REMARK    9  A    between atoms: C_19  and  C_20
REMARK   10  A    between atoms: C_20  and  N_21
REMARK   11  A    between atoms: C_24  and  N_25
REMARK   12  A    between atoms: N_25  and  O_28
REMARK   13  A    between atoms: C_26  and  C_30
REMARK   14  A    between atoms: C_31  and  C_32
REMARK   15  A    between atoms: N_34  and  C_36
REMARK   16  A    between atoms: C_37  and  C_38
REMARK   17  A    between atoms: C_38  and  C_39
REMARK   18  A    between atoms: C_40  and  N_41
REMARK   19  A    between atoms: N_41  and  O_45
REMARK                            x       y       z     vdW  Elec       q    Type
REMARK                         _______ _______ _______ _____ _____    ______ ____
ROOT
ATOM      1  C   UNL     1     -20.370  -3.467  21.629  0.00  0.00    +0.000 C 
ATOM      2  C   UNL     1     -19.936  -2.402  21.282  0.00  0.00    +0.000 C 
ENDROOT
BRANCH   2   3
ATOM      3  N   UNL     1     -19.448  -1.206  20.893  0.00  0.00    +0.000 N 
ATOM      4  C   UNL     1     -19.749   0.075  21.325  0.00  0.00    +0.000 C 
ATOM      5  O   UNL     1     -20.686   0.364  22.062  0.00  0.00    +0.000 OA
BRANCH   4   6
ATOM      6  C   UNL     1     -18.915   1.155  20.841  0.00  0.00    +0.000 C 
ATOM      7  C   UNL     1     -18.232   2.054  20.429  0.00  0.00    +0.000 C 
BRANCH   7   8
ATOM      8  C   UNL     1     -17.421   3.129  19.913  0.00  0.00    +0.000 C 
ATOM      9  O   UNL     1     -17.942   4.212  19.691  0.00  0.00    +0.000 OA
ATOM     10  N   UNL     1     -16.094   2.818  19.715  0.00  0.00    +0.000 N 
ATOM     11  H   UNL     1     -15.816   1.874  19.952  0.00  0.00    +0.000 HD
BRANCH  10  12
ATOM     12  C   UNL     1     -15.097   3.601  19.248  0.00  0.00    +0.000 C 
ATOM     13  C   UNL     1     -14.209   4.296  18.839  0.00  0.00    +0.000 C 
BRANCH  13  14
ATOM     14  C   UNL     1     -13.070   5.182  18.324  0.00  0.00    +0.000 C 
BRANCH  14  15
ATOM     15  C   UNL     1     -11.926   6.063  17.815  0.00  0.00    +0.000 C 
ATOM     16  C   UNL     1     -11.030   6.756  17.416  0.00  0.00    +0.000 C 
BRANCH  16  17
ATOM     17  N   UNL     1     -10.028   7.539  16.973  0.00  0.00    +0.000 N 
ATOM     18  C   UNL     1      -9.729   8.857  17.222  0.00  0.00    +0.000 C 
ATOM     19  O   UNL     1     -10.302   9.671  17.924  0.00  0.00    +0.000 OA
ATOM     20  C   UNL     1      -8.519   9.475  16.567  0.00  0.00    +0.000 C 
BRANCH  17  21
ATOM     21  O   UNL     1      -9.194   6.786  16.105  0.00  0.00    +0.000 OA
ATOM     22  H   UNL     1      -9.406   5.860  16.342  0.00  0.00    +0.000 HD
ENDBRANCH  17  21
ENDBRANCH  16  17
ENDBRANCH  14  15
ENDBRANCH  13  14
ENDBRANCH  10  12
ENDBRANCH   7   8
ENDBRANCH   4   6
BRANCH   3  23
ATOM     23  O   UNL     1     -18.218  -1.396  20.225  0.00  0.00    +0.000 OA
ATOM     24  H   UNL     1     -17.582  -1.295  20.957  0.00  0.00    +0.000 HD
ENDBRANCH   3  23
ENDBRANCH   2   3
BRANCH   1  25
ATOM     25  C   UNL     1     -20.938  -4.817  22.073  0.00  0.00    +0.000 C 
ATOM     26  C   UNL     1     -21.383  -5.880  22.409  0.00  0.00    +0.000 C 
BRANCH  26  27
ATOM     27  C   UNL     1     -21.951  -7.241  22.823  0.00  0.00    +0.000 C 
BRANCH  27  28
ATOM     28  N   UNL     1     -22.468  -8.435  23.188  0.00  0.00    +0.000 N 
ATOM     29  C   UNL     1     -22.966  -8.826  24.408  0.00  0.00    +0.000 C 
ATOM     30  O   UNL     1     -23.026  -8.131  25.413  0.00  0.00    +0.000 OA
ATOM     31  H   UNL     1     -22.492  -9.123  22.447  0.00  0.00    +0.000 HD
BRANCH  29  32
ATOM     32  C   UNL     1     -23.452 -10.183  24.468  0.00  0.00    +0.000 C 
ATOM     33  C   UNL     1     -23.840 -11.318  24.535  0.00  0.00    +0.000 C 
BRANCH  33  34
ATOM     34  C   UNL     1     -24.302 -12.687  24.637  0.00  0.00    +0.000 C 
ATOM     35  O   UNL     1     -24.838 -13.182  23.651  0.00  0.00    +0.000 OA
ATOM     36  N   UNL     1     -24.139 -13.326  25.855  0.00  0.00    +0.000 N 
BRANCH  36  37
ATOM     37  C   UNL     1     -24.334 -14.614  26.205  0.00  0.00    +0.000 C 
ATOM     38  C   UNL     1     -24.509 -15.761  26.514  0.00  0.00    +0.000 C 
BRANCH  38  39
ATOM     39  C   UNL     1     -24.740 -17.223  26.909  0.00  0.00    +0.000 C 
ATOM     40  C   UNL     1     -24.925 -18.368  27.215  0.00  0.00    +0.000 C 
BRANCH  40  41
ATOM     41  C   UNL     1     -25.166 -19.829  27.604  0.00  0.00    +0.000 C 
BRANCH  41  42
ATOM     42  N   UNL     1     -25.393 -21.216  27.974  0.00  0.00    +0.000 NA
ATOM     43  H   UNL     1     -25.604 -21.775  27.149  0.00  0.00    +0.000 HD
ATOM     44  H   UNL     1     -24.550 -21.620  28.379  0.00  0.00    +0.000 HD
ENDBRANCH  41  42
ENDBRANCH  40  41
ENDBRANCH  38  39
ENDBRANCH  36  37
BRANCH  36  45
ATOM     45  O   UNL     1     -23.320 -12.695  26.818  0.00  0.00    +0.000 OA
ATOM     46  H   UNL     1     -23.972 -12.158  27.304  0.00  0.00    +0.000 HD
ENDBRANCH  36  45
ENDBRANCH  33  34
ENDBRANCH  29  32
ENDBRANCH  27  28
ENDBRANCH  26  27
ENDBRANCH   1  25
TORSDOF 19
ENDMDL
