MODEL 1
REMARK VINA RESULT:      -5.3      0.000      0.000
REMARK  Name = 
REMARK  25 active torsions:
REMARK  status: ('A' for Active; 'I' for Inactive)
REMARK    1  A    between atoms: O_2  and  C_17
REMARK    2  A    between atoms: O_2  and  C_36
REMARK    3  A    between atoms: O_3  and  C_20
REMARK    4  A    between atoms: O_3  and  C_37
REMARK    5  A    between atoms: O_4  and  C_21
REMARK    6  A    between atoms: O_5  and  C_22
REMARK    7  A    between atoms: O_7  and  C_30
REMARK    8  A    between atoms: O_8  and  C_31
REMARK    9  A    between atoms: O_8  and  C_39
REMARK   10  A    between atoms: O_12  and  C_41
REMARK   11  A    between atoms: O_13  and  C_51
REMARK   12  A    between atoms: O_13  and  C_55
REMARK   13  A    between atoms: N_15  and  C_44
REMARK   14  A    between atoms: C_18  and  C_29
REMARK   15  A    between atoms: C_24  and  C_33
REMARK   16  A    between atoms: C_24  and  C_34
REMARK   17  A    between atoms: C_32  and  C_35
REMARK   18  A    between atoms: C_36  and  C_38
REMARK   19  A    between atoms: C_37  and  C_40
REMARK   20  A    between atoms: C_39  and  C_41
REMARK   21  A    between atoms: C_41  and  C_44
REMARK   22  A    between atoms: C_44  and  C_48
REMARK   23  A    between atoms: C_55  and  C_56
REMARK   24  A    between atoms: C_55  and  C_57
REMARK   25  A    between atoms: C_55  and  C_58
REMARK                            x       y       z     vdW  Elec       q    Type
REMARK                         _______ _______ _______ _____ _____    ______ ____
ROOT
ATOM      1  O   UNL     1     -21.503   4.637  11.761  0.00  0.00    +0.000 OA
ATOM      2  O   UNL     1     -18.878  10.266  14.324  0.00  0.00    +0.000 OA
ATOM      3  C   UNL     1     -18.776   5.970  13.386  0.00  0.00    +0.000 C 
ATOM      4  C   UNL     1     -20.022   5.045  13.254  0.00  0.00    +0.000 C 
ATOM      5  C   UNL     1     -19.394   7.644  14.033  0.00  0.00    +0.000 C 
ATOM      6  C   UNL     1     -20.727   5.826  12.071  0.00  0.00    +0.000 C 
ATOM      7  C   UNL     1     -17.324   5.086  14.151  0.00  0.00    +0.000 C 
ATOM      8  C   UNL     1     -15.538   5.380  14.711  0.00  0.00    +0.000 C 
ATOM      9  C   UNL     1     -20.389   8.139  12.903  0.00  0.00    +0.000 C 
ATOM     10  C   UNL     1     -21.458   7.097  12.449  0.00  0.00    +0.000 C 
ATOM     11  C   UNL     1     -14.683   6.922  14.922  0.00  0.00    +0.000 C 
ATOM     12  C   UNL     1     -20.326   3.872  12.239  0.00  0.00    +0.000 C 
ATOM     13  C   UNL     1     -18.371   9.142  14.532  0.00  0.00    +0.000 C 
ATOM     14  C   UNL     1     -15.464   4.812  16.202  0.00  0.00    +0.000 C 
ATOM     15  C   UNL     1     -15.495   7.920  15.873  0.00  0.00    +0.000 C 
ATOM     16  C   UNL     1     -20.332   7.491  15.302  0.00  0.00    +0.000 C 
ATOM     17  C   UNL     1     -16.629   9.191  15.335  0.00  0.00    +0.000 C 
ATOM     18  C   UNL     1     -15.632   5.847  17.406  0.00  0.00    +0.000 C 
ATOM     19  C   UNL     1     -15.666   7.393  17.132  0.00  0.00    +0.000 C 
ATOM     20  C   UNL     1     -13.295   6.593  15.668  0.00  0.00    +0.000 C 
ATOM     21  C   UNL     1     -14.014   7.600  13.685  0.00  0.00    +0.000 C 
ATOM     22  C   UNL     1     -16.171   8.215  18.292  0.00  0.00    +0.000 C 
ENDROOT
BRANCH  17  23
ATOM     23  O   UNL     1     -15.796  10.212  14.784  0.00  0.00    +0.000 OA
ATOM     24  H   UNL     1     -15.051   9.734  14.372  0.00  0.00    +0.000 HD
ENDBRANCH  17  23
BRANCH   9  25
ATOM     25  O   UNL     1     -19.629   8.483  11.744  0.00  0.00    +0.000 OA
ATOM     26  H   UNL     1     -18.761   8.050  11.833  0.00  0.00    +0.000 HD
ENDBRANCH   9  25
BRANCH   8  27
ATOM     27  O   UNL     1     -14.750   4.494  13.891  0.00  0.00    +0.000 OA
ATOM     28  H   UNL     1     -15.315   3.767  13.574  0.00  0.00    +0.000 HD
ENDBRANCH   8  27
BRANCH  18  29
ATOM     29  O   UNL     1     -16.869   5.516  18.102  0.00  0.00    +0.000 OA
BRANCH  29  31
ATOM     30  O   UNL     1     -17.434   5.365  20.283  0.00  0.00    +0.000 OA
ATOM     31  C   UNL     1     -16.771   4.959  19.335  0.00  0.00    +0.000 C 
BRANCH  31  32
ATOM     32  C   UNL     1     -15.664   3.910  19.490  0.00  0.00    +0.000 C 
BRANCH  32  33
ATOM     33  O   UNL     1     -16.091   2.546  19.392  0.00  0.00    +0.000 OA
ATOM     34  H   UNL     1     -17.014   2.574  19.078  0.00  0.00    +0.000 HD
ENDBRANCH  32  33
BRANCH  32  35
ATOM     35  C   UNL     1     -14.916   4.178  20.823  0.00  0.00    +0.000 C 
BRANCH  35  36
ATOM     36  C   UNL     1     -13.562   4.848  20.612  0.00  0.00    +0.000 A 
ATOM     37  C   UNL     1     -12.392   4.073  20.655  0.00  0.00    +0.000 A 
ATOM     38  C   UNL     1     -13.447   6.220  20.335  0.00  0.00    +0.000 A 
ATOM     39  C   UNL     1     -11.140   4.659  20.455  0.00  0.00    +0.000 A 
ATOM     40  C   UNL     1     -12.194   6.803  20.136  0.00  0.00    +0.000 A 
ATOM     41  C   UNL     1     -11.041   6.023  20.198  0.00  0.00    +0.000 A 
ENDBRANCH  35  36
BRANCH  35  43
ATOM     42  O   UNL     1     -16.804   2.817  22.508  0.00  0.00    +0.000 OA
ATOM     43  N   UNL     1     -14.719   2.950  21.580  0.00  0.00    +0.000 N 
ATOM     44  C   UNL     1     -15.645   2.444  22.433  0.00  0.00    +0.000 C 
ATOM     45  H   UNL     1     -13.769   2.628  21.710  0.00  0.00    +0.000 HD
BRANCH  44  46
ATOM     46  O   UNL     1     -15.074   1.454  23.153  0.00  0.00    +0.000 OA
BRANCH  46  47
ATOM     47  C   UNL     1     -14.964   1.555  24.596  0.00  0.00    +0.000 C 
ATOM     48  C   UNL     1     -16.307   1.277  25.280  0.00  0.00    +0.000 C 
ATOM     49  C   UNL     1     -13.974   0.449  24.989  0.00  0.00    +0.000 C 
ATOM     50  C   UNL     1     -14.379   2.909  25.014  0.00  0.00    +0.000 C 
ENDBRANCH  46  47
ENDBRANCH  44  46
ENDBRANCH  35  43
ENDBRANCH  32  35
ENDBRANCH  31  32
ENDBRANCH  29  31
ENDBRANCH  18  29
BRANCH   7  51
ATOM     51  O   UNL     1     -17.741   5.578  15.299  0.00  0.00    +0.000 OA
BRANCH  51  53
ATOM     52  O   UNL     1     -17.766   3.641  14.772  0.00  0.00    +0.000 OA
ATOM     53  C   UNL     1     -18.139   4.331  15.715  0.00  0.00    +0.000 C 
BRANCH  53  54
ATOM     54  C   UNL     1     -19.261   4.014  17.235  0.00  0.00    +0.000 A 
ATOM     55  C   UNL     1     -20.186   4.984  17.822  0.00  0.00    +0.000 A 
ATOM     56  C   UNL     1     -19.463   2.778  17.924  0.00  0.00    +0.000 A 
ATOM     57  C   UNL     1     -21.111   4.762  18.875  0.00  0.00    +0.000 A 
ATOM     58  C   UNL     1     -20.386   2.536  18.983  0.00  0.00    +0.000 A 
ATOM     59  C   UNL     1     -21.211   3.525  19.460  0.00  0.00    +0.000 A 
ENDBRANCH  53  54
ENDBRANCH  51  53
ENDBRANCH   7  51
BRANCH   4  60
ATOM     60  O   UNL     1     -20.797   4.986  14.474  0.00  0.00    +0.000 OA
BRANCH  60  62
ATOM     61  O   UNL     1     -21.469   2.874  14.777  0.00  0.00    +0.000 OA
ATOM     62  C   UNL     1     -21.759   4.067  14.720  0.00  0.00    +0.000 C 
ATOM     63  C   UNL     1     -23.185   4.512  14.804  0.00  0.00    +0.000 C 
ENDBRANCH  60  62
ENDBRANCH   4  60
TORSDOF 17
ENDMDL
MODEL 2
REMARK VINA RESULT:      -5.3     11.324     17.899
REMARK  Name = 
REMARK  25 active torsions:
REMARK  status: ('A' for Active; 'I' for Inactive)
REMARK    1  A    between atoms: O_2  and  C_17
REMARK    2  A    between atoms: O_2  and  C_36
REMARK    3  A    between atoms: O_3  and  C_20
REMARK    4  A    between atoms: O_3  and  C_37
REMARK    5  A    between atoms: O_4  and  C_21
REMARK    6  A    between atoms: O_5  and  C_22
REMARK    7  A    between atoms: O_7  and  C_30
REMARK    8  A    between atoms: O_8  and  C_31
REMARK    9  A    between atoms: O_8  and  C_39
REMARK   10  A    between atoms: O_12  and  C_41
REMARK   11  A    between atoms: O_13  and  C_51
REMARK   12  A    between atoms: O_13  and  C_55
REMARK   13  A    between atoms: N_15  and  C_44
REMARK   14  A    between atoms: C_18  and  C_29
REMARK   15  A    between atoms: C_24  and  C_33
REMARK   16  A    between atoms: C_24  and  C_34
REMARK   17  A    between atoms: C_32  and  C_35
REMARK   18  A    between atoms: C_36  and  C_38
REMARK   19  A    between atoms: C_37  and  C_40
REMARK   20  A    between atoms: C_39  and  C_41
REMARK   21  A    between atoms: C_41  and  C_44
REMARK   22  A    between atoms: C_44  and  C_48
REMARK   23  A    between atoms: C_55  and  C_56
REMARK   24  A    between atoms: C_55  and  C_57
REMARK   25  A    between atoms: C_55  and  C_58
REMARK                            x       y       z     vdW  Elec       q    Type
REMARK                         _______ _______ _______ _____ _____    ______ ____
ROOT
ATOM      1  O   UNL     1     -13.836 -10.660  30.856  0.00  0.00    +0.000 OA
ATOM      2  O   UNL     1     -10.245  -9.092  25.397  0.00  0.00    +0.000 OA
ATOM      3  C   UNL     1     -11.222  -8.757  29.673  0.00  0.00    +0.000 C 
ATOM      4  C   UNL     1     -12.631  -8.979  30.297  0.00  0.00    +0.000 C 
ATOM      5  C   UNL     1     -11.438  -8.792  27.788  0.00  0.00    +0.000 C 
ATOM      6  C   UNL     1     -12.825 -10.479  29.828  0.00  0.00    +0.000 C 
ATOM      7  C   UNL     1     -10.276  -7.403  30.538  0.00  0.00    +0.000 C 
ATOM      8  C   UNL     1      -8.633  -6.464  30.464  0.00  0.00    +0.000 C 
ATOM      9  C   UNL     1     -11.998 -10.247  27.500  0.00  0.00    +0.000 C 
ATOM     10  C   UNL     1     -13.211 -10.683  28.378  0.00  0.00    +0.000 C 
ATOM     11  C   UNL     1      -7.424  -6.448  29.163  0.00  0.00    +0.000 C 
ATOM     12  C   UNL     1     -13.055  -9.680  31.649  0.00  0.00    +0.000 C 
ATOM     13  C   UNL     1     -10.142  -8.452  26.466  0.00  0.00    +0.000 C 
ATOM     14  C   UNL     1      -9.029  -4.916  30.498  0.00  0.00    +0.000 C 
ATOM     15  C   UNL     1      -8.081  -6.074  27.753  0.00  0.00    +0.000 C 
ATOM     16  C   UNL     1     -12.615  -7.847  27.298  0.00  0.00    +0.000 C 
ATOM     17  C   UNL     1      -8.661  -7.234  26.526  0.00  0.00    +0.000 C 
ATOM     18  C   UNL     1      -9.123  -4.138  29.107  0.00  0.00    +0.000 C 
ATOM     19  C   UNL     1      -8.648  -4.821  27.775  0.00  0.00    +0.000 C 
ATOM     20  C   UNL     1      -6.372  -5.280  29.512  0.00  0.00    +0.000 C 
ATOM     21  C   UNL     1      -6.352  -7.582  29.103  0.00  0.00    +0.000 C 
ATOM     22  C   UNL     1      -9.110  -4.119  26.522  0.00  0.00    +0.000 C 
ENDROOT
BRANCH  17  23
ATOM     23  O   UNL     1      -7.473  -7.784  25.955  0.00  0.00    +0.000 OA
ATOM     24  H   UNL     1      -6.866  -7.910  26.709  0.00  0.00    +0.000 HD
ENDBRANCH  17  23
BRANCH   9  25
ATOM     25  O   UNL     1     -10.954 -11.193  27.739  0.00  0.00    +0.000 OA
ATOM     26  H   UNL     1     -10.111 -10.708  27.677  0.00  0.00    +0.000 HD
ENDBRANCH   9  25
BRANCH   8  27
ATOM     27  O   UNL     1      -7.992  -6.755  31.721  0.00  0.00    +0.000 OA
ATOM     28  H   UNL     1      -8.450  -6.272  32.432  0.00  0.00    +0.000 HD
ENDBRANCH   8  27
BRANCH  18  29
ATOM     29  O   UNL     1     -10.516  -3.757  28.909  0.00  0.00    +0.000 OA
BRANCH  29  31
ATOM     30  O   UNL     1     -11.930  -2.027  28.580  0.00  0.00    +0.000 OA
ATOM     31  C   UNL     1     -10.810  -2.434  28.871  0.00  0.00    +0.000 C 
BRANCH  31  32
ATOM     32  C   UNL     1      -9.612  -1.494  29.053  0.00  0.00    +0.000 C 
BRANCH  32  33
ATOM     33  O   UNL     1      -9.699  -0.593  30.162  0.00  0.00    +0.000 OA
ATOM     34  H   UNL     1      -9.042  -0.903  30.813  0.00  0.00    +0.000 HD
ENDBRANCH  32  33
BRANCH  32  35
ATOM     35  C   UNL     1      -9.377  -0.735  27.720  0.00  0.00    +0.000 C 
BRANCH  35  36
ATOM     36  C   UNL     1      -7.968  -0.163  27.610  0.00  0.00    +0.000 A 
ATOM     37  C   UNL     1      -6.886  -1.025  27.371  0.00  0.00    +0.000 A 
ATOM     38  C   UNL     1      -7.717   1.217  27.703  0.00  0.00    +0.000 A 
ATOM     39  C   UNL     1      -5.587  -0.527  27.255  0.00  0.00    +0.000 A 
ATOM     40  C   UNL     1      -6.417   1.712  27.588  0.00  0.00    +0.000 A 
ATOM     41  C   UNL     1      -5.352   0.841  27.367  0.00  0.00    +0.000 A 
ENDBRANCH  35  36
BRANCH  35  43
ATOM     42  O   UNL     1     -11.229  -0.342  25.557  0.00  0.00    +0.000 OA
ATOM     43  N   UNL     1     -10.337   0.347  27.546  0.00  0.00    +0.000 N 
ATOM     44  C   UNL     1     -11.096   0.497  26.431  0.00  0.00    +0.000 C 
ATOM     45  H   UNL     1     -10.226   1.168  28.125  0.00  0.00    +0.000 HD
BRANCH  44  46
ATOM     46  O   UNL     1     -11.690   1.709  26.474  0.00  0.00    +0.000 OA
BRANCH  46  47
ATOM     47  C   UNL     1     -10.979   2.898  26.043  0.00  0.00    +0.000 C 
ATOM     48  C   UNL     1      -9.831   2.549  25.091  0.00  0.00    +0.000 C 
ATOM     49  C   UNL     1     -12.024   3.718  25.271  0.00  0.00    +0.000 C 
ATOM     50  C   UNL     1     -10.498   3.722  27.243  0.00  0.00    +0.000 C 
ENDBRANCH  46  47
ENDBRANCH  44  46
ENDBRANCH  35  43
ENDBRANCH  32  35
ENDBRANCH  31  32
ENDBRANCH  29  31
ENDBRANCH  18  29
BRANCH   7  51
ATOM     51  O   UNL     1     -10.752  -6.599  29.610  0.00  0.00    +0.000 OA
BRANCH  51  53
ATOM     52  O   UNL     1     -11.237  -6.560  31.557  0.00  0.00    +0.000 OA
ATOM     53  C   UNL     1     -11.589  -6.004  30.522  0.00  0.00    +0.000 C 
BRANCH  53  54
ATOM     54  C   UNL     1     -13.067  -4.881  30.050  0.00  0.00    +0.000 A 
ATOM     55  C   UNL     1     -13.736  -4.863  28.749  0.00  0.00    +0.000 A 
ATOM     56  C   UNL     1     -13.809  -4.013  30.910  0.00  0.00    +0.000 A 
ATOM     57  C   UNL     1     -14.896  -4.130  28.389  0.00  0.00    +0.000 A 
ATOM     58  C   UNL     1     -14.976  -3.270  30.567  0.00  0.00    +0.000 A 
ATOM     59  C   UNL     1     -15.521  -3.327  29.307  0.00  0.00    +0.000 A 
ENDBRANCH  53  54
ENDBRANCH  51  53
ENDBRANCH   7  51
BRANCH   4  60
ATOM     60  O   UNL     1     -13.618  -8.059  29.772  0.00  0.00    +0.000 OA
BRANCH  60  62
ATOM     61  O   UNL     1     -14.874  -7.354  31.484  0.00  0.00    +0.000 OA
ATOM     62  C   UNL     1     -14.819  -7.823  30.349  0.00  0.00    +0.000 C 
ATOM     63  C   UNL     1     -16.063  -8.248  29.636  0.00  0.00    +0.000 C 
ENDBRANCH  60  62
ENDBRANCH   4  60
TORSDOF 17
ENDMDL
MODEL 3
REMARK VINA RESULT:      -5.3     12.712     17.985
REMARK  Name = 
REMARK  25 active torsions:
REMARK  status: ('A' for Active; 'I' for Inactive)
REMARK    1  A    between atoms: O_2  and  C_17
REMARK    2  A    between atoms: O_2  and  C_36
REMARK    3  A    between atoms: O_3  and  C_20
REMARK    4  A    between atoms: O_3  and  C_37
REMARK    5  A    between atoms: O_4  and  C_21
REMARK    6  A    between atoms: O_5  and  C_22
REMARK    7  A    between atoms: O_7  and  C_30
REMARK    8  A    between atoms: O_8  and  C_31
REMARK    9  A    between atoms: O_8  and  C_39
REMARK   10  A    between atoms: O_12  and  C_41
REMARK   11  A    between atoms: O_13  and  C_51
REMARK   12  A    between atoms: O_13  and  C_55
REMARK   13  A    between atoms: N_15  and  C_44
REMARK   14  A    between atoms: C_18  and  C_29
REMARK   15  A    between atoms: C_24  and  C_33
REMARK   16  A    between atoms: C_24  and  C_34
REMARK   17  A    between atoms: C_32  and  C_35
REMARK   18  A    between atoms: C_36  and  C_38
REMARK   19  A    between atoms: C_37  and  C_40
REMARK   20  A    between atoms: C_39  and  C_41
REMARK   21  A    between atoms: C_41  and  C_44
REMARK   22  A    between atoms: C_44  and  C_48
REMARK   23  A    between atoms: C_55  and  C_56
REMARK   24  A    between atoms: C_55  and  C_57
REMARK   25  A    between atoms: C_55  and  C_58
REMARK                            x       y       z     vdW  Elec       q    Type
REMARK                         _______ _______ _______ _____ _____    ______ ____
ROOT
ATOM      1  O   UNL     1     -15.580  10.209   6.615  0.00  0.00    +0.000 OA
ATOM      2  O   UNL     1     -11.687   4.780   5.888  0.00  0.00    +0.000 OA
ATOM      3  C   UNL     1     -12.327   9.087   6.518  0.00  0.00    +0.000 C 
ATOM      4  C   UNL     1     -13.550   9.902   6.004  0.00  0.00    +0.000 C 
ATOM      5  C   UNL     1     -12.456   7.353   5.756  0.00  0.00    +0.000 C 
ATOM      6  C   UNL     1     -14.671   9.085   6.768  0.00  0.00    +0.000 C 
ATOM      7  C   UNL     1     -10.749  10.078   6.464  0.00  0.00    +0.000 C 
ATOM      8  C   UNL     1      -8.894   9.930   6.814  0.00  0.00    +0.000 C 
ATOM      9  C   UNL     1     -13.828   6.795   6.321  0.00  0.00    +0.000 C 
ATOM     10  C   UNL     1     -15.053   7.749   6.168  0.00  0.00    +0.000 C 
ATOM     11  C   UNL     1      -7.937   8.464   7.112  0.00  0.00    +0.000 C 
ATOM     12  C   UNL     1     -14.371  11.063   6.694  0.00  0.00    +0.000 C 
ATOM     13  C   UNL     1     -11.219   5.940   5.875  0.00  0.00    +0.000 C 
ATOM     14  C   UNL     1      -8.171  10.474   5.497  0.00  0.00    +0.000 C 
ATOM     15  C   UNL     1      -8.141   7.381   5.952  0.00  0.00    +0.000 C 
ATOM     16  C   UNL     1     -12.702   7.400   4.189  0.00  0.00    +0.000 C 
ATOM     17  C   UNL     1      -9.305   6.027   5.975  0.00  0.00    +0.000 C 
ATOM     18  C   UNL     1      -7.686   9.405   4.414  0.00  0.00    +0.000 C 
ATOM     19  C   UNL     1      -7.740   7.867   4.729  0.00  0.00    +0.000 C 
ATOM     20  C   UNL     1      -6.386   8.898   7.077  0.00  0.00    +0.000 C 
ATOM     21  C   UNL     1      -7.878   7.871   8.555  0.00  0.00    +0.000 C 
ATOM     22  C   UNL     1      -7.587   6.982   3.517  0.00  0.00    +0.000 C 
ENDROOT
BRANCH  17  23
ATOM     23  O   UNL     1      -8.759   5.093   6.907  0.00  0.00    +0.000 OA
ATOM     24  H   UNL     1      -9.533   4.714   7.366  0.00  0.00    +0.000 HD
ENDBRANCH  17  23
BRANCH   9  25
ATOM     25  O   UNL     1     -13.675   6.541   7.719  0.00  0.00    +0.000 OA
ATOM     26  H   UNL     1     -14.062   7.300   8.190  0.00  0.00    +0.000 HD
ENDBRANCH   9  25
BRANCH   8  27
ATOM     27  O   UNL     1      -8.642  10.896   7.853  0.00  0.00    +0.000 OA
ATOM     28  H   UNL     1      -7.931  10.566   8.430  0.00  0.00    +0.000 HD
ENDBRANCH   8  27
BRANCH  18  29
ATOM     29  O   UNL     1      -8.475   9.613   3.207  0.00  0.00    +0.000 OA
BRANCH  29  31
ATOM     30  O   UNL     1      -8.136   9.655   0.974  0.00  0.00    +0.000 OA
ATOM     31  C   UNL     1      -7.827  10.044   2.095  0.00  0.00    +0.000 C 
BRANCH  31  32
ATOM     32  C   UNL     1      -6.591  10.911   2.356  0.00  0.00    +0.000 C 
BRANCH  32  33
ATOM     33  O   UNL     1      -6.525  12.132   1.609  0.00  0.00    +0.000 OA
ATOM     34  H   UNL     1      -6.656  11.883   0.675  0.00  0.00    +0.000 HD
ENDBRANCH  32  33
BRANCH  32  35
ATOM     35  C   UNL     1      -5.325  10.041   2.136  0.00  0.00    +0.000 C 
BRANCH  35  36
ATOM     36  C   UNL     1      -4.189  10.405   3.087  0.00  0.00    +0.000 A 
ATOM     37  C   UNL     1      -3.109  11.168   2.616  0.00  0.00    +0.000 A 
ATOM     38  C   UNL     1      -4.204  10.030   4.441  0.00  0.00    +0.000 A 
ATOM     39  C   UNL     1      -2.061  11.525   3.467  0.00  0.00    +0.000 A 
ATOM     40  C   UNL     1      -3.155  10.387   5.290  0.00  0.00    +0.000 A 
ATOM     41  C   UNL     1      -2.083  11.132   4.802  0.00  0.00    +0.000 A 
ENDBRANCH  35  36
BRANCH  35  43
ATOM     42  O   UNL     1      -5.355   8.017   0.096  0.00  0.00    +0.000 OA
ATOM     43  N   UNL     1      -4.840  10.141   0.766  0.00  0.00    +0.000 N 
ATOM     44  C   UNL     1      -4.804   9.089  -0.090  0.00  0.00    +0.000 C 
ATOM     45  H   UNL     1      -4.241  10.924   0.539  0.00  0.00    +0.000 HD
BRANCH  44  46
ATOM     46  O   UNL     1      -4.087   9.443  -1.178  0.00  0.00    +0.000 OA
BRANCH  46  47
ATOM     47  C   UNL     1      -4.626   9.261  -2.512  0.00  0.00    +0.000 C 
ATOM     48  C   UNL     1      -6.105   9.654  -2.577  0.00  0.00    +0.000 C 
ATOM     49  C   UNL     1      -3.822  10.230  -3.392  0.00  0.00    +0.000 C 
ATOM     50  C   UNL     1      -4.391   7.832  -3.015  0.00  0.00    +0.000 C 
ENDBRANCH  46  47
ENDBRANCH  44  46
ENDBRANCH  35  43
ENDBRANCH  32  35
ENDBRANCH  31  32
ENDBRANCH  29  31
ENDBRANCH  18  29
BRANCH   7  51
ATOM     51  O   UNL     1     -10.548   9.530   5.284  0.00  0.00    +0.000 OA
BRANCH  51  53
ATOM     52  O   UNL     1     -10.944  11.468   5.628  0.00  0.00    +0.000 OA
ATOM     53  C   UNL     1     -10.783  10.731   4.660  0.00  0.00    +0.000 C 
BRANCH  53  54
ATOM     54  C   UNL     1     -11.077  10.923   2.777  0.00  0.00    +0.000 A 
ATOM     55  C   UNL     1     -11.636   9.896   1.897  0.00  0.00    +0.000 A 
ATOM     56  C   UNL     1     -10.929  12.107   1.991  0.00  0.00    +0.000 A 
ATOM     57  C   UNL     1     -11.969  10.028   0.525  0.00  0.00    +0.000 A 
ATOM     58  C   UNL     1     -11.258  12.259   0.612  0.00  0.00    +0.000 A 
ATOM     59  C   UNL     1     -11.779  11.221  -0.122  0.00  0.00    +0.000 A 
ENDBRANCH  53  54
ENDBRANCH  51  53
ENDBRANCH   7  51
BRANCH   4  60
ATOM     60  O   UNL     1     -13.668   9.870   4.562  0.00  0.00    +0.000 OA
BRANCH  60  62
ATOM     61  O   UNL     1     -15.589   9.986   3.421  0.00  0.00    +0.000 OA
ATOM     62  C   UNL     1     -14.596  10.561   3.860  0.00  0.00    +0.000 C 
ATOM     63  C   UNL     1     -14.334  11.997   3.529  0.00  0.00    +0.000 C 
ENDBRANCH  60  62
ENDBRANCH   4  60
TORSDOF 17
ENDMDL
MODEL 4
REMARK VINA RESULT:      -5.2     11.150     15.119
REMARK  Name = 
REMARK  25 active torsions:
REMARK  status: ('A' for Active; 'I' for Inactive)
REMARK    1  A    between atoms: O_2  and  C_17
REMARK    2  A    between atoms: O_2  and  C_36
REMARK    3  A    between atoms: O_3  and  C_20
REMARK    4  A    between atoms: O_3  and  C_37
REMARK    5  A    between atoms: O_4  and  C_21
REMARK    6  A    between atoms: O_5  and  C_22
REMARK    7  A    between atoms: O_7  and  C_30
REMARK    8  A    between atoms: O_8  and  C_31
REMARK    9  A    between atoms: O_8  and  C_39
REMARK   10  A    between atoms: O_12  and  C_41
REMARK   11  A    between atoms: O_13  and  C_51
REMARK   12  A    between atoms: O_13  and  C_55
REMARK   13  A    between atoms: N_15  and  C_44
REMARK   14  A    between atoms: C_18  and  C_29
REMARK   15  A    between atoms: C_24  and  C_33
REMARK   16  A    between atoms: C_24  and  C_34
REMARK   17  A    between atoms: C_32  and  C_35
REMARK   18  A    between atoms: C_36  and  C_38
REMARK   19  A    between atoms: C_37  and  C_40
REMARK   20  A    between atoms: C_39  and  C_41
REMARK   21  A    between atoms: C_41  and  C_44
REMARK   22  A    between atoms: C_44  and  C_48
REMARK   23  A    between atoms: C_55  and  C_56
REMARK   24  A    between atoms: C_55  and  C_57
REMARK   25  A    between atoms: C_55  and  C_58
REMARK                            x       y       z     vdW  Elec       q    Type
REMARK                         _______ _______ _______ _____ _____    ______ ____
ROOT
ATOM      1  O   UNL     1      -8.346   5.075   2.925  0.00  0.00    +0.000 OA
ATOM      2  O   UNL     1     -13.884   8.201   5.098  0.00  0.00    +0.000 OA
ATOM      3  C   UNL     1      -9.638   8.097   3.952  0.00  0.00    +0.000 C 
ATOM      4  C   UNL     1      -8.704   6.856   4.062  0.00  0.00    +0.000 C 
ATOM      5  C   UNL     1     -11.271   7.638   4.803  0.00  0.00    +0.000 C 
ATOM      6  C   UNL     1      -9.530   5.898   3.110  0.00  0.00    +0.000 C 
ATOM      7  C   UNL     1      -8.739   9.688   4.322  0.00  0.00    +0.000 C 
ATOM      8  C   UNL     1      -9.031  11.553   4.474  0.00  0.00    +0.000 C 
ATOM      9  C   UNL     1     -11.805   6.410   3.956  0.00  0.00    +0.000 C 
ATOM     10  C   UNL     1     -10.772   5.269   3.706  0.00  0.00    +0.000 C 
ATOM     11  C   UNL     1     -10.572  12.429   4.561  0.00  0.00    +0.000 C 
ATOM     12  C   UNL     1      -7.576   6.332   3.085  0.00  0.00    +0.000 C 
ATOM     13  C   UNL     1     -12.758   8.745   5.130  0.00  0.00    +0.000 C 
ATOM     14  C   UNL     1      -8.394  11.967   5.880  0.00  0.00    +0.000 C 
ATOM     15  C   UNL     1     -11.514  11.853   5.720  0.00  0.00    +0.000 C 
ATOM     16  C   UNL     1     -11.045   7.015   6.244  0.00  0.00    +0.000 C 
ATOM     17  C   UNL     1     -12.793  10.623   5.517  0.00  0.00    +0.000 C 
ATOM     18  C   UNL     1      -9.369  12.075   7.140  0.00  0.00    +0.000 C 
ATOM     19  C   UNL     1     -10.925  11.975   6.957  0.00  0.00    +0.000 C 
ATOM     20  C   UNL     1     -10.228  13.953   4.955  0.00  0.00    +0.000 C 
ATOM     21  C   UNL     1     -11.318  12.798   3.239  0.00  0.00    +0.000 C 
ATOM     22  C   UNL     1     -11.684  11.746   8.240  0.00  0.00    +0.000 C 
ENDROOT
BRANCH  17  23
ATOM     23  O   UNL     1     -13.850  11.306   4.842  0.00  0.00    +0.000 OA
ATOM     24  H   UNL     1     -14.118  10.704   4.121  0.00  0.00    +0.000 HD
ENDBRANCH  17  23
BRANCH   9  25
ATOM     25  O   UNL     1     -12.214   6.885   2.672  0.00  0.00    +0.000 OA
ATOM     26  H   UNL     1     -12.575   7.781   2.801  0.00  0.00    +0.000 HD
ENDBRANCH   9  25
BRANCH   8  27
ATOM     27  O   UNL     1      -8.196  12.136   3.455  0.00  0.00    +0.000 OA
ATOM     28  H   UNL     1      -7.261  11.996   3.689  0.00  0.00    +0.000 HD
ENDBRANCH   8  27
BRANCH  18  29
ATOM     29  O   UNL     1      -8.988  11.030   8.082  0.00  0.00    +0.000 OA
BRANCH  29  31
ATOM     30  O   UNL     1      -7.865  12.488   9.390  0.00  0.00    +0.000 OA
ATOM     31  C   UNL     1      -8.060  11.335   9.022  0.00  0.00    +0.000 C 
BRANCH  31  32
ATOM     32  C   UNL     1      -7.171  10.166   9.463  0.00  0.00    +0.000 C 
BRANCH  32  33
ATOM     33  O   UNL     1      -7.862   9.048  10.032  0.00  0.00    +0.000 OA
ATOM     34  H   UNL     1      -7.615   9.029  10.976  0.00  0.00    +0.000 HD
ENDBRANCH  32  33
BRANCH  32  35
ATOM     35  C   UNL     1      -6.084  10.713  10.426  0.00  0.00    +0.000 C 
BRANCH  35  36
ATOM     36  C   UNL     1      -4.690  10.698   9.807  0.00  0.00    +0.000 A 
ATOM     37  C   UNL     1      -4.059   9.470   9.549  0.00  0.00    +0.000 A 
ATOM     38  C   UNL     1      -4.024  11.882   9.449  0.00  0.00    +0.000 A 
ATOM     39  C   UNL     1      -2.788   9.428   8.973  0.00  0.00    +0.000 A 
ATOM     40  C   UNL     1      -2.752  11.836   8.873  0.00  0.00    +0.000 A 
ATOM     41  C   UNL     1      -2.134  10.610   8.638  0.00  0.00    +0.000 A 
ENDBRANCH  35  36
BRANCH  35  43
ATOM     42  O   UNL     1      -7.805  10.999  12.709  0.00  0.00    +0.000 OA
ATOM     43  N   UNL     1      -6.050   9.962  11.674  0.00  0.00    +0.000 N 
ATOM     44  C   UNL     1      -6.845  10.248  12.736  0.00  0.00    +0.000 C 
ATOM     45  H   UNL     1      -5.221   9.417  11.870  0.00  0.00    +0.000 HD
BRANCH  44  46
ATOM     46  O   UNL     1      -6.408   9.545  13.803  0.00  0.00    +0.000 OA
BRANCH  46  47
ATOM     47  C   UNL     1      -7.269   8.577  14.456  0.00  0.00    +0.000 C 
ATOM     48  C   UNL     1      -8.133   7.822  13.440  0.00  0.00    +0.000 C 
ATOM     49  C   UNL     1      -6.304   7.580  15.116  0.00  0.00    +0.000 C 
ATOM     50  C   UNL     1      -8.117   9.236  15.550  0.00  0.00    +0.000 C 
ENDBRANCH  46  47
ENDBRANCH  44  46
ENDBRANCH  35  43
ENDBRANCH  32  35
ENDBRANCH  31  32
ENDBRANCH  29  31
ENDBRANCH  18  29
BRANCH   7  51
ATOM     51  O   UNL     1      -9.171   9.541   5.557  0.00  0.00    +0.000 OA
BRANCH  51  53
ATOM     52  O   UNL     1      -8.218   8.508   6.991  0.00  0.00    +0.000 OA
ATOM     53  C   UNL     1      -7.930   9.114   5.964  0.00  0.00    +0.000 C 
BRANCH  53  54
ATOM     54  C   UNL     1      -6.283   9.701   5.182  0.00  0.00    +0.000 A 
ATOM     55  C   UNL     1      -5.140  10.242   5.920  0.00  0.00    +0.000 A 
ATOM     56  C   UNL     1      -5.875   9.577   3.818  0.00  0.00    +0.000 A 
ATOM     57  C   UNL     1      -3.867  10.587   5.400  0.00  0.00    +0.000 A 
ATOM     58  C   UNL     1      -4.601   9.919   3.277  0.00  0.00    +0.000 A 
ATOM     59  C   UNL     1      -3.596  10.423   4.065  0.00  0.00    +0.000 A 
ENDBRANCH  53  54
ENDBRANCH  51  53
ENDBRANCH   7  51
BRANCH   4  60
ATOM     60  O   UNL     1      -8.577   6.379   5.422  0.00  0.00    +0.000 OA
BRANCH  60  62
ATOM     61  O   UNL     1      -6.370   6.053   5.589  0.00  0.00    +0.000 OA
ATOM     62  C   UNL     1      -7.506   5.697   5.891  0.00  0.00    +0.000 C 
ATOM     63  C   UNL     1      -7.732   4.445   6.678  0.00  0.00    +0.000 C 
ENDBRANCH  60  62
ENDBRANCH   4  60
TORSDOF 17
ENDMDL
MODEL 5
REMARK VINA RESULT:      -5.2     13.380     18.684
REMARK  Name = 
REMARK  25 active torsions:
REMARK  status: ('A' for Active; 'I' for Inactive)
REMARK    1  A    between atoms: O_2  and  C_17
REMARK    2  A    between atoms: O_2  and  C_36
REMARK    3  A    between atoms: O_3  and  C_20
REMARK    4  A    between atoms: O_3  and  C_37
REMARK    5  A    between atoms: O_4  and  C_21
REMARK    6  A    between atoms: O_5  and  C_22
REMARK    7  A    between atoms: O_7  and  C_30
REMARK    8  A    between atoms: O_8  and  C_31
REMARK    9  A    between atoms: O_8  and  C_39
REMARK   10  A    between atoms: O_12  and  C_41
REMARK   11  A    between atoms: O_13  and  C_51
REMARK   12  A    between atoms: O_13  and  C_55
REMARK   13  A    between atoms: N_15  and  C_44
REMARK   14  A    between atoms: C_18  and  C_29
REMARK   15  A    between atoms: C_24  and  C_33
REMARK   16  A    between atoms: C_24  and  C_34
REMARK   17  A    between atoms: C_32  and  C_35
REMARK   18  A    between atoms: C_36  and  C_38
REMARK   19  A    between atoms: C_37  and  C_40
REMARK   20  A    between atoms: C_39  and  C_41
REMARK   21  A    between atoms: C_41  and  C_44
REMARK   22  A    between atoms: C_44  and  C_48
REMARK   23  A    between atoms: C_55  and  C_56
REMARK   24  A    between atoms: C_55  and  C_57
REMARK   25  A    between atoms: C_55  and  C_58
REMARK                            x       y       z     vdW  Elec       q    Type
REMARK                         _______ _______ _______ _____ _____    ______ ____
ROOT
ATOM      1  O   UNL     1     -14.230   8.287   6.410  0.00  0.00    +0.000 OA
ATOM      2  O   UNL     1      -8.800   4.792   4.552  0.00  0.00    +0.000 OA
ATOM      3  C   UNL     1     -10.802   8.387   6.107  0.00  0.00    +0.000 C 
ATOM      4  C   UNL     1     -12.258   8.826   5.770  0.00  0.00    +0.000 C 
ATOM      5  C   UNL     1     -10.393   6.916   4.980  0.00  0.00    +0.000 C 
ATOM      6  C   UNL     1     -12.990   7.535   6.323  0.00  0.00    +0.000 C 
ATOM      7  C   UNL     1      -9.654   9.844   6.291  0.00  0.00    +0.000 C 
ATOM      8  C   UNL     1      -7.837  10.266   6.621  0.00  0.00    +0.000 C 
ATOM      9  C   UNL     1     -11.459   5.818   5.393  0.00  0.00    +0.000 C 
ATOM     10  C   UNL     1     -12.940   6.307   5.439  0.00  0.00    +0.000 C 
ATOM     11  C   UNL     1      -6.428   9.186   6.601  0.00  0.00    +0.000 C 
ATOM     12  C   UNL     1     -13.374   9.465   6.689  0.00  0.00    +0.000 C 
ATOM     13  C   UNL     1      -8.749   6.016   4.800  0.00  0.00    +0.000 C 
ATOM     14  C   UNL     1      -7.424  11.288   5.465  0.00  0.00    +0.000 C 
ATOM     15  C   UNL     1      -6.332   8.369   5.228  0.00  0.00    +0.000 C 
ATOM     16  C   UNL     1     -10.740   7.205   3.460  0.00  0.00    +0.000 C 
ATOM     17  C   UNL     1      -6.973   6.727   4.939  0.00  0.00    +0.000 C 
ATOM     18  C   UNL     1      -6.681  10.702   4.179  0.00  0.00    +0.000 C 
ATOM     19  C   UNL     1      -6.197   9.208   4.147  0.00  0.00    +0.000 C 
ATOM     20  C   UNL     1      -5.118  10.119   6.680  0.00  0.00    +0.000 C 
ATOM     21  C   UNL     1      -6.081   8.358   7.878  0.00  0.00    +0.000 C 
ATOM     22  C   UNL     1      -5.835   8.705   2.772  0.00  0.00    +0.000 C 
ENDROOT
BRANCH  17  23
ATOM     23  O   UNL     1      -6.087   5.861   5.649  0.00  0.00    +0.000 OA
ATOM     24  H   UNL     1      -5.195   6.218   5.478  0.00  0.00    +0.000 HD
ENDBRANCH  17  23
BRANCH   9  25
ATOM     25  O   UNL     1     -11.141   5.342   6.702  0.00  0.00    +0.000 OA
ATOM     26  H   UNL     1     -11.853   4.730   6.964  0.00  0.00    +0.000 HD
ENDBRANCH   9  25
BRANCH   8  27
ATOM     27  O   UNL     1      -7.857  11.018   7.850  0.00  0.00    +0.000 OA
ATOM     28  H   UNL     1      -8.473  10.595   8.473  0.00  0.00    +0.000 HD
ENDBRANCH   8  27
BRANCH  18  29
ATOM     29  O   UNL     1      -7.569  10.880   3.038  0.00  0.00    +0.000 OA
BRANCH  29  31
ATOM     30  O   UNL     1      -6.996  12.959   2.368  0.00  0.00    +0.000 OA
ATOM     31  C   UNL     1      -7.211  11.783   2.092  0.00  0.00    +0.000 C 
BRANCH  31  32
ATOM     32  C   UNL     1      -7.255  11.269   0.649  0.00  0.00    +0.000 C 
BRANCH  32  33
ATOM     33  O   UNL     1      -7.854   9.980   0.473  0.00  0.00    +0.000 OA
ATOM     34  H   UNL     1      -7.117   9.359   0.316  0.00  0.00    +0.000 HD
ENDBRANCH  32  33
BRANCH  32  35
ATOM     35  C   UNL     1      -5.816  11.312   0.068  0.00  0.00    +0.000 C 
BRANCH  35  36
ATOM     36  C   UNL     1      -5.596  10.280  -1.033  0.00  0.00    +0.000 A 
ATOM     37  C   UNL     1      -6.170  10.484  -2.299  0.00  0.00    +0.000 A 
ATOM     38  C   UNL     1      -4.800   9.140  -0.834  0.00  0.00    +0.000 A 
ATOM     39  C   UNL     1      -5.975   9.560  -3.329  0.00  0.00    +0.000 A 
ATOM     40  C   UNL     1      -4.608   8.218  -1.865  0.00  0.00    +0.000 A 
ATOM     41  C   UNL     1      -5.197   8.427  -3.110  0.00  0.00    +0.000 A 
ENDBRANCH  35  36
BRANCH  35  43
ATOM     42  O   UNL     1      -3.449  12.861   0.569  0.00  0.00    +0.000 OA
ATOM     43  N   UNL     1      -4.816  11.110   1.107  0.00  0.00    +0.000 N 
ATOM     44  C   UNL     1      -3.674  11.838   1.192  0.00  0.00    +0.000 C 
ATOM     45  H   UNL     1      -4.817  10.222   1.591  0.00  0.00    +0.000 HD
BRANCH  44  46
ATOM     46  O   UNL     1      -2.857  11.255   2.095  0.00  0.00    +0.000 OA
BRANCH  46  47
ATOM     47  C   UNL     1      -2.598  11.884   3.376  0.00  0.00    +0.000 C 
ATOM     48  C   UNL     1      -2.308  10.843   4.463  0.00  0.00    +0.000 C 
ATOM     49  C   UNL     1      -1.330  12.722   3.149  0.00  0.00    +0.000 C 
ATOM     50  C   UNL     1      -3.742  12.823   3.774  0.00  0.00    +0.000 C 
ENDBRANCH  46  47
ENDBRANCH  44  46
ENDBRANCH  35  43
ENDBRANCH  32  35
ENDBRANCH  31  32
ENDBRANCH  29  31
ENDBRANCH  18  29
BRANCH   7  51
ATOM     51  O   UNL     1      -9.358   9.659   5.021  0.00  0.00    +0.000 OA
BRANCH  51  53
ATOM     52  O   UNL     1     -10.295  11.263   5.781  0.00  0.00    +0.000 OA
ATOM     53  C   UNL     1     -10.020  10.811   4.675  0.00  0.00    +0.000 C 
BRANCH  53  54
ATOM     54  C   UNL     1     -10.561  11.242   2.888  0.00  0.00    +0.000 A 
ATOM     55  C   UNL     1     -10.677  12.595   2.341  0.00  0.00    +0.000 A 
ATOM     56  C   UNL     1     -10.796  10.337   1.809  0.00  0.00    +0.000 A 
ATOM     57  C   UNL     1     -10.968  12.958   1.002  0.00  0.00    +0.000 A 
ATOM     58  C   UNL     1     -11.090  10.682   0.457  0.00  0.00    +0.000 A 
ATOM     59  C   UNL     1     -11.176  11.991   0.051  0.00  0.00    +0.000 A 
ENDBRANCH  53  54
ENDBRANCH  51  53
ENDBRANCH   7  51
BRANCH   4  60
ATOM     60  O   UNL     1     -12.451   9.061   4.356  0.00  0.00    +0.000 OA
BRANCH  60  62
ATOM     61  O   UNL     1     -13.726  10.873   4.048  0.00  0.00    +0.000 OA
ATOM     62  C   UNL     1     -13.533   9.679   3.828  0.00  0.00    +0.000 C 
ATOM     63  C   UNL     1     -14.541   8.866   3.080  0.00  0.00    +0.000 C 
ENDBRANCH  60  62
ENDBRANCH   4  60
TORSDOF 17
ENDMDL
MODEL 6
REMARK VINA RESULT:      -5.2      2.785      9.400
REMARK  Name = 
REMARK  25 active torsions:
REMARK  status: ('A' for Active; 'I' for Inactive)
REMARK    1  A    between atoms: O_2  and  C_17
REMARK    2  A    between atoms: O_2  and  C_36
REMARK    3  A    between atoms: O_3  and  C_20
REMARK    4  A    between atoms: O_3  and  C_37
REMARK    5  A    between atoms: O_4  and  C_21
REMARK    6  A    between atoms: O_5  and  C_22
REMARK    7  A    between atoms: O_7  and  C_30
REMARK    8  A    between atoms: O_8  and  C_31
REMARK    9  A    between atoms: O_8  and  C_39
REMARK   10  A    between atoms: O_12  and  C_41
REMARK   11  A    between atoms: O_13  and  C_51
REMARK   12  A    between atoms: O_13  and  C_55
REMARK   13  A    between atoms: N_15  and  C_44
REMARK   14  A    between atoms: C_18  and  C_29
REMARK   15  A    between atoms: C_24  and  C_33
REMARK   16  A    between atoms: C_24  and  C_34
REMARK   17  A    between atoms: C_32  and  C_35
REMARK   18  A    between atoms: C_36  and  C_38
REMARK   19  A    between atoms: C_37  and  C_40
REMARK   20  A    between atoms: C_39  and  C_41
REMARK   21  A    between atoms: C_41  and  C_44
REMARK   22  A    between atoms: C_44  and  C_48
REMARK   23  A    between atoms: C_55  and  C_56
REMARK   24  A    between atoms: C_55  and  C_57
REMARK   25  A    between atoms: C_55  and  C_58
REMARK                            x       y       z     vdW  Elec       q    Type
REMARK                         _______ _______ _______ _____ _____    ______ ____
ROOT
ATOM      1  O   UNL     1     -10.576   5.680  20.841  0.00  0.00    +0.000 OA
ATOM      2  O   UNL     1     -16.359   8.866  22.097  0.00  0.00    +0.000 OA
ATOM      3  C   UNL     1     -14.007   5.428  20.682  0.00  0.00    +0.000 C 
ATOM      4  C   UNL     1     -12.572   5.502  20.081  0.00  0.00    +0.000 C 
ATOM      5  C   UNL     1     -14.613   7.214  20.890  0.00  0.00    +0.000 C 
ATOM      6  C   UNL     1     -11.860   6.145  21.341  0.00  0.00    +0.000 C 
ATOM      7  C   UNL     1     -15.045   4.117  19.858  0.00  0.00    +0.000 C 
ATOM      8  C   UNL     1     -16.791   3.382  19.878  0.00  0.00    +0.000 C 
ATOM      9  C   UNL     1     -13.573   7.850  21.903  0.00  0.00    +0.000 C 
ATOM     10  C   UNL     1     -12.071   7.631  21.545  0.00  0.00    +0.000 C 
ATOM     11  C   UNL     1     -18.253   4.021  20.657  0.00  0.00    +0.000 C 
ATOM     12  C   UNL     1     -11.331   4.540  20.267  0.00  0.00    +0.000 C 
ATOM     13  C   UNL     1     -16.315   7.804  21.438  0.00  0.00    +0.000 C 
ATOM     14  C   UNL     1     -17.265   3.381  18.351  0.00  0.00    +0.000 C 
ATOM     15  C   UNL     1     -18.538   5.535  20.225  0.00  0.00    +0.000 C 
ATOM     16  C   UNL     1     -14.412   8.077  19.574  0.00  0.00    +0.000 C 
ATOM     17  C   UNL     1     -18.024   6.994  21.119  0.00  0.00    +0.000 C 
ATOM     18  C   UNL     1     -18.171   4.596  17.848  0.00  0.00    +0.000 C 
ATOM     19  C   UNL     1     -18.738   5.645  18.870  0.00  0.00    +0.000 C 
ATOM     20  C   UNL     1     -19.493   3.143  20.124  0.00  0.00    +0.000 C 
ATOM     21  C   UNL     1     -18.510   3.714  22.167  0.00  0.00    +0.000 C 
ATOM     22  C   UNL     1     -19.270   6.904  18.230  0.00  0.00    +0.000 C 
ENDROOT
BRANCH  17  23
ATOM     23  O   UNL     1     -18.878   7.040  22.262  0.00  0.00    +0.000 OA
ATOM     24  H   UNL     1     -18.466   6.435  22.908  0.00  0.00    +0.000 HD
ENDBRANCH  17  23
BRANCH   9  25
ATOM     25  O   UNL     1     -13.778   7.270  23.192  0.00  0.00    +0.000 OA
ATOM     26  H   UNL     1     -13.407   7.889  23.846  0.00  0.00    +0.000 HD
ENDBRANCH   9  25
BRANCH   8  27
ATOM     27  O   UNL     1     -16.601   2.004  20.253  0.00  0.00    +0.000 OA
ATOM     28  H   UNL     1     -17.040   1.842  21.106  0.00  0.00    +0.000 HD
ENDBRANCH   8  27
BRANCH  18  29
ATOM     29  O   UNL     1     -17.398   5.343  16.865  0.00  0.00    +0.000 OA
BRANCH  29  31
ATOM     30  O   UNL     1     -17.967   6.387  14.944  0.00  0.00    +0.000 OA
ATOM     31  C   UNL     1     -17.842   5.347  15.583  0.00  0.00    +0.000 C 
BRANCH  31  32
ATOM     32  C   UNL     1     -18.328   3.992  15.057  0.00  0.00    +0.000 C 
BRANCH  32  33
ATOM     33  O   UNL     1     -17.449   3.339  14.134  0.00  0.00    +0.000 OA
ATOM     34  H   UNL     1     -17.719   2.401  14.122  0.00  0.00    +0.000 HD
ENDBRANCH  32  33
BRANCH  32  35
ATOM     35  C   UNL     1     -19.747   4.178  14.456  0.00  0.00    +0.000 C 
BRANCH  35  36
ATOM     36  C   UNL     1     -20.791   4.525  15.512  0.00  0.00    +0.000 A 
ATOM     37  C   UNL     1     -21.478   5.747  15.434  0.00  0.00    +0.000 A 
ATOM     38  C   UNL     1     -21.120   3.638  16.551  0.00  0.00    +0.000 A 
ATOM     39  C   UNL     1     -22.446   6.085  16.382  0.00  0.00    +0.000 A 
ATOM     40  C   UNL     1     -22.088   3.978  17.498  0.00  0.00    +0.000 A 
ATOM     41  C   UNL     1     -22.749   5.202  17.414  0.00  0.00    +0.000 A 
ENDBRANCH  35  36
BRANCH  35  43
ATOM     42  O   UNL     1     -20.955   4.025  11.853  0.00  0.00    +0.000 OA
ATOM     43  N   UNL     1     -20.183   2.988  13.739  0.00  0.00    +0.000 N 
ATOM     44  C   UNL     1     -20.841   3.033  12.553  0.00  0.00    +0.000 C 
ATOM     45  H   UNL     1     -20.270   2.130  14.267  0.00  0.00    +0.000 HD
BRANCH  44  46
ATOM     46  O   UNL     1     -21.316   1.799  12.276  0.00  0.00    +0.000 OA
BRANCH  46  47
ATOM     47  C   UNL     1     -22.718   1.483  12.476  0.00  0.00    +0.000 C 
ATOM     48  C   UNL     1     -23.379   2.464  13.449  0.00  0.00    +0.000 C 
ATOM     49  C   UNL     1     -23.358   1.660  11.090  0.00  0.00    +0.000 C 
ATOM     50  C   UNL     1     -22.900   0.027  12.918  0.00  0.00    +0.000 C 
ENDBRANCH  46  47
ENDBRANCH  44  46
ENDBRANCH  35  43
ENDBRANCH  32  35
ENDBRANCH  31  32
ENDBRANCH  29  31
ENDBRANCH  18  29
BRANCH   7  51
ATOM     51  O   UNL     1     -15.483   5.081  19.075  0.00  0.00    +0.000 OA
BRANCH  51  53
ATOM     52  O   UNL     1     -14.300   3.558  18.518  0.00  0.00    +0.000 OA
ATOM     53  C   UNL     1     -14.790   4.561  18.010  0.00  0.00    +0.000 C 
BRANCH  53  54
ATOM     54  C   UNL     1     -14.511   5.487  16.356  0.00  0.00    +0.000 A 
ATOM     55  C   UNL     1     -14.401   4.855  15.040  0.00  0.00    +0.000 A 
ATOM     56  C   UNL     1     -14.506   6.899  16.140  0.00  0.00    +0.000 A 
ATOM     57  C   UNL     1     -14.302   5.502  13.782  0.00  0.00    +0.000 A 
ATOM     58  C   UNL     1     -14.409   7.567  14.884  0.00  0.00    +0.000 A 
ATOM     59  C   UNL     1     -14.307   6.871  13.704  0.00  0.00    +0.000 A 
ENDBRANCH  53  54
ENDBRANCH  51  53
ENDBRANCH   7  51
BRANCH   4  60
ATOM     60  O   UNL     1     -12.515   6.316  18.886  0.00  0.00    +0.000 OA
BRANCH  60  62
ATOM     61  O   UNL     1     -11.350   5.204  17.333  0.00  0.00    +0.000 OA
ATOM     62  C   UNL     1     -11.527   6.244  17.963  0.00  0.00    +0.000 C 
ATOM     63  C   UNL     1     -10.591   7.400  17.812  0.00  0.00    +0.000 C 
ENDBRANCH  60  62
ENDBRANCH   4  60
TORSDOF 17
ENDMDL
MODEL 7
REMARK VINA RESULT:      -5.2      2.577      5.632
REMARK  Name = 
REMARK  25 active torsions:
REMARK  status: ('A' for Active; 'I' for Inactive)
REMARK    1  A    between atoms: O_2  and  C_17
REMARK    2  A    between atoms: O_2  and  C_36
REMARK    3  A    between atoms: O_3  and  C_20
REMARK    4  A    between atoms: O_3  and  C_37
REMARK    5  A    between atoms: O_4  and  C_21
REMARK    6  A    between atoms: O_5  and  C_22
REMARK    7  A    between atoms: O_7  and  C_30
REMARK    8  A    between atoms: O_8  and  C_31
REMARK    9  A    between atoms: O_8  and  C_39
REMARK   10  A    between atoms: O_12  and  C_41
REMARK   11  A    between atoms: O_13  and  C_51
REMARK   12  A    between atoms: O_13  and  C_55
REMARK   13  A    between atoms: N_15  and  C_44
REMARK   14  A    between atoms: C_18  and  C_29
REMARK   15  A    between atoms: C_24  and  C_33
REMARK   16  A    between atoms: C_24  and  C_34
REMARK   17  A    between atoms: C_32  and  C_35
REMARK   18  A    between atoms: C_36  and  C_38
REMARK   19  A    between atoms: C_37  and  C_40
REMARK   20  A    between atoms: C_39  and  C_41
REMARK   21  A    between atoms: C_41  and  C_44
REMARK   22  A    between atoms: C_44  and  C_48
REMARK   23  A    between atoms: C_55  and  C_56
REMARK   24  A    between atoms: C_55  and  C_57
REMARK   25  A    between atoms: C_55  and  C_58
REMARK                            x       y       z     vdW  Elec       q    Type
REMARK                         _______ _______ _______ _____ _____    ______ ____
ROOT
ATOM      1  O   UNL     1     -14.757   6.304  13.536  0.00  0.00    +0.000 OA
ATOM      2  O   UNL     1     -13.983  10.259  18.914  0.00  0.00    +0.000 OA
ATOM      3  C   UNL     1     -13.812   6.380  16.846  0.00  0.00    +0.000 C 
ATOM      4  C   UNL     1     -14.713   5.954  15.650  0.00  0.00    +0.000 C 
ATOM      5  C   UNL     1     -14.481   8.038  17.482  0.00  0.00    +0.000 C 
ATOM      6  C   UNL     1     -14.277   7.103  14.651  0.00  0.00    +0.000 C 
ATOM      7  C   UNL     1     -13.444   4.954  17.990  0.00  0.00    +0.000 C 
ATOM      8  C   UNL     1     -12.546   4.546  19.607  0.00  0.00    +0.000 C 
ATOM      9  C   UNL     1     -14.323   9.009  16.239  0.00  0.00    +0.000 C 
ATOM     10  C   UNL     1     -14.889   8.467  14.890  0.00  0.00    +0.000 C 
ATOM     11  C   UNL     1     -11.894   5.663  20.824  0.00  0.00    +0.000 C 
ATOM     12  C   UNL     1     -14.366   5.127  14.348  0.00  0.00    +0.000 C 
ATOM     13  C   UNL     1     -13.919   9.012  18.991  0.00  0.00    +0.000 C 
ATOM     14  C   UNL     1     -13.613   3.755  20.494  0.00  0.00    +0.000 C 
ATOM     15  C   UNL     1     -13.001   6.708  21.317  0.00  0.00    +0.000 C 
ATOM     16  C   UNL     1     -16.049   8.004  17.720  0.00  0.00    +0.000 C 
ATOM     17  C   UNL     1     -13.254   8.351  20.665  0.00  0.00    +0.000 C 
ATOM     18  C   UNL     1     -14.440   4.581  21.582  0.00  0.00    +0.000 C 
ATOM     19  C   UNL     1     -14.072   6.074  21.902  0.00  0.00    +0.000 C 
ATOM     20  C   UNL     1     -11.486   4.777  22.106  0.00  0.00    +0.000 C 
ATOM     21  C   UNL     1     -10.469   6.269  20.620  0.00  0.00    +0.000 C 
ATOM     22  C   UNL     1     -15.132   6.820  22.673  0.00  0.00    +0.000 C 
ENDROOT
BRANCH  17  23
ATOM     23  O   UNL     1     -12.151   9.113  21.158  0.00  0.00    +0.000 OA
ATOM     24  H   UNL     1     -11.714   8.530  21.807  0.00  0.00    +0.000 HD
ENDBRANCH  17  23
BRANCH   9  25
ATOM     25  O   UNL     1     -12.933   9.262  16.031  0.00  0.00    +0.000 OA
ATOM     26  H   UNL     1     -12.676   9.966  16.653  0.00  0.00    +0.000 HD
ENDBRANCH   9  25
BRANCH   8  27
ATOM     27  O   UNL     1     -11.534   3.592  19.229  0.00  0.00    +0.000 OA
ATOM     28  H   UNL     1     -11.358   3.675  18.275  0.00  0.00    +0.000 HD
ENDBRANCH   8  27
BRANCH  18  29
ATOM     29  O   UNL     1     -15.838   4.573  21.171  0.00  0.00    +0.000 OA
BRANCH  29  31
ATOM     30  O   UNL     1     -17.691   4.230  22.417  0.00  0.00    +0.000 OA
ATOM     31  C   UNL     1     -16.695   3.779  21.861  0.00  0.00    +0.000 C 
BRANCH  31  32
ATOM     32  C   UNL     1     -16.242   2.324  22.032  0.00  0.00    +0.000 C 
BRANCH  32  33
ATOM     33  O   UNL     1     -16.312   1.515  20.852  0.00  0.00    +0.000 OA
ATOM     34  H   UNL     1     -15.412   1.166  20.711  0.00  0.00    +0.000 HD
ENDBRANCH  32  33
BRANCH  32  35
ATOM     35  C   UNL     1     -17.043   1.695  23.203  0.00  0.00    +0.000 C 
BRANCH  35  36
ATOM     36  C   UNL     1     -16.142   1.133  24.296  0.00  0.00    +0.000 A 
ATOM     37  C   UNL     1     -14.760   1.027  24.069  0.00  0.00    +0.000 A 
ATOM     38  C   UNL     1     -16.646   0.747  25.550  0.00  0.00    +0.000 A 
ATOM     39  C   UNL     1     -13.910   0.526  25.058  0.00  0.00    +0.000 A 
ATOM     40  C   UNL     1     -15.794   0.245  26.536  0.00  0.00    +0.000 A 
ATOM     41  C   UNL     1     -14.428   0.132  26.289  0.00  0.00    +0.000 A 
ENDBRANCH  35  36
BRANCH  35  43
ATOM     42  O   UNL     1     -19.908   1.573  23.390  0.00  0.00    +0.000 OA
ATOM     43  N   UNL     1     -17.929   0.637  22.735  0.00  0.00    +0.000 N 
ATOM     44  C   UNL     1     -19.265   0.628  22.967  0.00  0.00    +0.000 C 
ATOM     45  H   UNL     1     -17.510  -0.252  22.497  0.00  0.00    +0.000 HD
BRANCH  44  46
ATOM     46  O   UNL     1     -19.754  -0.585  22.628  0.00  0.00    +0.000 OA
BRANCH  46  47
ATOM     47  C   UNL     1     -20.304  -1.471  23.636  0.00  0.00    +0.000 C 
ATOM     48  C   UNL     1     -21.820  -1.293  23.771  0.00  0.00    +0.000 C 
ATOM     49  C   UNL     1     -20.021  -2.885  23.106  0.00  0.00    +0.000 C 
ATOM     50  C   UNL     1     -19.585  -1.298  24.979  0.00  0.00    +0.000 C 
ENDBRANCH  46  47
ENDBRANCH  44  46
ENDBRANCH  35  43
ENDBRANCH  32  35
ENDBRANCH  31  32
ENDBRANCH  29  31
ENDBRANCH  18  29
BRANCH   7  51
ATOM     51  O   UNL     1     -14.477   5.367  18.693  0.00  0.00    +0.000 OA
BRANCH  51  53
ATOM     52  O   UNL     1     -14.362   3.627  17.698  0.00  0.00    +0.000 OA
ATOM     53  C   UNL     1     -15.215   4.281  18.290  0.00  0.00    +0.000 C 
BRANCH  53  54
ATOM     54  C   UNL     1     -17.123   4.169  18.423  0.00  0.00    +0.000 A 
ATOM     55  C   UNL     1     -18.013   5.274  18.781  0.00  0.00    +0.000 A 
ATOM     56  C   UNL     1     -17.956   3.063  18.071  0.00  0.00    +0.000 A 
ATOM     57  C   UNL     1     -19.431   5.268  18.788  0.00  0.00    +0.000 A 
ATOM     58  C   UNL     1     -19.381   3.037  18.071  0.00  0.00    +0.000 A 
ATOM     59  C   UNL     1     -20.121   4.138  18.429  0.00  0.00    +0.000 A 
ENDBRANCH  53  54
ENDBRANCH  51  53
ENDBRANCH   7  51
BRANCH   4  60
ATOM     60  O   UNL     1     -16.120   5.962  15.988  0.00  0.00    +0.000 OA
BRANCH  60  62
ATOM     61  O   UNL     1     -17.098   4.236  14.955  0.00  0.00    +0.000 OA
ATOM     62  C   UNL     1     -17.093   5.439  15.206  0.00  0.00    +0.000 C 
ATOM     63  C   UNL     1     -18.082   6.360  14.564  0.00  0.00    +0.000 C 
ENDBRANCH  60  62
ENDBRANCH   4  60
TORSDOF 17
ENDMDL
MODEL 8
REMARK VINA RESULT:      -5.1     13.275     16.925
REMARK  Name = 
REMARK  25 active torsions:
REMARK  status: ('A' for Active; 'I' for Inactive)
REMARK    1  A    between atoms: O_2  and  C_17
REMARK    2  A    between atoms: O_2  and  C_36
REMARK    3  A    between atoms: O_3  and  C_20
REMARK    4  A    between atoms: O_3  and  C_37
REMARK    5  A    between atoms: O_4  and  C_21
REMARK    6  A    between atoms: O_5  and  C_22
REMARK    7  A    between atoms: O_7  and  C_30
REMARK    8  A    between atoms: O_8  and  C_31
REMARK    9  A    between atoms: O_8  and  C_39
REMARK   10  A    between atoms: O_12  and  C_41
REMARK   11  A    between atoms: O_13  and  C_51
REMARK   12  A    between atoms: O_13  and  C_55
REMARK   13  A    between atoms: N_15  and  C_44
REMARK   14  A    between atoms: C_18  and  C_29
REMARK   15  A    between atoms: C_24  and  C_33
REMARK   16  A    between atoms: C_24  and  C_34
REMARK   17  A    between atoms: C_32  and  C_35
REMARK   18  A    between atoms: C_36  and  C_38
REMARK   19  A    between atoms: C_37  and  C_40
REMARK   20  A    between atoms: C_39  and  C_41
REMARK   21  A    between atoms: C_41  and  C_44
REMARK   22  A    between atoms: C_44  and  C_48
REMARK   23  A    between atoms: C_55  and  C_56
REMARK   24  A    between atoms: C_55  and  C_57
REMARK   25  A    between atoms: C_55  and  C_58
REMARK                            x       y       z     vdW  Elec       q    Type
REMARK                         _______ _______ _______ _____ _____    ______ ____
ROOT
ATOM      1  O   UNL     1      -9.808   4.806   2.789  0.00  0.00    +0.000 OA
ATOM      2  O   UNL     1     -13.665   8.672   6.704  0.00  0.00    +0.000 OA
ATOM      3  C   UNL     1     -10.322   8.016   3.921  0.00  0.00    +0.000 C 
ATOM      4  C   UNL     1      -9.522   6.689   3.769  0.00  0.00    +0.000 C 
ATOM      5  C   UNL     1     -11.470   7.802   5.417  0.00  0.00    +0.000 C 
ATOM      6  C   UNL     1     -10.740   5.766   3.356  0.00  0.00    +0.000 C 
ATOM      7  C   UNL     1      -9.238   9.518   3.710  0.00  0.00    +0.000 C 
ATOM      8  C   UNL     1      -9.302  11.410   3.765  0.00  0.00    +0.000 C 
ATOM      9  C   UNL     1     -12.401   6.586   5.006  0.00  0.00    +0.000 C 
ATOM     10  C   UNL     1     -11.656   5.323   4.477  0.00  0.00    +0.000 C 
ATOM     11  C   UNL     1     -10.594  12.457   4.386  0.00  0.00    +0.000 C 
ATOM     12  C   UNL     1      -8.954   5.977   2.477  0.00  0.00    +0.000 C 
ATOM     13  C   UNL     1     -12.596   9.088   6.207  0.00  0.00    +0.000 C 
ATOM     14  C   UNL     1      -8.102  11.845   4.726  0.00  0.00    +0.000 C 
ATOM     15  C   UNL     1     -10.996  12.071   5.886  0.00  0.00    +0.000 C 
ATOM     16  C   UNL     1     -10.703   7.257   6.694  0.00  0.00    +0.000 C 
ATOM     17  C   UNL     1     -12.327  10.981   6.366  0.00  0.00    +0.000 C 
ATOM     18  C   UNL     1      -8.442  12.148   6.257  0.00  0.00    +0.000 C 
ATOM     19  C   UNL     1      -9.933  12.210   6.747  0.00  0.00    +0.000 C 
ATOM     20  C   UNL     1     -10.005  13.956   4.433  0.00  0.00    +0.000 C 
ATOM     21  C   UNL     1     -11.799  12.815   3.459  0.00  0.00    +0.000 C 
ATOM     22  C   UNL     1     -10.093  12.156   8.246  0.00  0.00    +0.000 C 
ENDROOT
BRANCH  17  23
ATOM     23  O   UNL     1     -13.517  11.729   6.119  0.00  0.00    +0.000 OA
ATOM     24  H   UNL     1     -13.936  11.290   5.354  0.00  0.00    +0.000 HD
ENDBRANCH  17  23
BRANCH   9  25
ATOM     25  O   UNL     1     -13.278   7.015   3.964  0.00  0.00    +0.000 OA
ATOM     26  H   UNL     1     -13.347   6.279   3.329  0.00  0.00    +0.000 HD
ENDBRANCH   9  25
BRANCH   8  27
ATOM     27  O   UNL     1      -8.936  11.825   2.434  0.00  0.00    +0.000 OA
ATOM     28  H   UNL     1      -8.118  11.367   2.171  0.00  0.00    +0.000 HD
ENDBRANCH   8  27
BRANCH  18  29
ATOM     29  O   UNL     1      -7.777  11.134   7.064  0.00  0.00    +0.000 OA
BRANCH  29  31
ATOM     30  O   UNL     1      -6.380  12.444   8.263  0.00  0.00    +0.000 OA
ATOM     31  C   UNL     1      -6.561  11.438   7.585  0.00  0.00    +0.000 C 
BRANCH  31  32
ATOM     32  C   UNL     1      -5.412  10.532   7.128  0.00  0.00    +0.000 C 
BRANCH  32  33
ATOM     33  O   UNL     1      -5.428   9.202   7.660  0.00  0.00    +0.000 OA
ATOM     34  H   UNL     1      -4.932   8.652   7.025  0.00  0.00    +0.000 HD
ENDBRANCH  32  33
BRANCH  32  35
ATOM     35  C   UNL     1      -4.070  11.251   7.432  0.00  0.00    +0.000 C 
BRANCH  35  36
ATOM     36  C   UNL     1      -3.137  11.286   6.227  0.00  0.00    +0.000 A 
ATOM     37  C   UNL     1      -2.315  10.180   5.955  0.00  0.00    +0.000 A 
ATOM     38  C   UNL     1      -3.097  12.382   5.349  0.00  0.00    +0.000 A 
ATOM     39  C   UNL     1      -1.458  10.181   4.851  0.00  0.00    +0.000 A 
ATOM     40  C   UNL     1      -2.239  12.381   4.247  0.00  0.00    +0.000 A 
ATOM     41  C   UNL     1      -1.419  11.282   4.001  0.00  0.00    +0.000 A 
ENDBRANCH  35  36
BRANCH  35  43
ATOM     42  O   UNL     1      -3.128  12.493   9.846  0.00  0.00    +0.000 OA
ATOM     43  N   UNL     1      -3.372  10.627   8.548  0.00  0.00    +0.000 N 
ATOM     44  C   UNL     1      -2.874  11.326   9.599  0.00  0.00    +0.000 C 
ATOM     45  H   UNL     1      -2.984   9.705   8.400  0.00  0.00    +0.000 HD
BRANCH  44  46
ATOM     46  O   UNL     1      -2.084  10.507  10.326  0.00  0.00    +0.000 OA
BRANCH  46  47
ATOM     47  C   UNL     1      -0.640  10.644  10.287  0.00  0.00    +0.000 C 
ATOM     48  C   UNL     1      -0.134  11.553  11.412  0.00  0.00    +0.000 C 
ATOM     49  C   UNL     1      -0.108   9.223  10.528  0.00  0.00    +0.000 C 
ATOM     50  C   UNL     1      -0.165  11.119   8.910  0.00  0.00    +0.000 C 
ENDBRANCH  46  47
ENDBRANCH  44  46
ENDBRANCH  35  43
ENDBRANCH  32  35
ENDBRANCH  31  32
ENDBRANCH  29  31
ENDBRANCH  18  29
BRANCH   7  51
ATOM     51  O   UNL     1      -9.116   9.506   5.021  0.00  0.00    +0.000 OA
BRANCH  51  53
ATOM     52  O   UNL     1      -7.688   8.555   6.064  0.00  0.00    +0.000 OA
ATOM     53  C   UNL     1      -7.855   8.971   4.922  0.00  0.00    +0.000 C 
BRANCH  53  54
ATOM     54  C   UNL     1      -6.701   9.215   3.413  0.00  0.00    +0.000 A 
ATOM     55  C   UNL     1      -5.494  10.043   3.394  0.00  0.00    +0.000 A 
ATOM     56  C   UNL     1      -6.761   8.541   2.154  0.00  0.00    +0.000 A 
ATOM     57  C   UNL     1      -4.555  10.169   2.339  0.00  0.00    +0.000 A 
ATOM     58  C   UNL     1      -5.828   8.654   1.083  0.00  0.00    +0.000 A 
ATOM     59  C   UNL     1      -4.724   9.467   1.173  0.00  0.00    +0.000 A 
ENDBRANCH  53  54
ENDBRANCH  51  53
ENDBRANCH   7  51
BRANCH   4  60
ATOM     60  O   UNL     1      -8.867   6.295   4.998  0.00  0.00    +0.000 OA
BRANCH  60  62
ATOM     61  O   UNL     1      -6.795   5.802   4.312  0.00  0.00    +0.000 OA
ATOM     62  C   UNL     1      -7.741   5.545   5.053  0.00  0.00    +0.000 C 
ATOM     63  C   UNL     1      -7.716   4.339   5.938  0.00  0.00    +0.000 C 
ENDBRANCH  60  62
ENDBRANCH   4  60
TORSDOF 17
ENDMDL
MODEL 9
REMARK VINA RESULT:      -5.0      2.859      7.157
REMARK  Name = 
REMARK  25 active torsions:
REMARK  status: ('A' for Active; 'I' for Inactive)
REMARK    1  A    between atoms: O_2  and  C_17
REMARK    2  A    between atoms: O_2  and  C_36
REMARK    3  A    between atoms: O_3  and  C_20
REMARK    4  A    between atoms: O_3  and  C_37
REMARK    5  A    between atoms: O_4  and  C_21
REMARK    6  A    between atoms: O_5  and  C_22
REMARK    7  A    between atoms: O_7  and  C_30
REMARK    8  A    between atoms: O_8  and  C_31
REMARK    9  A    between atoms: O_8  and  C_39
REMARK   10  A    between atoms: O_12  and  C_41
REMARK   11  A    between atoms: O_13  and  C_51
REMARK   12  A    between atoms: O_13  and  C_55
REMARK   13  A    between atoms: N_15  and  C_44
REMARK   14  A    between atoms: C_18  and  C_29
REMARK   15  A    between atoms: C_24  and  C_33
REMARK   16  A    between atoms: C_24  and  C_34
REMARK   17  A    between atoms: C_32  and  C_35
REMARK   18  A    between atoms: C_36  and  C_38
REMARK   19  A    between atoms: C_37  and  C_40
REMARK   20  A    between atoms: C_39  and  C_41
REMARK   21  A    between atoms: C_41  and  C_44
REMARK   22  A    between atoms: C_44  and  C_48
REMARK   23  A    between atoms: C_55  and  C_56
REMARK   24  A    between atoms: C_55  and  C_57
REMARK   25  A    between atoms: C_55  and  C_58
REMARK                            x       y       z     vdW  Elec       q    Type
REMARK                         _______ _______ _______ _____ _____    ______ ____
ROOT
ATOM      1  O   UNL     1     -11.781   6.178  18.566  0.00  0.00    +0.000 OA
ATOM      2  O   UNL     1     -16.326   3.337  14.513  0.00  0.00    +0.000 OA
ATOM      3  C   UNL     1     -15.126   6.052  17.760  0.00  0.00    +0.000 C 
ATOM      4  C   UNL     1     -13.895   5.854  18.693  0.00  0.00    +0.000 C 
ATOM      5  C   UNL     1     -15.293   4.472  16.721  0.00  0.00    +0.000 C 
ATOM      6  C   UNL     1     -12.784   5.859  17.565  0.00  0.00    +0.000 C 
ATOM      7  C   UNL     1     -16.574   6.806  18.659  0.00  0.00    +0.000 C 
ATOM      8  C   UNL     1     -18.374   7.332  18.390  0.00  0.00    +0.000 C 
ATOM      9  C   UNL     1     -13.932   4.409  15.911  0.00  0.00    +0.000 C 
ATOM     10  C   UNL     1     -12.638   4.583  16.763  0.00  0.00    +0.000 C 
ATOM     11  C   UNL     1     -19.444   6.958  17.024  0.00  0.00    +0.000 C 
ATOM     12  C   UNL     1     -12.865   6.906  19.269  0.00  0.00    +0.000 C 
ATOM     13  C   UNL     1     -16.657   4.025  15.503  0.00  0.00    +0.000 C 
ATOM     14  C   UNL     1     -19.195   6.655  19.582  0.00  0.00    +0.000 C 
ATOM     15  C   UNL     1     -19.516   5.383  16.745  0.00  0.00    +0.000 C 
ATOM     16  C   UNL     1     -15.249   3.159  17.610  0.00  0.00    +0.000 C 
ATOM     17  C   UNL     1     -18.519   4.481  15.569  0.00  0.00    +0.000 C 
ATOM     18  C   UNL     1     -19.933   5.269  19.290  0.00  0.00    +0.000 C 
ATOM     19  C   UNL     1     -20.013   4.700  17.829  0.00  0.00    +0.000 C 
ATOM     20  C   UNL     1     -20.927   7.424  17.445  0.00  0.00    +0.000 C 
ATOM     21  C   UNL     1     -19.383   7.845  15.740  0.00  0.00    +0.000 C 
ATOM     22  C   UNL     1     -20.421   3.249  17.754  0.00  0.00    +0.000 C 
ENDROOT
BRANCH  17  23
ATOM     23  O   UNL     1     -19.043   4.846  14.292  0.00  0.00    +0.000 OA
ATOM     24  H   UNL     1     -20.012   4.819  14.400  0.00  0.00    +0.000 HD
ENDBRANCH  17  23
BRANCH   9  25
ATOM     25  O   UNL     1     -13.931   5.455  14.939  0.00  0.00    +0.000 OA
ATOM     26  H   UNL     1     -13.044   5.470  14.537  0.00  0.00    +0.000 HD
ENDBRANCH   9  25
BRANCH   8  27
ATOM     27  O   UNL     1     -18.379   8.751  18.638  0.00  0.00    +0.000 OA
ATOM     28  H   UNL     1     -17.769   9.186  18.015  0.00  0.00    +0.000 HD
ENDBRANCH   8  27
BRANCH  18  29
ATOM     29  O   UNL     1     -19.288   4.247  20.105  0.00  0.00    +0.000 OA
BRANCH  29  31
ATOM     30  O   UNL     1     -19.666   4.560  22.309  0.00  0.00    +0.000 OA
ATOM     31  C   UNL     1     -19.872   3.919  21.284  0.00  0.00    +0.000 C 
BRANCH  31  32
ATOM     32  C   UNL     1     -20.665   2.607  21.276  0.00  0.00    +0.000 C 
BRANCH  32  33
ATOM     33  O   UNL     1     -21.992   2.686  21.808  0.00  0.00    +0.000 OA
ATOM     34  H   UNL     1     -22.588   2.413  21.086  0.00  0.00    +0.000 HD
ENDBRANCH  32  33
BRANCH  32  35
ATOM     35  C   UNL     1     -19.825   1.522  22.002  0.00  0.00    +0.000 C 
BRANCH  35  36
ATOM     36  C   UNL     1     -19.629   0.268  21.157  0.00  0.00    +0.000 A 
ATOM     37  C   UNL     1     -19.327  -0.951  21.785  0.00  0.00    +0.000 A 
ATOM     38  C   UNL     1     -19.779   0.282  19.760  0.00  0.00    +0.000 A 
ATOM     39  C   UNL     1     -19.154  -2.117  21.035  0.00  0.00    +0.000 A 
ATOM     40  C   UNL     1     -19.605  -0.884  19.013  0.00  0.00    +0.000 A 
ATOM     41  C   UNL     1     -19.290  -2.083  19.650  0.00  0.00    +0.000 A 
ENDBRANCH  35  36
BRANCH  35  43
ATOM     42  O   UNL     1     -19.106   2.411  24.638  0.00  0.00    +0.000 OA
ATOM     43  N   UNL     1     -20.428   1.142  23.272  0.00  0.00    +0.000 N 
ATOM     44  C   UNL     1     -19.944   1.540  24.475  0.00  0.00    +0.000 C 
ATOM     45  H   UNL     1     -21.030   0.329  23.279  0.00  0.00    +0.000 HD
BRANCH  44  46
ATOM     46  O   UNL     1     -20.562   0.832  25.445  0.00  0.00    +0.000 OA
BRANCH  46  47
ATOM     47  C   UNL     1     -19.985  -0.402  25.944  0.00  0.00    +0.000 C 
ATOM     48  C   UNL     1     -18.480  -0.469  25.664  0.00  0.00    +0.000 C 
ATOM     49  C   UNL     1     -20.199  -0.345  27.464  0.00  0.00    +0.000 C 
ATOM     50  C   UNL     1     -20.725  -1.624  25.391  0.00  0.00    +0.000 C 
ENDBRANCH  46  47
ENDBRANCH  44  46
ENDBRANCH  35  43
ENDBRANCH  32  35
ENDBRANCH  31  32
ENDBRANCH  29  31
ENDBRANCH  18  29
BRANCH   7  51
ATOM     51  O   UNL     1     -16.987   5.570  18.849  0.00  0.00    +0.000 OA
BRANCH  51  53
ATOM     52  O   UNL     1     -16.330   6.818  20.278  0.00  0.00    +0.000 OA
ATOM     53  C   UNL     1     -16.652   5.638  20.179  0.00  0.00    +0.000 C 
BRANCH  53  54
ATOM     54  C   UNL     1     -16.477   4.110  21.322  0.00  0.00    +0.000 A 
ATOM     55  C   UNL     1     -16.463   2.717  20.877  0.00  0.00    +0.000 A 
ATOM     56  C   UNL     1     -16.206   4.101  22.725  0.00  0.00    +0.000 A 
ATOM     57  C   UNL     1     -16.229   1.564  21.669  0.00  0.00    +0.000 A 
ATOM     58  C   UNL     1     -15.969   2.954  23.538  0.00  0.00    +0.000 A 
ATOM     59  C   UNL     1     -15.980   1.685  23.012  0.00  0.00    +0.000 A 
ENDBRANCH  53  54
ENDBRANCH  51  53
ENDBRANCH   7  51
BRANCH   4  60
ATOM     60  O   UNL     1     -13.968   4.623  19.451  0.00  0.00    +0.000 OA
BRANCH  60  62
ATOM     61  O   UNL     1     -12.205   3.326  19.913  0.00  0.00    +0.000 OA
ATOM     62  C   UNL     1     -12.999   4.187  20.288  0.00  0.00    +0.000 C 
ATOM     63  C   UNL     1     -12.984   4.679  21.700  0.00  0.00    +0.000 C 
ENDBRANCH  60  62
ENDBRANCH   4  60
TORSDOF 17
ENDMDL
