MODEL 1
REMARK VINA RESULT:      -6.5      0.000      0.000
REMARK  Name = 
REMARK  13 active torsions:
REMARK  status: ('A' for Active; 'I' for Inactive)
REMARK    1  A    between atoms: O_1  and  C_13
REMARK    2  A    between atoms: O_1  and  C_19
REMARK    3  A    between atoms: O_3  and  C_14
REMARK    4  A    between atoms: O_4  and  C_22
REMARK    5  A    between atoms: O_5  and  C_24
REMARK    6  A    between atoms: O_6  and  C_26
REMARK    7  A    between atoms: O_8  and  C_30
REMARK    8  A    between atoms: O_11  and  C_35
REMARK    9  A    between atoms: O_11  and  C_39
REMARK   10  A    between atoms: N_12  and  C_21
REMARK   11  A    between atoms: C_14  and  C_25
REMARK   12  A    between atoms: C_23  and  C_29
REMARK   13  A    between atoms: C_25  and  C_30
REMARK                            x       y       z     vdW  Elec       q    Type
REMARK                         _______ _______ _______ _____ _____    ______ ____
ROOT
ATOM      1  O   UNL     1     -15.887 -14.562   7.731  0.00  0.00    +0.000 OA
ATOM      2  O   UNL     1     -13.992 -15.041  12.675  0.00  0.00    +0.000 OA
ATOM      3  C   UNL     1     -11.409 -16.959   7.015  0.00  0.00    +0.000 C 
ATOM      4  C   UNL     1      -9.493 -17.553   8.563  0.00  0.00    +0.000 C 
ATOM      5  C   UNL     1     -10.382 -18.023   7.404  0.00  0.00    +0.000 C 
ATOM      6  C   UNL     1     -10.341 -17.229   9.801  0.00  0.00    +0.000 C 
ATOM      7  C   UNL     1     -12.202 -16.475   8.213  0.00  0.00    +0.000 A 
ATOM      8  C   UNL     1     -11.680 -16.571   9.518  0.00  0.00    +0.000 A 
ATOM      9  C   UNL     1     -13.459 -15.869   8.027  0.00  0.00    +0.000 A 
ATOM     10  C   UNL     1     -12.438 -16.083  10.597  0.00  0.00    +0.000 A 
ATOM     11  C   UNL     1     -14.207 -15.372   9.112  0.00  0.00    +0.000 A 
ATOM     12  C   UNL     1     -13.693 -15.483  10.399  0.00  0.00    +0.000 A 
ATOM     13  C   UNL     1     -15.520 -14.726   8.890  0.00  0.00    +0.000 C 
ATOM     14  C   UNL     1     -14.467 -14.971  11.545  0.00  0.00    +0.000 C 
ATOM     15  C   UNL     1     -16.333 -14.274  10.045  0.00  0.00    +0.000 A 
ATOM     16  C   UNL     1     -15.804 -14.388  11.332  0.00  0.00    +0.000 A 
ATOM     17  C   UNL     1     -17.615 -13.725   9.891  0.00  0.00    +0.000 A 
ATOM     18  C   UNL     1     -16.539 -13.959  12.448  0.00  0.00    +0.000 A 
ATOM     19  C   UNL     1     -18.358 -13.322  11.008  0.00  0.00    +0.000 A 
ATOM     20  C   UNL     1     -17.815 -13.428  12.285  0.00  0.00    +0.000 A 
ENDROOT
BRANCH   4  21
ATOM     21  O   UNL     1      -8.729 -16.404   8.177  0.00  0.00    +0.000 OA
ATOM     22  H   UNL     1      -9.130 -16.054   7.353  0.00  0.00    +0.000 HD
ENDBRANCH   4  21
BRANCH   9  23
ATOM     23  O   UNL     1     -13.923 -15.784   6.736  0.00  0.00    +0.000 OA
ATOM     24  H   UNL     1     -13.193 -16.032   6.121  0.00  0.00    +0.000 HD
ENDBRANCH   9  23
BRANCH  10  25
ATOM     25  O   UNL     1     -11.892 -16.228  11.849  0.00  0.00    +0.000 OA
ATOM     26  H   UNL     1     -11.282 -17.000  11.843  0.00  0.00    +0.000 HD
ENDBRANCH  10  25
BRANCH   4  28
ATOM     27  O   UNL     1      -8.512 -19.249  10.018  0.00  0.00    +0.000 OA
ATOM     28  C   UNL     1      -8.489 -18.659   8.931  0.00  0.00    +0.000 C 
BRANCH  28  29
ATOM     29  C   UNL     1      -7.419 -19.004   7.898  0.00  0.00    +0.000 C 
BRANCH  29  30
ATOM     30  O   UNL     1      -6.111 -18.868   8.442  0.00  0.00    +0.000 OA
ATOM     31  H   UNL     1      -5.643 -19.703   8.236  0.00  0.00    +0.000 HD
ENDBRANCH  29  30
ENDBRANCH  28  29
ENDBRANCH   4  28
BRANCH  17  32
ATOM     32  O   UNL     1     -18.236 -13.658   8.672  0.00  0.00    +0.000 OA
ATOM     33  C   UNL     1     -19.393 -14.497   8.649  0.00  0.00    +0.000 C 
ENDBRANCH  17  32
BRANCH   3  34
ATOM     34  O   UNL     1     -10.713 -15.810   6.503  0.00  0.00    +0.000 OA
BRANCH  34  36
ATOM     35  O   UNL     1      -8.952 -15.204   5.061  0.00  0.00    +0.000 OA
ATOM     36  C   UNL     1     -10.059 -16.081   5.260  0.00  0.00    +0.000 C 
ATOM     37  C   UNL     1     -11.081 -15.988   4.125  0.00  0.00    +0.000 C 
ATOM     38  C   UNL     1     -11.518 -14.539   3.898  0.00  0.00    +0.000 C 
ATOM     39  C   UNL     1     -10.276 -13.652   3.682  0.00  0.00    +0.000 C 
ATOM     40  C   UNL     1      -9.321 -13.832   4.877  0.00  0.00    +0.000 C 
ATOM     41  C   UNL     1      -8.026 -13.042   4.715  0.00  0.00    +0.000 C 
BRANCH  38  42
ATOM     42  N   UNL     1     -12.428 -14.445   2.742  0.00  0.00    +0.000 NA
ATOM     43  H   UNL     1     -13.309 -14.909   2.953  0.00  0.00    +0.000 HD
ATOM     44  H   UNL     1     -11.999 -14.983   1.981  0.00  0.00    +0.000 HD
ENDBRANCH  38  42
BRANCH  39  45
ATOM     45  O   UNL     1      -9.654 -14.039   2.442  0.00  0.00    +0.000 OA
ATOM     46  H   UNL     1      -9.221 -13.251   2.074  0.00  0.00    +0.000 HD
ENDBRANCH  39  45
ENDBRANCH  34  36
ENDBRANCH   3  34
TORSDOF 11
ENDMDL
MODEL 2
REMARK VINA RESULT:      -6.5     16.888     20.698
REMARK  Name = 
REMARK  13 active torsions:
REMARK  status: ('A' for Active; 'I' for Inactive)
REMARK    1  A    between atoms: O_1  and  C_13
REMARK    2  A    between atoms: O_1  and  C_19
REMARK    3  A    between atoms: O_3  and  C_14
REMARK    4  A    between atoms: O_4  and  C_22
REMARK    5  A    between atoms: O_5  and  C_24
REMARK    6  A    between atoms: O_6  and  C_26
REMARK    7  A    between atoms: O_8  and  C_30
REMARK    8  A    between atoms: O_11  and  C_35
REMARK    9  A    between atoms: O_11  and  C_39
REMARK   10  A    between atoms: N_12  and  C_21
REMARK   11  A    between atoms: C_14  and  C_25
REMARK   12  A    between atoms: C_23  and  C_29
REMARK   13  A    between atoms: C_25  and  C_30
REMARK                            x       y       z     vdW  Elec       q    Type
REMARK                         _______ _______ _______ _____ _____    ______ ____
ROOT
ATOM      1  O   UNL     1       1.098  -5.047  -4.593  0.00  0.00    +0.000 OA
ATOM      2  O   UNL     1      -1.562  -8.709  -1.804  0.00  0.00    +0.000 OA
ATOM      3  C   UNL     1      -2.707  -2.336  -2.475  0.00  0.00    +0.000 C 
ATOM      4  C   UNL     1      -4.747  -2.978  -1.116  0.00  0.00    +0.000 C 
ATOM      5  C   UNL     1      -3.595  -1.979  -1.282  0.00  0.00    +0.000 C 
ATOM      6  C   UNL     1      -4.206  -4.400  -0.903  0.00  0.00    +0.000 C 
ATOM      7  C   UNL     1      -2.239  -3.777  -2.419  0.00  0.00    +0.000 A 
ATOM      8  C   UNL     1      -2.968  -4.751  -1.709  0.00  0.00    +0.000 A 
ATOM      9  C   UNL     1      -1.090  -4.172  -3.130  0.00  0.00    +0.000 A 
ATOM     10  C   UNL     1      -2.512  -6.082  -1.708  0.00  0.00    +0.000 A 
ATOM     11  C   UNL     1      -0.647  -5.509  -3.133  0.00  0.00    +0.000 A 
ATOM     12  C   UNL     1      -1.361  -6.463  -2.418  0.00  0.00    +0.000 A 
ATOM     13  C   UNL     1       0.557  -5.903  -3.899  0.00  0.00    +0.000 C 
ATOM     14  C   UNL     1      -0.907  -7.866  -2.409  0.00  0.00    +0.000 C 
ATOM     15  C   UNL     1       1.058  -7.297  -3.835  0.00  0.00    +0.000 A 
ATOM     16  C   UNL     1       0.329  -8.246  -3.116  0.00  0.00    +0.000 A 
ATOM     17  C   UNL     1       2.236  -7.702  -4.481  0.00  0.00    +0.000 A 
ATOM     18  C   UNL     1       0.765  -9.579  -3.044  0.00  0.00    +0.000 A 
ATOM     19  C   UNL     1       2.683  -9.025  -4.386  0.00  0.00    +0.000 A 
ATOM     20  C   UNL     1       1.942  -9.966  -3.678  0.00  0.00    +0.000 A 
ENDROOT
BRANCH   4  21
ATOM     21  O   UNL     1      -5.609  -2.948  -2.260  0.00  0.00    +0.000 OA
ATOM     22  H   UNL     1      -5.545  -3.826  -2.693  0.00  0.00    +0.000 HD
ENDBRANCH   4  21
BRANCH   9  23
ATOM     23  O   UNL     1      -0.418  -3.191  -3.820  0.00  0.00    +0.000 OA
ATOM     24  H   UNL     1      -0.389  -2.377  -3.264  0.00  0.00    +0.000 HD
ENDBRANCH   9  23
BRANCH  10  25
ATOM     25  O   UNL     1      -3.246  -6.984  -0.977  0.00  0.00    +0.000 OA
ATOM     26  H   UNL     1      -3.957  -7.353  -1.548  0.00  0.00    +0.000 HD
ENDBRANCH  10  25
BRANCH   4  28
ATOM     27  O   UNL     1      -5.415  -3.068   1.229  0.00  0.00    +0.000 OA
ATOM     28  C   UNL     1      -5.601  -2.591   0.103  0.00  0.00    +0.000 C 
BRANCH  28  29
ATOM     29  C   UNL     1      -6.731  -1.589  -0.124  0.00  0.00    +0.000 C 
BRANCH  29  30
ATOM     30  O   UNL     1      -7.998  -2.235  -0.147  0.00  0.00    +0.000 OA
ATOM     31  H   UNL     1      -8.667  -1.521  -0.111  0.00  0.00    +0.000 HD
ENDBRANCH  29  30
ENDBRANCH  28  29
ENDBRANCH   4  28
BRANCH  17  32
ATOM     32  O   UNL     1       3.049  -6.814  -5.134  0.00  0.00    +0.000 OA
ATOM     33  C   UNL     1       4.402  -6.953  -4.694  0.00  0.00    +0.000 C 
ENDBRANCH  17  32
BRANCH   3  34
ATOM     34  O   UNL     1      -3.481  -2.211  -3.680  0.00  0.00    +0.000 OA
BRANCH  34  36
ATOM     35  O   UNL     1      -4.589  -0.753  -5.161  0.00  0.00    +0.000 OA
ATOM     36  C   UNL     1      -3.736  -0.846  -4.022  0.00  0.00    +0.000 C 
ATOM     37  C   UNL     1      -2.404  -0.125  -4.238  0.00  0.00    +0.000 C 
ATOM     38  C   UNL     1      -1.720  -0.608  -5.520  0.00  0.00    +0.000 C 
ATOM     39  C   UNL     1      -2.693  -0.472  -6.708  0.00  0.00    +0.000 C 
ATOM     40  C   UNL     1      -3.994  -1.227  -6.376  0.00  0.00    +0.000 C 
ATOM     41  C   UNL     1      -5.047  -1.088  -7.470  0.00  0.00    +0.000 C 
BRANCH  38  42
ATOM     42  N   UNL     1      -0.486   0.158  -5.772  0.00  0.00    +0.000 NA
ATOM     43  H   UNL     1      -0.649   0.851  -6.501  0.00  0.00    +0.000 HD
ATOM     44  H   UNL     1       0.199  -0.502  -6.157  0.00  0.00    +0.000 HD
ENDBRANCH  38  42
BRANCH  39  45
ATOM     45  O   UNL     1      -2.935   0.929  -6.935  0.00  0.00    +0.000 OA
ATOM     46  H   UNL     1      -3.692   1.188  -6.383  0.00  0.00    +0.000 HD
ENDBRANCH  39  45
ENDBRANCH  34  36
ENDBRANCH   3  34
TORSDOF 11
ENDMDL
MODEL 3
REMARK VINA RESULT:      -6.1     17.370     21.566
REMARK  Name = 
REMARK  13 active torsions:
REMARK  status: ('A' for Active; 'I' for Inactive)
REMARK    1  A    between atoms: O_1  and  C_13
REMARK    2  A    between atoms: O_1  and  C_19
REMARK    3  A    between atoms: O_3  and  C_14
REMARK    4  A    between atoms: O_4  and  C_22
REMARK    5  A    between atoms: O_5  and  C_24
REMARK    6  A    between atoms: O_6  and  C_26
REMARK    7  A    between atoms: O_8  and  C_30
REMARK    8  A    between atoms: O_11  and  C_35
REMARK    9  A    between atoms: O_11  and  C_39
REMARK   10  A    between atoms: N_12  and  C_21
REMARK   11  A    between atoms: C_14  and  C_25
REMARK   12  A    between atoms: C_23  and  C_29
REMARK   13  A    between atoms: C_25  and  C_30
REMARK                            x       y       z     vdW  Elec       q    Type
REMARK                         _______ _______ _______ _____ _____    ______ ____
ROOT
ATOM      1  O   UNL     1       8.777  -8.102   9.785  0.00  0.00    +0.000 OA
ATOM      2  O   UNL     1       4.768  -6.679  12.974  0.00  0.00    +0.000 OA
ATOM      3  C   UNL     1       6.808 -12.611  11.235  0.00  0.00    +0.000 C 
ATOM      4  C   UNL     1       5.017 -13.266  12.904  0.00  0.00    +0.000 C 
ATOM      5  C   UNL     1       5.613 -13.524  11.514  0.00  0.00    +0.000 C 
ATOM      6  C   UNL     1       4.549 -11.809  13.032  0.00  0.00    +0.000 C 
ATOM      7  C   UNL     1       6.472 -11.152  11.475  0.00  0.00    +0.000 A 
ATOM      8  C   UNL     1       5.433 -10.780  12.350  0.00  0.00    +0.000 A 
ATOM      9  C   UNL     1       7.240 -10.144  10.864  0.00  0.00    +0.000 A 
ATOM     10  C   UNL     1       5.175  -9.414  12.565  0.00  0.00    +0.000 A 
ATOM     11  C   UNL     1       6.983  -8.778  11.094  0.00  0.00    +0.000 A 
ATOM     12  C   UNL     1       5.946  -8.416  11.946  0.00  0.00    +0.000 A 
ATOM     13  C   UNL     1       7.813  -7.736  10.450  0.00  0.00    +0.000 C 
ATOM     14  C   UNL     1       5.663  -6.990  12.194  0.00  0.00    +0.000 C 
ATOM     15  C   UNL     1       7.487  -6.302  10.639  0.00  0.00    +0.000 A 
ATOM     16  C   UNL     1       6.446  -5.951  11.501  0.00  0.00    +0.000 A 
ATOM     17  C   UNL     1       8.196  -5.278   9.991  0.00  0.00    +0.000 A 
ATOM     18  C   UNL     1       6.117  -4.603  11.715  0.00  0.00    +0.000 A 
ATOM     19  C   UNL     1       7.850  -3.936  10.185  0.00  0.00    +0.000 A 
ATOM     20  C   UNL     1       6.818  -3.598  11.056  0.00  0.00    +0.000 A 
ENDROOT
BRANCH   4  21
ATOM     21  O   UNL     1       5.976 -13.565  13.926  0.00  0.00    +0.000 OA
ATOM     22  H   UNL     1       5.506 -13.511  14.786  0.00  0.00    +0.000 HD
ENDBRANCH   4  21
BRANCH   9  23
ATOM     23  O   UNL     1       8.253 -10.553  10.029  0.00  0.00    +0.000 OA
ATOM     24  H   UNL     1       9.116 -10.412  10.486  0.00  0.00    +0.000 HD
ENDBRANCH   9  23
BRANCH  10  25
ATOM     25  O   UNL     1       4.133  -9.109  13.406  0.00  0.00    +0.000 OA
ATOM     26  H   UNL     1       3.625  -8.357  13.024  0.00  0.00    +0.000 HD
ENDBRANCH  10  25
BRANCH   4  28
ATOM     27  O   UNL     1       2.889 -13.910  13.910  0.00  0.00    +0.000 OA
ATOM     28  C   UNL     1       3.809 -14.191  13.133  0.00  0.00    +0.000 C 
BRANCH  28  29
ATOM     29  C   UNL     1       3.787 -15.513  12.370  0.00  0.00    +0.000 C 
BRANCH  29  30
ATOM     30  O   UNL     1       2.720 -15.550  11.430  0.00  0.00    +0.000 OA
ATOM     31  H   UNL     1       3.077 -15.175  10.599  0.00  0.00    +0.000 HD
ENDBRANCH  29  30
ENDBRANCH  28  29
ENDBRANCH   4  28
BRANCH  17  32
ATOM     32  O   UNL     1       9.173  -5.543   9.068  0.00  0.00    +0.000 OA
ATOM     33  C   UNL     1       9.473  -4.374   8.303  0.00  0.00    +0.000 C 
ENDBRANCH  17  32
BRANCH   3  34
ATOM     34  O   UNL     1       7.863 -12.938  12.155  0.00  0.00    +0.000 OA
BRANCH  34  36
ATOM     35  O   UNL     1       8.819 -15.074  11.891  0.00  0.00    +0.000 OA
ATOM     36  C   UNL     1       8.907 -13.696  11.537  0.00  0.00    +0.000 C 
ATOM     37  C   UNL     1      10.259 -13.088  11.915  0.00  0.00    +0.000 C 
ATOM     38  C   UNL     1      10.577 -13.332  13.392  0.00  0.00    +0.000 C 
ATOM     39  C   UNL     1      10.472 -14.839  13.702  0.00  0.00    +0.000 C 
ATOM     40  C   UNL     1       9.078 -15.339  13.276  0.00  0.00    +0.000 C 
ATOM     41  C   UNL     1       8.908 -16.841  13.481  0.00  0.00    +0.000 C 
BRANCH  38  42
ATOM     42  N   UNL     1      11.922 -12.829  13.726  0.00  0.00    +0.000 NA
ATOM     43  H   UNL     1      12.277 -12.251  12.966  0.00  0.00    +0.000 HD
ATOM     44  H   UNL     1      12.541 -13.645  13.773  0.00  0.00    +0.000 HD
ENDBRANCH  38  42
BRANCH  39  45
ATOM     45  O   UNL     1      11.521 -15.521  12.990  0.00  0.00    +0.000 OA
ATOM     46  H   UNL     1      11.167 -16.376  12.696  0.00  0.00    +0.000 HD
ENDBRANCH  39  45
ENDBRANCH  34  36
ENDBRANCH   3  34
TORSDOF 11
ENDMDL
MODEL 4
REMARK VINA RESULT:      -6.1     17.869     22.922
REMARK  Name = 
REMARK  13 active torsions:
REMARK  status: ('A' for Active; 'I' for Inactive)
REMARK    1  A    between atoms: O_1  and  C_13
REMARK    2  A    between atoms: O_1  and  C_19
REMARK    3  A    between atoms: O_3  and  C_14
REMARK    4  A    between atoms: O_4  and  C_22
REMARK    5  A    between atoms: O_5  and  C_24
REMARK    6  A    between atoms: O_6  and  C_26
REMARK    7  A    between atoms: O_8  and  C_30
REMARK    8  A    between atoms: O_11  and  C_35
REMARK    9  A    between atoms: O_11  and  C_39
REMARK   10  A    between atoms: N_12  and  C_21
REMARK   11  A    between atoms: C_14  and  C_25
REMARK   12  A    between atoms: C_23  and  C_29
REMARK   13  A    between atoms: C_25  and  C_30
REMARK                            x       y       z     vdW  Elec       q    Type
REMARK                         _______ _______ _______ _____ _____    ______ ____
ROOT
ATOM      1  O   UNL     1       9.313 -13.816  11.964  0.00  0.00    +0.000 OA
ATOM      2  O   UNL     1      12.502  -9.596  11.423  0.00  0.00    +0.000 OA
ATOM      3  C   UNL     1       6.010  -9.983  11.122  0.00  0.00    +0.000 C 
ATOM      4  C   UNL     1       6.281  -7.471  10.926  0.00  0.00    +0.000 C 
ATOM      5  C   UNL     1       5.586  -8.720  10.370  0.00  0.00    +0.000 C 
ATOM      6  C   UNL     1       7.807  -7.605  10.817  0.00  0.00    +0.000 C 
ATOM      7  C   UNL     1       7.518 -10.122  11.186  0.00  0.00    +0.000 A 
ATOM      8  C   UNL     1       8.357  -8.996  11.079  0.00  0.00    +0.000 A 
ATOM      9  C   UNL     1       8.100 -11.384  11.411  0.00  0.00    +0.000 A 
ATOM     10  C   UNL     1       9.750  -9.168  11.173  0.00  0.00    +0.000 A 
ATOM     11  C   UNL     1       9.495 -11.546  11.515  0.00  0.00    +0.000 A 
ATOM     12  C   UNL     1      10.319 -10.433  11.393  0.00  0.00    +0.000 A 
ATOM     13  C   UNL     1      10.083 -12.881  11.766  0.00  0.00    +0.000 C 
ATOM     14  C   UNL     1      11.782 -10.588  11.497  0.00  0.00    +0.000 C 
ATOM     15  C   UNL     1      11.555 -13.053  11.799  0.00  0.00    +0.000 A 
ATOM     16  C   UNL     1      12.372 -11.926  11.679  0.00  0.00    +0.000 A 
ATOM     17  C   UNL     1      12.161 -14.309  11.957  0.00  0.00    +0.000 A 
ATOM     18  C   UNL     1      13.770 -12.049  11.719  0.00  0.00    +0.000 A 
ATOM     19  C   UNL     1      13.555 -14.432  11.971  0.00  0.00    +0.000 A 
ATOM     20  C   UNL     1      14.359 -13.301  11.863  0.00  0.00    +0.000 A 
ENDROOT
BRANCH   4  21
ATOM     21  O   UNL     1       5.904  -7.250  12.291  0.00  0.00    +0.000 OA
ATOM     22  H   UNL     1       6.731  -7.103  12.798  0.00  0.00    +0.000 HD
ENDBRANCH   4  21
BRANCH   9  23
ATOM     23  O   UNL     1       7.242 -12.453  11.523  0.00  0.00    +0.000 OA
ATOM     24  H   UNL     1       6.643 -12.297  12.291  0.00  0.00    +0.000 HD
ENDBRANCH   9  23
BRANCH  10  25
ATOM     25  O   UNL     1      10.521  -8.039  11.034  0.00  0.00    +0.000 OA
ATOM     26  H   UNL     1      10.785  -7.722  11.927  0.00  0.00    +0.000 HD
ENDBRANCH  10  25
BRANCH   4  28
ATOM     27  O   UNL     1       5.946  -5.080  10.570  0.00  0.00    +0.000 OA
ATOM     28  C   UNL     1       5.839  -6.231  10.130  0.00  0.00    +0.000 C 
BRANCH  28  29
ATOM     29  C   UNL     1       5.228  -6.467   8.751  0.00  0.00    +0.000 C 
BRANCH  29  30
ATOM     30  O   UNL     1       4.752  -5.253   8.181  0.00  0.00    +0.000 OA
ATOM     31  H   UNL     1       4.688  -5.413   7.217  0.00  0.00    +0.000 HD
ENDBRANCH  29  30
ENDBRANCH  28  29
ENDBRANCH   4  28
BRANCH  17  32
ATOM     32  O   UNL     1      11.432 -15.467  11.997  0.00  0.00    +0.000 OA
ATOM     33  C   UNL     1      12.184 -16.514  12.616  0.00  0.00    +0.000 C 
ENDBRANCH  17  32
BRANCH   3  34
ATOM     34  O   UNL     1       5.557  -9.883  12.483  0.00  0.00    +0.000 OA
BRANCH  34  36
ATOM     35  O   UNL     1       3.757 -10.215  13.965  0.00  0.00    +0.000 OA
ATOM     36  C   UNL     1       4.144 -10.069  12.600  0.00  0.00    +0.000 C 
ATOM     37  C   UNL     1       3.724 -11.270  11.749  0.00  0.00    +0.000 C 
ATOM     38  C   UNL     1       4.227 -12.579  12.361  0.00  0.00    +0.000 C 
ATOM     39  C   UNL     1       3.767 -12.674  13.830  0.00  0.00    +0.000 C 
ATOM     40  C   UNL     1       4.238 -11.415  14.583  0.00  0.00    +0.000 C 
ATOM     41  C   UNL     1       3.764 -11.389  16.032  0.00  0.00    +0.000 C 
BRANCH  38  42
ATOM     42  N   UNL     1       3.738 -13.737  11.591  0.00  0.00    +0.000 NA
ATOM     43  H   UNL     1       3.502 -14.501  12.221  0.00  0.00    +0.000 HD
ATOM     44  H   UNL     1       4.526 -14.071  11.025  0.00  0.00    +0.000 HD
ENDBRANCH  38  42
BRANCH  39  45
ATOM     45  O   UNL     1       2.332 -12.797  13.846  0.00  0.00    +0.000 OA
ATOM     46  H   UNL     1       1.965 -11.911  13.998  0.00  0.00    +0.000 HD
ENDBRANCH  39  45
ENDBRANCH  34  36
ENDBRANCH   3  34
TORSDOF 11
ENDMDL
MODEL 5
REMARK VINA RESULT:      -5.9     21.472     24.735
REMARK  Name = 
REMARK  13 active torsions:
REMARK  status: ('A' for Active; 'I' for Inactive)
REMARK    1  A    between atoms: O_1  and  C_13
REMARK    2  A    between atoms: O_1  and  C_19
REMARK    3  A    between atoms: O_3  and  C_14
REMARK    4  A    between atoms: O_4  and  C_22
REMARK    5  A    between atoms: O_5  and  C_24
REMARK    6  A    between atoms: O_6  and  C_26
REMARK    7  A    between atoms: O_8  and  C_30
REMARK    8  A    between atoms: O_11  and  C_35
REMARK    9  A    between atoms: O_11  and  C_39
REMARK   10  A    between atoms: N_12  and  C_21
REMARK   11  A    between atoms: C_14  and  C_25
REMARK   12  A    between atoms: C_23  and  C_29
REMARK   13  A    between atoms: C_25  and  C_30
REMARK                            x       y       z     vdW  Elec       q    Type
REMARK                         _______ _______ _______ _____ _____    ______ ____
ROOT
ATOM      1  O   UNL     1      12.690 -10.253  11.177  0.00  0.00    +0.000 OA
ATOM      2  O   UNL     1       7.708 -12.108  11.258  0.00  0.00    +0.000 OA
ATOM      3  C   UNL     1       9.886  -6.052  10.279  0.00  0.00    +0.000 C 
ATOM      4  C   UNL     1       7.415  -5.671   9.867  0.00  0.00    +0.000 C 
ATOM      5  C   UNL     1       8.679  -5.159  10.570  0.00  0.00    +0.000 C 
ATOM      6  C   UNL     1       7.079  -7.098  10.325  0.00  0.00    +0.000 C 
ATOM      7  C   UNL     1       9.594  -7.511  10.571  0.00  0.00    +0.000 A 
ATOM      8  C   UNL     1       8.275  -8.005  10.555  0.00  0.00    +0.000 A 
ATOM      9  C   UNL     1      10.653  -8.407  10.810  0.00  0.00    +0.000 A 
ATOM     10  C   UNL     1       8.052  -9.371  10.804  0.00  0.00    +0.000 A 
ATOM     11  C   UNL     1      10.422  -9.776  11.047  0.00  0.00    +0.000 A 
ATOM     12  C   UNL     1       9.117 -10.255  11.045  0.00  0.00    +0.000 A 
ATOM     13  C   UNL     1      11.553 -10.702  11.281  0.00  0.00    +0.000 C 
ATOM     14  C   UNL     1       8.860 -11.686  11.295  0.00  0.00    +0.000 C 
ATOM     15  C   UNL     1      11.295 -12.125  11.604  0.00  0.00    +0.000 A 
ATOM     16  C   UNL     1       9.980 -12.595  11.595  0.00  0.00    +0.000 A 
ATOM     17  C   UNL     1      12.328 -13.025  11.909  0.00  0.00    +0.000 A 
ATOM     18  C   UNL     1       9.699 -13.940  11.883  0.00  0.00    +0.000 A 
ATOM     19  C   UNL     1      12.043 -14.360  12.221  0.00  0.00    +0.000 A 
ATOM     20  C   UNL     1      10.730 -14.820  12.197  0.00  0.00    +0.000 A 
ENDROOT
BRANCH   4  21
ATOM     21  O   UNL     1       7.583  -5.639   8.444  0.00  0.00    +0.000 OA
ATOM     22  H   UNL     1       8.299  -6.272   8.224  0.00  0.00    +0.000 HD
ENDBRANCH   4  21
BRANCH   9  23
ATOM     23  O   UNL     1      11.924  -7.883  10.803  0.00  0.00    +0.000 OA
ATOM     24  H   UNL     1      12.043  -7.355   9.978  0.00  0.00    +0.000 HD
ENDBRANCH   9  23
BRANCH  10  25
ATOM     25  O   UNL     1       6.745  -9.792  10.803  0.00  0.00    +0.000 OA
ATOM     26  H   UNL     1       6.171  -9.050  10.503  0.00  0.00    +0.000 HD
ENDBRANCH  10  25
BRANCH   4  28
ATOM     27  O   UNL     1       5.860  -4.531  11.361  0.00  0.00    +0.000 OA
ATOM     28  C   UNL     1       6.226  -4.755  10.201  0.00  0.00    +0.000 C 
BRANCH  28  29
ATOM     29  C   UNL     1       5.474  -4.129   9.029  0.00  0.00    +0.000 C 
BRANCH  29  30
ATOM     30  O   UNL     1       4.774  -5.114   8.278  0.00  0.00    +0.000 OA
ATOM     31  H   UNL     1       5.418  -5.473   7.635  0.00  0.00    +0.000 HD
ENDBRANCH  29  30
ENDBRANCH  28  29
ENDBRANCH   4  28
BRANCH  17  32
ATOM     32  O   UNL     1      13.632 -12.623  12.020  0.00  0.00    +0.000 OA
ATOM     33  C   UNL     1      14.513 -13.624  11.506  0.00  0.00    +0.000 C 
ENDBRANCH  17  32
BRANCH   3  34
ATOM     34  O   UNL     1      10.189  -5.976   8.875  0.00  0.00    +0.000 OA
BRANCH  34  36
ATOM     35  O   UNL     1      10.670  -4.314   7.278  0.00  0.00    +0.000 OA
ATOM     36  C   UNL     1      11.007  -4.847   8.556  0.00  0.00    +0.000 C 
ATOM     37  C   UNL     1      12.480  -5.255   8.642  0.00  0.00    +0.000 C 
ATOM     38  C   UNL     1      12.855  -6.201   7.498  0.00  0.00    +0.000 C 
ATOM     39  C   UNL     1      12.471  -5.559   6.150  0.00  0.00    +0.000 C 
ATOM     40  C   UNL     1      10.977  -5.185   6.182  0.00  0.00    +0.000 C 
ATOM     41  C   UNL     1      10.523  -4.477   4.911  0.00  0.00    +0.000 C 
BRANCH  38  42
ATOM     42  N   UNL     1      14.295  -6.513   7.531  0.00  0.00    +0.000 NA
ATOM     43  H   UNL     1      14.739  -6.030   8.310  0.00  0.00    +0.000 HD
ATOM     44  H   UNL     1      14.705  -6.113   6.679  0.00  0.00    +0.000 HD
ENDBRANCH  38  42
BRANCH  39  45
ATOM     45  O   UNL     1      13.303  -4.401   5.948  0.00  0.00    +0.000 OA
ATOM     46  H   UNL     1      13.177  -3.814   6.711  0.00  0.00    +0.000 HD
ENDBRANCH  39  45
ENDBRANCH  34  36
ENDBRANCH   3  34
TORSDOF 11
ENDMDL
MODEL 6
REMARK VINA RESULT:      -5.8     23.890     27.381
REMARK  Name = 
REMARK  13 active torsions:
REMARK  status: ('A' for Active; 'I' for Inactive)
REMARK    1  A    between atoms: O_1  and  C_13
REMARK    2  A    between atoms: O_1  and  C_19
REMARK    3  A    between atoms: O_3  and  C_14
REMARK    4  A    between atoms: O_4  and  C_22
REMARK    5  A    between atoms: O_5  and  C_24
REMARK    6  A    between atoms: O_6  and  C_26
REMARK    7  A    between atoms: O_8  and  C_30
REMARK    8  A    between atoms: O_11  and  C_35
REMARK    9  A    between atoms: O_11  and  C_39
REMARK   10  A    between atoms: N_12  and  C_21
REMARK   11  A    between atoms: C_14  and  C_25
REMARK   12  A    between atoms: C_23  and  C_29
REMARK   13  A    between atoms: C_25  and  C_30
REMARK                            x       y       z     vdW  Elec       q    Type
REMARK                         _______ _______ _______ _____ _____    ______ ____
ROOT
ATOM      1  O   UNL     1      -6.487   7.963   6.853  0.00  0.00    +0.000 OA
ATOM      2  O   UNL     1      -7.213   7.885   1.587  0.00  0.00    +0.000 OA
ATOM      3  C   UNL     1      -2.961  11.281   5.159  0.00  0.00    +0.000 C 
ATOM      4  C   UNL     1      -2.173  11.944   2.844  0.00  0.00    +0.000 C 
ATOM      5  C   UNL     1      -2.534  12.436   4.252  0.00  0.00    +0.000 C 
ATOM      6  C   UNL     1      -3.370  11.237   2.192  0.00  0.00    +0.000 C 
ATOM      7  C   UNL     1      -4.052  10.439   4.527  0.00  0.00    +0.000 A 
ATOM      8  C   UNL     1      -4.216  10.393   3.129  0.00  0.00    +0.000 A 
ATOM      9  C   UNL     1      -4.884   9.642   5.336  0.00  0.00    +0.000 A 
ATOM     10  C   UNL     1      -5.223   9.576   2.584  0.00  0.00    +0.000 A 
ATOM     11  C   UNL     1      -5.882   8.818   4.781  0.00  0.00    +0.000 A 
ATOM     12  C   UNL     1      -6.050   8.788   3.402  0.00  0.00    +0.000 A 
ATOM     13  C   UNL     1      -6.736   7.978   5.651  0.00  0.00    +0.000 C 
ATOM     14  C   UNL     1      -7.093   7.932   2.808  0.00  0.00    +0.000 C 
ATOM     15  C   UNL     1      -7.832   7.172   5.064  0.00  0.00    +0.000 A 
ATOM     16  C   UNL     1      -7.988   7.147   3.677  0.00  0.00    +0.000 A 
ATOM     17  C   UNL     1      -8.717   6.419   5.853  0.00  0.00    +0.000 A 
ATOM     18  C   UNL     1      -9.006   6.384   3.084  0.00  0.00    +0.000 A 
ATOM     19  C   UNL     1      -9.748   5.680   5.262  0.00  0.00    +0.000 A 
ATOM     20  C   UNL     1      -9.886   5.653   3.877  0.00  0.00    +0.000 A 
ENDROOT
BRANCH   4  21
ATOM     21  O   UNL     1      -1.048  11.058   2.894  0.00  0.00    +0.000 OA
ATOM     22  H   UNL     1      -1.393  10.147   2.779  0.00  0.00    +0.000 HD
ENDBRANCH   4  21
BRANCH   9  23
ATOM     23  O   UNL     1      -4.679   9.708   6.694  0.00  0.00    +0.000 OA
ATOM     24  H   UNL     1      -5.543   9.578   7.150  0.00  0.00    +0.000 HD
ENDBRANCH   9  23
BRANCH  10  25
ATOM     25  O   UNL     1      -5.356   9.591   1.217  0.00  0.00    +0.000 OA
ATOM     26  H   UNL     1      -6.195  10.049   0.984  0.00  0.00    +0.000 HD
ENDBRANCH  10  25
BRANCH   4  28
ATOM     27  O   UNL     1      -2.249  13.335   0.841  0.00  0.00    +0.000 OA
ATOM     28  C   UNL     1      -1.768  13.138   1.963  0.00  0.00    +0.000 C 
BRANCH  28  29
ATOM     29  C   UNL     1      -0.711  14.090   2.518  0.00  0.00    +0.000 C 
BRANCH  29  30
ATOM     30  O   UNL     1       0.523  13.418   2.742  0.00  0.00    +0.000 OA
ATOM     31  H   UNL     1       1.112  14.069   3.175  0.00  0.00    +0.000 HD
ENDBRANCH  29  30
ENDBRANCH  28  29
ENDBRANCH   4  28
BRANCH  17  32
ATOM     32  O   UNL     1      -8.682   6.458   7.221  0.00  0.00    +0.000 OA
ATOM     33  C   UNL     1      -8.403   5.161   7.754  0.00  0.00    +0.000 C 
ENDBRANCH  17  32
BRANCH   3  34
ATOM     34  O   UNL     1      -1.837  10.406   5.352  0.00  0.00    +0.000 OA
BRANCH  34  36
ATOM     35  O   UNL     1      -0.063  11.434   6.510  0.00  0.00    +0.000 OA
ATOM     36  C   UNL     1      -1.211  10.597   6.624  0.00  0.00    +0.000 C 
ATOM     37  C   UNL     1      -0.874   9.232   7.227  0.00  0.00    +0.000 C 
ATOM     38  C   UNL     1       0.264   8.558   6.457  0.00  0.00    +0.000 C 
ATOM     39  C   UNL     1       1.473   9.512   6.380  0.00  0.00    +0.000 C 
ATOM     40  C   UNL     1       1.014  10.849   5.766  0.00  0.00    +0.000 C 
ATOM     41  C   UNL     1       2.133  11.884   5.715  0.00  0.00    +0.000 C 
BRANCH  38  42
ATOM     42  N   UNL     1       0.649   7.288   7.101  0.00  0.00    +0.000 NA
ATOM     43  H   UNL     1       1.602   7.351   7.453  0.00  0.00    +0.000 HD
ATOM     44  H   UNL     1       0.665   6.575   6.364  0.00  0.00    +0.000 HD
ENDBRANCH  38  42
BRANCH  39  45
ATOM     45  O   UNL     1       1.994   9.690   7.710  0.00  0.00    +0.000 OA
ATOM     46  H   UNL     1       2.651  10.404   7.674  0.00  0.00    +0.000 HD
ENDBRANCH  39  45
ENDBRANCH  34  36
ENDBRANCH   3  34
TORSDOF 11
ENDMDL
MODEL 7
REMARK VINA RESULT:      -5.4     23.464     26.930
REMARK  Name = 
REMARK  13 active torsions:
REMARK  status: ('A' for Active; 'I' for Inactive)
REMARK    1  A    between atoms: O_1  and  C_13
REMARK    2  A    between atoms: O_1  and  C_19
REMARK    3  A    between atoms: O_3  and  C_14
REMARK    4  A    between atoms: O_4  and  C_22
REMARK    5  A    between atoms: O_5  and  C_24
REMARK    6  A    between atoms: O_6  and  C_26
REMARK    7  A    between atoms: O_8  and  C_30
REMARK    8  A    between atoms: O_11  and  C_35
REMARK    9  A    between atoms: O_11  and  C_39
REMARK   10  A    between atoms: N_12  and  C_21
REMARK   11  A    between atoms: C_14  and  C_25
REMARK   12  A    between atoms: C_23  and  C_29
REMARK   13  A    between atoms: C_25  and  C_30
REMARK                            x       y       z     vdW  Elec       q    Type
REMARK                         _______ _______ _______ _____ _____    ______ ____
ROOT
ATOM      1  O   UNL     1      -5.877   9.658   7.029  0.00  0.00    +0.000 OA
ATOM      2  O   UNL     1      -7.419   5.312   4.381  0.00  0.00    +0.000 OA
ATOM      3  C   UNL     1      -5.217  11.008   2.125  0.00  0.00    +0.000 C 
ATOM      4  C   UNL     1      -5.392   9.741  -0.062  0.00  0.00    +0.000 C 
ATOM      5  C   UNL     1      -5.692  11.054   0.672  0.00  0.00    +0.000 C 
ATOM      6  C   UNL     1      -6.085   8.560   0.633  0.00  0.00    +0.000 C 
ATOM      7  C   UNL     1      -5.744   9.787   2.853  0.00  0.00    +0.000 A 
ATOM      8  C   UNL     1      -6.116   8.625   2.150  0.00  0.00    +0.000 A 
ATOM      9  C   UNL     1      -5.814   9.783   4.259  0.00  0.00    +0.000 A 
ATOM     10  C   UNL     1      -6.572   7.506   2.869  0.00  0.00    +0.000 A 
ATOM     11  C   UNL     1      -6.262   8.653   4.972  0.00  0.00    +0.000 A 
ATOM     12  C   UNL     1      -6.643   7.515   4.272  0.00  0.00    +0.000 A 
ATOM     13  C   UNL     1      -6.315   8.667   6.451  0.00  0.00    +0.000 C 
ATOM     14  C   UNL     1      -7.116   6.326   5.005  0.00  0.00    +0.000 C 
ATOM     15  C   UNL     1      -6.858   7.501   7.188  0.00  0.00    +0.000 A 
ATOM     16  C   UNL     1      -7.233   6.362   6.473  0.00  0.00    +0.000 A 
ATOM     17  C   UNL     1      -7.000   7.495   8.585  0.00  0.00    +0.000 A 
ATOM     18  C   UNL     1      -7.739   5.234   7.138  0.00  0.00    +0.000 A 
ATOM     19  C   UNL     1      -7.529   6.379   9.244  0.00  0.00    +0.000 A 
ATOM     20  C   UNL     1      -7.888   5.245   8.522  0.00  0.00    +0.000 A 
ENDROOT
BRANCH   4  21
ATOM     21  O   UNL     1      -3.979   9.511  -0.127  0.00  0.00    +0.000 OA
ATOM     22  H   UNL     1      -3.744   9.431  -1.076  0.00  0.00    +0.000 HD
ENDBRANCH   4  21
BRANCH   9  23
ATOM     23  O   UNL     1      -5.428  10.933   4.905  0.00  0.00    +0.000 OA
ATOM     24  H   UNL     1      -5.332  10.738   5.867  0.00  0.00    +0.000 HD
ENDBRANCH   9  23
BRANCH  10  25
ATOM     25  O   UNL     1      -6.948   6.410   2.129  0.00  0.00    +0.000 OA
ATOM     26  H   UNL     1      -7.670   5.939   2.603  0.00  0.00    +0.000 HD
ENDBRANCH  10  25
BRANCH   4  28
ATOM     27  O   UNL     1      -5.596   8.998  -2.377  0.00  0.00    +0.000 OA
ATOM     28  C   UNL     1      -5.902   9.825  -1.511  0.00  0.00    +0.000 C 
BRANCH  28  29
ATOM     29  C   UNL     1      -6.806  11.004  -1.866  0.00  0.00    +0.000 C 
BRANCH  29  30
ATOM     30  O   UNL     1      -8.180  10.653  -1.757  0.00  0.00    +0.000 OA
ATOM     31  H   UNL     1      -8.232   9.695  -1.955  0.00  0.00    +0.000 HD
ENDBRANCH  29  30
ENDBRANCH  28  29
ENDBRANCH   4  28
BRANCH  17  32
ATOM     32  O   UNL     1      -6.734   8.601   9.347  0.00  0.00    +0.000 OA
ATOM     33  C   UNL     1      -7.543   8.608  10.525  0.00  0.00    +0.000 C 
ENDBRANCH  17  32
BRANCH   3  34
ATOM     34  O   UNL     1      -3.783  10.897   2.139  0.00  0.00    +0.000 OA
BRANCH  34  36
ATOM     35  O   UNL     1      -2.307  12.439   1.144  0.00  0.00    +0.000 OA
ATOM     36  C   UNL     1      -3.141  12.168   2.268  0.00  0.00    +0.000 C 
ATOM     37  C   UNL     1      -2.364  12.206   3.586  0.00  0.00    +0.000 C 
ATOM     38  C   UNL     1      -1.144  11.284   3.530  0.00  0.00    +0.000 C 
ATOM     39  C   UNL     1      -0.285  11.637   2.299  0.00  0.00    +0.000 C 
ATOM     40  C   UNL     1      -1.170  11.573   1.039  0.00  0.00    +0.000 C 
ATOM     41  C   UNL     1      -0.418  11.978  -0.224  0.00  0.00    +0.000 C 
BRANCH  38  42
ATOM     42  N   UNL     1      -0.348  11.398   4.766  0.00  0.00    +0.000 NA
ATOM     43  H   UNL     1      -0.909  11.122   5.569  0.00  0.00    +0.000 HD
ATOM     44  H   UNL     1      -0.139  12.394   4.894  0.00  0.00    +0.000 HD
ENDBRANCH  38  42
BRANCH  39  45
ATOM     45  O   UNL     1       0.266  12.952   2.495  0.00  0.00    +0.000 OA
ATOM     46  H   UNL     1       0.734  12.949   3.347  0.00  0.00    +0.000 HD
ENDBRANCH  39  45
ENDBRANCH  34  36
ENDBRANCH   3  34
TORSDOF 11
ENDMDL
MODEL 8
REMARK VINA RESULT:      -5.4     23.860     27.434
REMARK  Name = 
REMARK  13 active torsions:
REMARK  status: ('A' for Active; 'I' for Inactive)
REMARK    1  A    between atoms: O_1  and  C_13
REMARK    2  A    between atoms: O_1  and  C_19
REMARK    3  A    between atoms: O_3  and  C_14
REMARK    4  A    between atoms: O_4  and  C_22
REMARK    5  A    between atoms: O_5  and  C_24
REMARK    6  A    between atoms: O_6  and  C_26
REMARK    7  A    between atoms: O_8  and  C_30
REMARK    8  A    between atoms: O_11  and  C_35
REMARK    9  A    between atoms: O_11  and  C_39
REMARK   10  A    between atoms: N_12  and  C_21
REMARK   11  A    between atoms: C_14  and  C_25
REMARK   12  A    between atoms: C_23  and  C_29
REMARK   13  A    between atoms: C_25  and  C_30
REMARK                            x       y       z     vdW  Elec       q    Type
REMARK                         _______ _______ _______ _____ _____    ______ ____
ROOT
ATOM      1  O   UNL     1      -0.995   9.267   5.649  0.00  0.00    +0.000 OA
ATOM      2  O   UNL     1       0.301   9.814  10.776  0.00  0.00    +0.000 OA
ATOM      3  C   UNL     1      -5.532  10.083   7.898  0.00  0.00    +0.000 C 
ATOM      4  C   UNL     1      -6.259  10.274  10.318  0.00  0.00    +0.000 C 
ATOM      5  C   UNL     1      -6.418  10.830   8.897  0.00  0.00    +0.000 C 
ATOM      6  C   UNL     1      -4.802  10.391  10.787  0.00  0.00    +0.000 C 
ATOM      7  C   UNL     1      -4.088  10.027   8.356  0.00  0.00    +0.000 A 
ATOM      8  C   UNL     1      -3.753  10.135   9.720  0.00  0.00    +0.000 A 
ATOM      9  C   UNL     1      -3.060   9.807   7.419  0.00  0.00    +0.000 A 
ATOM     10  C   UNL     1      -2.402  10.049  10.102  0.00  0.00    +0.000 A 
ATOM     11  C   UNL     1      -1.711   9.711   7.812  0.00  0.00    +0.000 A 
ATOM     12  C   UNL     1      -1.385   9.834   9.157  0.00  0.00    +0.000 A 
ATOM     13  C   UNL     1      -0.650   9.466   6.810  0.00  0.00    +0.000 C 
ATOM     14  C   UNL     1       0.024   9.738   9.583  0.00  0.00    +0.000 C 
ATOM     15  C   UNL     1       0.774   9.441   7.223  0.00  0.00    +0.000 A 
ATOM     16  C   UNL     1       1.088   9.562   8.578  0.00  0.00    +0.000 A 
ATOM     17  C   UNL     1       1.821   9.289   6.301  0.00  0.00    +0.000 A 
ATOM     18  C   UNL     1       2.424   9.529   9.009  0.00  0.00    +0.000 A 
ATOM     19  C   UNL     1       3.154   9.282   6.730  0.00  0.00    +0.000 A 
ATOM     20  C   UNL     1       3.455   9.391   8.084  0.00  0.00    +0.000 A 
ENDROOT
BRANCH   4  21
ATOM     21  O   UNL     1      -6.685   8.907  10.375  0.00  0.00    +0.000 OA
ATOM     22  H   UNL     1      -7.270   8.820  11.157  0.00  0.00    +0.000 HD
ENDBRANCH   4  21
BRANCH   9  23
ATOM     23  O   UNL     1      -3.435   9.694   6.101  0.00  0.00    +0.000 OA
ATOM     24  H   UNL     1      -2.935  10.360   5.572  0.00  0.00    +0.000 HD
ENDBRANCH   9  23
BRANCH  10  25
ATOM     25  O   UNL     1      -2.131  10.189  11.442  0.00  0.00    +0.000 OA
ATOM     26  H   UNL     1      -2.861  10.697  11.863  0.00  0.00    +0.000 HD
ENDBRANCH  10  25
BRANCH   4  28
ATOM     27  O   UNL     1      -6.694  11.788  12.182  0.00  0.00    +0.000 OA
ATOM     28  C   UNL     1      -7.152  11.065  11.289  0.00  0.00    +0.000 C 
BRANCH  28  29
ATOM     29  C   UNL     1      -8.663  10.913  11.130  0.00  0.00    +0.000 C 
BRANCH  29  30
ATOM     30  O   UNL     1      -9.145   9.774  11.833  0.00  0.00    +0.000 OA
ATOM     31  H   UNL     1      -8.921   9.921  12.775  0.00  0.00    +0.000 HD
ENDBRANCH  29  30
ENDBRANCH  28  29
ENDBRANCH   4  28
BRANCH  17  32
ATOM     32  O   UNL     1       1.600   9.248   4.951  0.00  0.00    +0.000 OA
ATOM     33  C   UNL     1       2.200   8.085   4.377  0.00  0.00    +0.000 C 
ENDBRANCH  17  32
BRANCH   3  34
ATOM     34  O   UNL     1      -5.980   8.720   7.813  0.00  0.00    +0.000 OA
BRANCH  34  36
ATOM     35  O   UNL     1      -8.058   7.612   7.864  0.00  0.00    +0.000 OA
ATOM     36  C   UNL     1      -7.274   8.610   7.213  0.00  0.00    +0.000 C 
ATOM     37  C   UNL     1      -7.111   8.332   5.717  0.00  0.00    +0.000 C 
ATOM     38  C   UNL     1      -6.574   6.919   5.477  0.00  0.00    +0.000 C 
ATOM     39  C   UNL     1      -7.472   5.894   6.199  0.00  0.00    +0.000 C 
ATOM     40  C   UNL     1      -7.567   6.277   7.688  0.00  0.00    +0.000 C 
ATOM     41  C   UNL     1      -8.496   5.356   8.471  0.00  0.00    +0.000 C 
BRANCH  38  42
ATOM     42  N   UNL     1      -6.511   6.624   4.034  0.00  0.00    +0.000 NA
ATOM     43  H   UNL     1      -7.042   7.319   3.512  0.00  0.00    +0.000 HD
ATOM     44  H   UNL     1      -6.996   5.732   3.892  0.00  0.00    +0.000 HD
ENDBRANCH  38  42
BRANCH  39  45
ATOM     45  O   UNL     1      -8.764   5.901   5.565  0.00  0.00    +0.000 OA
ATOM     46  H   UNL     1      -8.620   5.998   4.609  0.00  0.00    +0.000 HD
ENDBRANCH  39  45
ENDBRANCH  34  36
ENDBRANCH   3  34
TORSDOF 11
ENDMDL
MODEL 9
REMARK VINA RESULT:      -5.3     16.463     21.886
REMARK  Name = 
REMARK  13 active torsions:
REMARK  status: ('A' for Active; 'I' for Inactive)
REMARK    1  A    between atoms: O_1  and  C_13
REMARK    2  A    between atoms: O_1  and  C_19
REMARK    3  A    between atoms: O_3  and  C_14
REMARK    4  A    between atoms: O_4  and  C_22
REMARK    5  A    between atoms: O_5  and  C_24
REMARK    6  A    between atoms: O_6  and  C_26
REMARK    7  A    between atoms: O_8  and  C_30
REMARK    8  A    between atoms: O_11  and  C_35
REMARK    9  A    between atoms: O_11  and  C_39
REMARK   10  A    between atoms: N_12  and  C_21
REMARK   11  A    between atoms: C_14  and  C_25
REMARK   12  A    between atoms: C_23  and  C_29
REMARK   13  A    between atoms: C_25  and  C_30
REMARK                            x       y       z     vdW  Elec       q    Type
REMARK                         _______ _______ _______ _____ _____    ______ ____
ROOT
ATOM      1  O   UNL     1      10.960 -17.261   5.344  0.00  0.00    +0.000 OA
ATOM      2  O   UNL     1       8.544 -20.431   8.862  0.00  0.00    +0.000 OA
ATOM      3  C   UNL     1       6.217 -17.686   3.438  0.00  0.00    +0.000 C 
ATOM      4  C   UNL     1       4.208 -19.089   4.082  0.00  0.00    +0.000 C 
ATOM      5  C   UNL     1       4.698 -17.712   3.617  0.00  0.00    +0.000 C 
ATOM      6  C   UNL     1       4.856 -19.472   5.421  0.00  0.00    +0.000 C 
ATOM      7  C   UNL     1       6.940 -18.187   4.673  0.00  0.00    +0.000 A 
ATOM      8  C   UNL     1       6.307 -19.057   5.583  0.00  0.00    +0.000 A 
ATOM      9  C   UNL     1       8.283 -17.830   4.896  0.00  0.00    +0.000 A 
ATOM     10  C   UNL     1       7.025 -19.520   6.700  0.00  0.00    +0.000 A 
ATOM     11  C   UNL     1       8.998 -18.307   6.011  0.00  0.00    +0.000 A 
ATOM     12  C   UNL     1       8.364 -19.153   6.914  0.00  0.00    +0.000 A 
ATOM     13  C   UNL     1      10.414 -17.929   6.217  0.00  0.00    +0.000 C 
ATOM     14  C   UNL     1       9.100 -19.658   8.088  0.00  0.00    +0.000 C 
ATOM     15  C   UNL     1      11.136 -18.376   7.432  0.00  0.00    +0.000 A 
ATOM     16  C   UNL     1      10.489 -19.228   8.330  0.00  0.00    +0.000 A 
ATOM     17  C   UNL     1      12.454 -17.981   7.712  0.00  0.00    +0.000 A 
ATOM     18  C   UNL     1      11.145 -19.682   9.485  0.00  0.00    +0.000 A 
ATOM     19  C   UNL     1      13.097 -18.414   8.877  0.00  0.00    +0.000 A 
ATOM     20  C   UNL     1      12.447 -19.273   9.758  0.00  0.00    +0.000 A 
ENDROOT
BRANCH   4  21
ATOM     21  O   UNL     1       4.495 -20.086   3.094  0.00  0.00    +0.000 OA
ATOM     22  H   UNL     1       4.100 -20.927   3.411  0.00  0.00    +0.000 HD
ENDBRANCH   4  21
BRANCH   9  23
ATOM     23  O   UNL     1       8.864 -16.991   3.975  0.00  0.00    +0.000 OA
ATOM     24  H   UNL     1       9.212 -17.533   3.229  0.00  0.00    +0.000 HD
ENDBRANCH   9  23
BRANCH  10  25
ATOM     25  O   UNL     1       6.350 -20.343   7.568  0.00  0.00    +0.000 OA
ATOM     26  H   UNL     1       6.469 -20.004   8.485  0.00  0.00    +0.000 HD
ENDBRANCH  10  25
BRANCH   4  28
ATOM     27  O   UNL     1       2.136 -18.611   5.280  0.00  0.00    +0.000 OA
ATOM     28  C   UNL     1       2.680 -19.063   4.266  0.00  0.00    +0.000 C 
BRANCH  28  29
ATOM     29  C   UNL     1       1.831 -19.648   3.140  0.00  0.00    +0.000 C 
BRANCH  29  30
ATOM     30  O   UNL     1       1.846 -18.808   1.992  0.00  0.00    +0.000 OA
ATOM     31  H   UNL     1       1.006 -18.306   2.012  0.00  0.00    +0.000 HD
ENDBRANCH  29  30
ENDBRANCH  28  29
ENDBRANCH   4  28
BRANCH  17  32
ATOM     32  O   UNL     1      13.125 -17.083   6.926  0.00  0.00    +0.000 OA
ATOM     33  C   UNL     1      14.353 -17.643   6.456  0.00  0.00    +0.000 C 
ENDBRANCH  17  32
BRANCH   3  34
ATOM     34  O   UNL     1       6.571 -18.583   2.372  0.00  0.00    +0.000 OA
BRANCH  34  36
ATOM     35  O   UNL     1       5.442 -18.972   0.342  0.00  0.00    +0.000 OA
ATOM     36  C   UNL     1       6.242 -18.055   1.085  0.00  0.00    +0.000 C 
ATOM     37  C   UNL     1       7.532 -17.686   0.349  0.00  0.00    +0.000 C 
ATOM     38  C   UNL     1       8.309 -18.940  -0.058  0.00  0.00    +0.000 C 
ATOM     39  C   UNL     1       7.389 -19.881  -0.862  0.00  0.00    +0.000 C 
ATOM     40  C   UNL     1       6.127 -20.176  -0.029  0.00  0.00    +0.000 C 
ATOM     41  C   UNL     1       5.123 -21.046  -0.777  0.00  0.00    +0.000 C 
BRANCH  38  42
ATOM     42  N   UNL     1       9.500 -18.581  -0.850  0.00  0.00    +0.000 NA
ATOM     43  H   UNL     1      10.132 -19.377  -0.908  0.00  0.00    +0.000 HD
ATOM     44  H   UNL     1      10.001 -17.859  -0.321  0.00  0.00    +0.000 HD
ENDBRANCH  38  42
BRANCH  39  45
ATOM     45  O   UNL     1       7.064 -19.238  -2.109  0.00  0.00    +0.000 OA
ATOM     46  H   UNL     1       7.750 -18.572  -2.281  0.00  0.00    +0.000 HD
ENDBRANCH  39  45
ENDBRANCH  34  36
ENDBRANCH   3  34
TORSDOF 11
ENDMDL
