MODEL 1
REMARK VINA RESULT:      -6.3      0.000      0.000
REMARK  Name = Dronabinol.pdbqt.pdb
REMARK  3 active torsions:
REMARK  status: ('A' for Active; 'I' for Inactive)
REMARK    1  A    between atoms: C_13  and  O_18
REMARK    2  A    between atoms: C_16  and  C_20
REMARK    3  A    between atoms: C_21  and  C_22
REMARK                            x       y       z     vdW  Elec       q    Type
REMARK                         _______ _______ _______ _____ _____    ______ ____
ROOT
ATOM      1  O   UNL     1      -7.007   5.883   4.854  0.00  0.00    +0.000 OA
ATOM      2  C   UNL     1      -7.315   6.794   7.124  0.00  0.00    +0.000 A 
ATOM      3  C   UNL     1      -6.716   8.061   6.637  0.00  0.00    +0.000 A 
ATOM      4  C   UNL     1      -7.754   5.791   6.090  0.00  0.00    +0.000 C 
ATOM      5  C   UNL     1      -7.592   6.818   8.536  0.00  0.00    +0.000 A 
ATOM      6  C   UNL     1      -6.453   8.248   5.213  0.00  0.00    +0.000 A 
ATOM      7  C   UNL     1      -7.271   8.000   9.470  0.00  0.00    +0.000 A 
ATOM      8  C   UNL     1      -6.498   9.022   7.697  0.00  0.00    +0.000 A 
ATOM      9  C   UNL     1      -6.656   9.203   8.986  0.00  0.00    +0.000 A 
ATOM     10  C   UNL     1      -6.623   7.120   4.396  0.00  0.00    +0.000 A 
ATOM     11  C   UNL     1      -7.510   4.356   6.631  0.00  0.00    +0.000 C 
ATOM     12  C   UNL     1      -9.264   6.000   5.773  0.00  0.00    +0.000 C 
ATOM     13  C   UNL     1      -6.032   9.444   4.618  0.00  0.00    +0.000 A 
ATOM     14  C   UNL     1      -6.344   7.184   3.030  0.00  0.00    +0.000 A 
ATOM     15  C   UNL     1      -5.599   9.887   9.795  0.00  0.00    +0.000 C 
ATOM     16  C   UNL     1      -5.926   8.380   2.456  0.00  0.00    +0.000 A 
ATOM     17  C   UNL     1      -5.772   9.512   3.247  0.00  0.00    +0.000 A 
ENDROOT
BRANCH  13  18
ATOM     18  O   UNL     1      -5.875  10.575   5.368  0.00  0.00    +0.000 OA
ATOM     19  H   UNL     1      -6.702  10.760   5.847  0.00  0.00    +0.000 HD
ENDBRANCH  13  18
BRANCH  16  20
ATOM     20  C   UNL     1      -5.668   8.447   1.058  0.00  0.00    +0.000 C 
ATOM     21  C   UNL     1      -5.379   8.526  -0.446  0.00  0.00    +0.000 C 
BRANCH  21  22
ATOM     22  C   UNL     1      -5.079   8.607  -1.945  0.00  0.00    +0.000 C 
ATOM     23  C   UNL     1      -4.782   8.692  -3.446  0.00  0.00    +0.000 C 
ATOM     24  C   UNL     1      -4.483   8.781  -4.946  0.00  0.00    +0.000 C 
ENDBRANCH  21  22
ENDBRANCH  16  20
TORSDOF 3
ENDMDL
MODEL 2
REMARK VINA RESULT:      -6.0     21.006     24.952
REMARK  Name = Dronabinol.pdbqt.pdb
REMARK  3 active torsions:
REMARK  status: ('A' for Active; 'I' for Inactive)
REMARK    1  A    between atoms: C_13  and  O_18
REMARK    2  A    between atoms: C_16  and  C_20
REMARK    3  A    between atoms: C_21  and  C_22
REMARK                            x       y       z     vdW  Elec       q    Type
REMARK                         _______ _______ _______ _____ _____    ______ ____
ROOT
ATOM      1  O   UNL     1     -22.254  -7.234  17.012  0.00  0.00    +0.000 OA
ATOM      2  C   UNL     1     -21.366  -8.062  14.867  0.00  0.00    +0.000 A 
ATOM      3  C   UNL     1     -20.163  -7.228  15.106  0.00  0.00    +0.000 A 
ATOM      4  C   UNL     1     -22.290  -8.298  16.031  0.00  0.00    +0.000 C 
ATOM      5  C   UNL     1     -21.343  -8.713  13.583  0.00  0.00    +0.000 A 
ATOM      6  C   UNL     1     -19.974  -6.564  16.394  0.00  0.00    +0.000 A 
ATOM      7  C   UNL     1     -20.225  -8.544  12.537  0.00  0.00    +0.000 A 
ATOM      8  C   UNL     1     -19.256  -7.214  13.977  0.00  0.00    +0.000 A 
ATOM      9  C   UNL     1     -19.087  -7.702  12.772  0.00  0.00    +0.000 A 
ATOM     10  C   UNL     1     -21.058  -6.616  17.284  0.00  0.00    +0.000 A 
ATOM     11  C   UNL     1     -23.755  -8.358  15.520  0.00  0.00    +0.000 C 
ATOM     12  C   UNL     1     -21.907  -9.633  16.735  0.00  0.00    +0.000 C 
ATOM     13  C   UNL     1     -18.819  -5.878  16.789  0.00  0.00    +0.000 A 
ATOM     14  C   UNL     1     -20.995  -5.966  18.517  0.00  0.00    +0.000 A 
ATOM     15  C   UNL     1     -18.544  -6.845  11.672  0.00  0.00    +0.000 C 
ATOM     16  C   UNL     1     -19.840  -5.289  18.893  0.00  0.00    +0.000 A 
ATOM     17  C   UNL     1     -18.749  -5.245  18.032  0.00  0.00    +0.000 A 
ENDROOT
BRANCH  13  18
ATOM     18  O   UNL     1     -17.730  -5.820  15.966  0.00  0.00    +0.000 OA
ATOM     19  H   UNL     1     -17.380  -6.719  15.833  0.00  0.00    +0.000 HD
ENDBRANCH  13  18
BRANCH  16  20
ATOM     20  C   UNL     1     -19.771  -4.650  20.164  0.00  0.00    +0.000 C 
ATOM     21  C   UNL     1     -19.709  -3.968  21.535  0.00  0.00    +0.000 C 
BRANCH  21  22
ATOM     22  C   UNL     1     -19.655  -3.292  22.908  0.00  0.00    +0.000 C 
ATOM     23  C   UNL     1     -19.605  -2.613  24.280  0.00  0.00    +0.000 C 
ATOM     24  C   UNL     1     -19.558  -1.934  25.653  0.00  0.00    +0.000 C 
ENDBRANCH  21  22
ENDBRANCH  16  20
TORSDOF 3
ENDMDL
MODEL 3
REMARK VINA RESULT:      -5.4     22.884     25.383
REMARK  Name = Dronabinol.pdbqt.pdb
REMARK  3 active torsions:
REMARK  status: ('A' for Active; 'I' for Inactive)
REMARK    1  A    between atoms: C_13  and  O_18
REMARK    2  A    between atoms: C_16  and  C_20
REMARK    3  A    between atoms: C_21  and  C_22
REMARK                            x       y       z     vdW  Elec       q    Type
REMARK                         _______ _______ _______ _____ _____    ______ ____
ROOT
ATOM      1  O   UNL     1       7.456  -8.778  10.389  0.00  0.00    +0.000 OA
ATOM      2  C   UNL     1       5.466  -9.955  11.242  0.00  0.00    +0.000 A 
ATOM      3  C   UNL     1       6.351 -11.098  11.573  0.00  0.00    +0.000 A 
ATOM      4  C   UNL     1       6.122  -8.637  10.929  0.00  0.00    +0.000 C 
ATOM      5  C   UNL     1       4.077 -10.237  11.496  0.00  0.00    +0.000 A 
ATOM      6  C   UNL     1       7.801 -10.959  11.463  0.00  0.00    +0.000 A 
ATOM      7  C   UNL     1       3.539 -11.585  12.012  0.00  0.00    +0.000 A 
ATOM      8  C   UNL     1       5.619 -12.261  12.030  0.00  0.00    +0.000 A 
ATOM      9  C   UNL     1       4.409 -12.693  12.289  0.00  0.00    +0.000 A 
ATOM     10  C   UNL     1       8.268  -9.778  10.867  0.00  0.00    +0.000 A 
ATOM     11  C   UNL     1       5.296  -7.898   9.841  0.00  0.00    +0.000 C 
ATOM     12  C   UNL     1       6.201  -7.776  12.225  0.00  0.00    +0.000 C 
ATOM     13  C   UNL     1       8.740 -11.909  11.885  0.00  0.00    +0.000 A 
ATOM     14  C   UNL     1       9.635  -9.576  10.668  0.00  0.00    +0.000 A 
ATOM     15  C   UNL     1       4.000 -14.083  11.918  0.00  0.00    +0.000 C 
ATOM     16  C   UNL     1      10.552 -10.530  11.092  0.00  0.00    +0.000 A 
ATOM     17  C   UNL     1      10.108 -11.697  11.704  0.00  0.00    +0.000 A 
ENDROOT
BRANCH  13  18
ATOM     18  O   UNL     1       8.334 -13.064  12.492  0.00  0.00    +0.000 OA
ATOM     19  H   UNL     1       8.623 -13.826  11.958  0.00  0.00    +0.000 HD
ENDBRANCH  13  18
BRANCH  16  20
ATOM     20  C   UNL     1      11.947 -10.307  10.911  0.00  0.00    +0.000 C 
ATOM     21  C   UNL     1      13.446 -10.068  10.703  0.00  0.00    +0.000 C 
BRANCH  21  22
ATOM     22  C   UNL     1      14.943  -9.826  10.484  0.00  0.00    +0.000 C 
ATOM     23  C   UNL     1      16.440  -9.588  10.261  0.00  0.00    +0.000 C 
ATOM     24  C   UNL     1      17.936  -9.349  10.036  0.00  0.00    +0.000 C 
ENDBRANCH  21  22
ENDBRANCH  16  20
TORSDOF 3
ENDMDL
MODEL 4
REMARK VINA RESULT:      -5.4     20.264     22.675
REMARK  Name = Dronabinol.pdbqt.pdb
REMARK  3 active torsions:
REMARK  status: ('A' for Active; 'I' for Inactive)
REMARK    1  A    between atoms: C_13  and  O_18
REMARK    2  A    between atoms: C_16  and  C_20
REMARK    3  A    between atoms: C_21  and  C_22
REMARK                            x       y       z     vdW  Elec       q    Type
REMARK                         _______ _______ _______ _____ _____    ______ ____
ROOT
ATOM      1  O   UNL     1       9.706  -7.723  11.668  0.00  0.00    +0.000 OA
ATOM      2  C   UNL     1       9.213 -10.125  11.417  0.00  0.00    +0.000 A 
ATOM      3  C   UNL     1       7.828  -9.745  11.044  0.00  0.00    +0.000 A 
ATOM      4  C   UNL     1      10.254  -9.038  11.417  0.00  0.00    +0.000 C 
ATOM      5  C   UNL     1       9.392 -11.550  11.506  0.00  0.00    +0.000 A 
ATOM      6  C   UNL     1       7.487  -8.342  10.819  0.00  0.00    +0.000 A 
ATOM      7  C   UNL     1       8.274 -12.587  11.287  0.00  0.00    +0.000 A 
ATOM      8  C   UNL     1       6.952 -10.888  10.901  0.00  0.00    +0.000 A 
ATOM      9  C   UNL     1       6.931 -12.198  10.965  0.00  0.00    +0.000 A 
ATOM     10  C   UNL     1       8.474  -7.402  11.151  0.00  0.00    +0.000 A 
ATOM     11  C   UNL     1      11.272  -9.303  12.560  0.00  0.00    +0.000 C 
ATOM     12  C   UNL     1      10.982  -9.016  10.040  0.00  0.00    +0.000 C 
ATOM     13  C   UNL     1       6.263  -7.876  10.323  0.00  0.00    +0.000 A 
ATOM     14  C   UNL     1       8.225  -6.035  11.023  0.00  0.00    +0.000 A 
ATOM     15  C   UNL     1       5.771 -12.912  11.583  0.00  0.00    +0.000 C 
ATOM     16  C   UNL     1       7.003  -5.590  10.530  0.00  0.00    +0.000 A 
ATOM     17  C   UNL     1       6.022  -6.509  10.176  0.00  0.00    +0.000 A 
ENDROOT
BRANCH  13  18
ATOM     18  O   UNL     1       5.280  -8.754   9.964  0.00  0.00    +0.000 OA
ATOM     19  H   UNL     1       4.437  -8.274   9.876  0.00  0.00    +0.000 HD
ENDBRANCH  13  18
BRANCH  16  20
ATOM     20  C   UNL     1       6.763  -4.196  10.376  0.00  0.00    +0.000 C 
ATOM     21  C   UNL     1       6.514  -2.691  10.219  0.00  0.00    +0.000 C 
BRANCH  21  22
ATOM     22  C   UNL     1       6.276  -1.186  10.067  0.00  0.00    +0.000 C 
ATOM     23  C   UNL     1       6.040   0.320   9.918  0.00  0.00    +0.000 C 
ATOM     24  C   UNL     1       5.807   1.828   9.769  0.00  0.00    +0.000 C 
ENDBRANCH  21  22
ENDBRANCH  16  20
TORSDOF 3
ENDMDL
MODEL 5
REMARK VINA RESULT:      -5.3     24.881     27.279
REMARK  Name = Dronabinol.pdbqt.pdb
REMARK  3 active torsions:
REMARK  status: ('A' for Active; 'I' for Inactive)
REMARK    1  A    between atoms: C_13  and  O_18
REMARK    2  A    between atoms: C_16  and  C_20
REMARK    3  A    between atoms: C_21  and  C_22
REMARK                            x       y       z     vdW  Elec       q    Type
REMARK                         _______ _______ _______ _____ _____    ______ ____
ROOT
ATOM      1  O   UNL     1      11.492 -12.991  11.842  0.00  0.00    +0.000 OA
ATOM      2  C   UNL     1      12.760 -10.921  11.416  0.00  0.00    +0.000 A 
ATOM      3  C   UNL     1      11.504 -10.323  10.900  0.00  0.00    +0.000 A 
ATOM      4  C   UNL     1      12.648 -12.200  12.202  0.00  0.00    +0.000 C 
ATOM      5  C   UNL     1      13.892 -10.044  11.270  0.00  0.00    +0.000 A 
ATOM      6  C   UNL     1      10.237 -11.035  11.049  0.00  0.00    +0.000 A 
ATOM      7  C   UNL     1      13.840  -8.652  10.613  0.00  0.00    +0.000 A 
ATOM      8  C   UNL     1      11.703  -9.012  10.320  0.00  0.00    +0.000 A 
ATOM      9  C   UNL     1      12.622  -8.107  10.085  0.00  0.00    +0.000 A 
ATOM     10  C   UNL     1      10.317 -12.353  11.525  0.00  0.00    +0.000 A 
ATOM     11  C   UNL     1      13.885 -13.091  11.909  0.00  0.00    +0.000 C 
ATOM     12  C   UNL     1      12.568 -11.869  13.722  0.00  0.00    +0.000 C 
ATOM     13  C   UNL     1       8.974 -10.515  10.740  0.00  0.00    +0.000 A 
ATOM     14  C   UNL     1       9.167 -13.134  11.650  0.00  0.00    +0.000 A 
ATOM     15  C   UNL     1      12.633  -7.349   8.795  0.00  0.00    +0.000 C 
ATOM     16  C   UNL     1       7.922 -12.601  11.337  0.00  0.00    +0.000 A 
ATOM     17  C   UNL     1       7.822 -11.290  10.884  0.00  0.00    +0.000 A 
ENDROOT
BRANCH  13  18
ATOM     18  O   UNL     1       8.843  -9.229  10.296  0.00  0.00    +0.000 OA
ATOM     19  H   UNL     1       9.035  -9.198   9.341  0.00  0.00    +0.000 HD
ENDBRANCH  13  18
BRANCH  16  20
ATOM     20  C   UNL     1       6.749 -13.393  11.492  0.00  0.00    +0.000 C 
ATOM     21  C   UNL     1       5.494 -14.256  11.663  0.00  0.00    +0.000 C 
BRANCH  21  22
ATOM     22  C   UNL     1       4.246 -15.126  11.839  0.00  0.00    +0.000 C 
ATOM     23  C   UNL     1       3.000 -16.000  12.016  0.00  0.00    +0.000 C 
ATOM     24  C   UNL     1       1.755 -16.875  12.196  0.00  0.00    +0.000 C 
ENDBRANCH  21  22
ENDBRANCH  16  20
TORSDOF 3
ENDMDL
MODEL 6
REMARK VINA RESULT:      -5.3     21.951     25.432
REMARK  Name = Dronabinol.pdbqt.pdb
REMARK  3 active torsions:
REMARK  status: ('A' for Active; 'I' for Inactive)
REMARK    1  A    between atoms: C_13  and  O_18
REMARK    2  A    between atoms: C_16  and  C_20
REMARK    3  A    between atoms: C_21  and  C_22
REMARK                            x       y       z     vdW  Elec       q    Type
REMARK                         _______ _______ _______ _____ _____    ______ ____
ROOT
ATOM      1  O   UNL     1       7.488 -12.175  12.174  0.00  0.00    +0.000 OA
ATOM      2  C   UNL     1       7.551  -9.860  11.331  0.00  0.00    +0.000 A 
ATOM      3  C   UNL     1       6.071  -9.910  11.240  0.00  0.00    +0.000 A 
ATOM      4  C   UNL     1       8.235 -10.937  12.129  0.00  0.00    +0.000 C 
ATOM      5  C   UNL     1       8.097  -8.632  10.814  0.00  0.00    +0.000 A 
ATOM      6  C   UNL     1       5.341 -11.044  11.801  0.00  0.00    +0.000 A 
ATOM      7  C   UNL     1       7.261  -7.499  10.189  0.00  0.00    +0.000 A 
ATOM      8  C   UNL     1       5.508  -8.737  10.608  0.00  0.00    +0.000 A 
ATOM      9  C   UNL     1       5.833  -7.583  10.075  0.00  0.00    +0.000 A 
ATOM     10  C   UNL     1       6.117 -12.126  12.244  0.00  0.00    +0.000 A 
ATOM     11  C   UNL     1       9.596 -11.282  11.465  0.00  0.00    +0.000 C 
ATOM     12  C   UNL     1       8.457 -10.441  13.588  0.00  0.00    +0.000 C 
ATOM     13  C   UNL     1       3.947 -11.135  11.909  0.00  0.00    +0.000 A 
ATOM     14  C   UNL     1       5.509 -13.278  12.745  0.00  0.00    +0.000 A 
ATOM     15  C   UNL     1       5.145  -7.093   8.841  0.00  0.00    +0.000 C 
ATOM     16  C   UNL     1       4.123 -13.351  12.845  0.00  0.00    +0.000 A 
ATOM     17  C   UNL     1       3.340 -12.280  12.430  0.00  0.00    +0.000 A 
ENDROOT
BRANCH  13  18
ATOM     18  O   UNL     1       3.151 -10.098  11.513  0.00  0.00    +0.000 OA
ATOM     19  H   UNL     1       2.221 -10.314  11.708  0.00  0.00    +0.000 HD
ENDBRANCH  13  18
BRANCH  16  20
ATOM     20  C   UNL     1       3.509 -14.517  13.382  0.00  0.00    +0.000 C 
ATOM     21  C   UNL     1       2.854 -15.781  13.951  0.00  0.00    +0.000 C 
BRANCH  21  22
ATOM     22  C   UNL     1       2.208 -17.050  14.514  0.00  0.00    +0.000 C 
ATOM     23  C   UNL     1       1.563 -18.322  15.075  0.00  0.00    +0.000 C 
ATOM     24  C   UNL     1       0.922 -19.595  15.636  0.00  0.00    +0.000 C 
ENDBRANCH  21  22
ENDBRANCH  16  20
TORSDOF 3
ENDMDL
MODEL 7
REMARK VINA RESULT:      -5.1      2.341      8.369
REMARK  Name = Dronabinol.pdbqt.pdb
REMARK  3 active torsions:
REMARK  status: ('A' for Active; 'I' for Inactive)
REMARK    1  A    between atoms: C_13  and  O_18
REMARK    2  A    between atoms: C_16  and  C_20
REMARK    3  A    between atoms: C_21  and  C_22
REMARK                            x       y       z     vdW  Elec       q    Type
REMARK                         _______ _______ _______ _____ _____    ______ ____
ROOT
ATOM      1  O   UNL     1      -8.864   7.709   5.108  0.00  0.00    +0.000 OA
ATOM      2  C   UNL     1      -7.513   7.995   3.067  0.00  0.00    +0.000 A 
ATOM      3  C   UNL     1      -6.500   8.687   3.900  0.00  0.00    +0.000 A 
ATOM      4  C   UNL     1      -8.580   7.209   3.780  0.00  0.00    +0.000 C 
ATOM      5  C   UNL     1      -7.177   8.002   1.667  0.00  0.00    +0.000 A 
ATOM      6  C   UNL     1      -6.631   8.699   5.355  0.00  0.00    +0.000 A 
ATOM      7  C   UNL     1      -5.932   8.684   1.070  0.00  0.00    +0.000 A 
ATOM      8  C   UNL     1      -5.425   9.259   3.118  0.00  0.00    +0.000 A 
ATOM      9  C   UNL     1      -4.983   9.382   1.889  0.00  0.00    +0.000 A 
ATOM     10  C   UNL     1      -7.833   8.194   5.875  0.00  0.00    +0.000 A 
ATOM     11  C   UNL     1      -9.911   7.315   2.988  0.00  0.00    +0.000 C 
ATOM     12  C   UNL     1      -8.137   5.720   3.896  0.00  0.00    +0.000 C 
ATOM     13  C   UNL     1      -5.671   9.187   6.251  0.00  0.00    +0.000 A 
ATOM     14  C   UNL     1      -8.076   8.212   7.249  0.00  0.00    +0.000 A 
ATOM     15  C   UNL     1      -4.387  10.672   1.420  0.00  0.00    +0.000 C 
ATOM     16  C   UNL     1      -7.111   8.701   8.123  0.00  0.00    +0.000 A 
ATOM     17  C   UNL     1      -5.907   9.186   7.627  0.00  0.00    +0.000 A 
ENDROOT
BRANCH  13  18
ATOM     18  O   UNL     1      -4.477   9.667   5.794  0.00  0.00    +0.000 OA
ATOM     19  H   UNL     1      -4.642  10.340   5.109  0.00  0.00    +0.000 HD
ENDBRANCH  13  18
BRANCH  16  20
ATOM     20  C   UNL     1      -7.352   8.693   9.526  0.00  0.00    +0.000 C 
ATOM     21  C   UNL     1      -7.616   8.697  11.036  0.00  0.00    +0.000 C 
BRANCH  21  22
ATOM     22  C   UNL     1      -7.885   8.711  12.544  0.00  0.00    +0.000 C 
ATOM     23  C   UNL     1      -8.151   8.721  14.053  0.00  0.00    +0.000 C 
ATOM     24  C   UNL     1      -8.414   8.732  15.562  0.00  0.00    +0.000 C 
ENDBRANCH  21  22
ENDBRANCH  16  20
TORSDOF 3
ENDMDL
MODEL 8
REMARK VINA RESULT:      -5.0      1.749      4.154
REMARK  Name = Dronabinol.pdbqt.pdb
REMARK  3 active torsions:
REMARK  status: ('A' for Active; 'I' for Inactive)
REMARK    1  A    between atoms: C_13  and  O_18
REMARK    2  A    between atoms: C_16  and  C_20
REMARK    3  A    between atoms: C_21  and  C_22
REMARK                            x       y       z     vdW  Elec       q    Type
REMARK                         _______ _______ _______ _____ _____    ______ ____
ROOT
ATOM      1  O   UNL     1      -4.255  11.020   3.155  0.00  0.00    +0.000 OA
ATOM      2  C   UNL     1      -4.974  10.304   5.402  0.00  0.00    +0.000 A 
ATOM      3  C   UNL     1      -5.763   9.232   4.747  0.00  0.00    +0.000 A 
ATOM      4  C   UNL     1      -3.941  11.013   4.567  0.00  0.00    +0.000 C 
ATOM      5  C   UNL     1      -5.171  10.347   6.827  0.00  0.00    +0.000 A 
ATOM      6  C   UNL     1      -5.616   8.983   3.315  0.00  0.00    +0.000 A 
ATOM      7  C   UNL     1      -6.125   9.421   7.605  0.00  0.00    +0.000 A 
ATOM      8  C   UNL     1      -6.594   8.499   5.678  0.00  0.00    +0.000 A 
ATOM      9  C   UNL     1      -6.910   8.415   6.948  0.00  0.00    +0.000 A 
ATOM     10  C   UNL     1      -4.851   9.915   2.598  0.00  0.00    +0.000 A 
ATOM     11  C   UNL     1      -3.870  12.504   4.997  0.00  0.00    +0.000 C 
ATOM     12  C   UNL     1      -2.556  10.328   4.763  0.00  0.00    +0.000 C 
ATOM     13  C   UNL     1      -6.190   7.913   2.617  0.00  0.00    +0.000 A 
ATOM     14  C   UNL     1      -4.697   9.794   1.216  0.00  0.00    +0.000 A 
ATOM     15  C   UNL     1      -8.325   8.170   7.367  0.00  0.00    +0.000 C 
ATOM     16  C   UNL     1      -5.275   8.725   0.539  0.00  0.00    +0.000 A 
ATOM     17  C   UNL     1      -6.019   7.782   1.237  0.00  0.00    +0.000 A 
ENDROOT
BRANCH  13  18
ATOM     18  O   UNL     1      -6.924   6.968   3.275  0.00  0.00    +0.000 OA
ATOM     19  H   UNL     1      -7.205   7.323   4.138  0.00  0.00    +0.000 HD
ENDBRANCH  13  18
BRANCH  16  20
ATOM     20  C   UNL     1      -5.093   8.592  -0.867  0.00  0.00    +0.000 C 
ATOM     21  C   UNL     1      -4.884   8.452  -2.379  0.00  0.00    +0.000 C 
BRANCH  21  22
ATOM     22  C   UNL     1      -4.665   8.314  -3.888  0.00  0.00    +0.000 C 
ATOM     23  C   UNL     1      -4.444   8.170  -5.398  0.00  0.00    +0.000 C 
ATOM     24  C   UNL     1      -4.224   8.024  -6.907  0.00  0.00    +0.000 C 
ENDBRANCH  21  22
ENDBRANCH  16  20
TORSDOF 3
ENDMDL
MODEL 9
REMARK VINA RESULT:      -4.9     26.861     31.580
REMARK  Name = Dronabinol.pdbqt.pdb
REMARK  3 active torsions:
REMARK  status: ('A' for Active; 'I' for Inactive)
REMARK    1  A    between atoms: C_13  and  O_18
REMARK    2  A    between atoms: C_16  and  C_20
REMARK    3  A    between atoms: C_21  and  C_22
REMARK                            x       y       z     vdW  Elec       q    Type
REMARK                         _______ _______ _______ _____ _____    ______ ____
ROOT
ATOM      1  O   UNL     1      -6.835 -19.936  20.521  0.00  0.00    +0.000 OA
ATOM      2  C   UNL     1      -5.250 -18.944  18.914  0.00  0.00    +0.000 A 
ATOM      3  C   UNL     1      -6.000 -17.671  19.045  0.00  0.00    +0.000 A 
ATOM      4  C   UNL     1      -5.510 -20.012  19.943  0.00  0.00    +0.000 C 
ATOM      5  C   UNL     1      -4.204 -18.872  17.929  0.00  0.00    +0.000 A 
ATOM      6  C   UNL     1      -7.040 -17.533  20.062  0.00  0.00    +0.000 A 
ATOM      7  C   UNL     1      -3.903 -17.635  17.061  0.00  0.00    +0.000 A 
ATOM      8  C   UNL     1      -5.547 -16.655  18.119  0.00  0.00    +0.000 A 
ATOM      9  C   UNL     1      -4.665 -16.425  17.176  0.00  0.00    +0.000 A 
ATOM     10  C   UNL     1      -7.394 -18.703  20.751  0.00  0.00    +0.000 A 
ATOM     11  C   UNL     1      -5.417 -21.407  19.268  0.00  0.00    +0.000 C 
ATOM     12  C   UNL     1      -4.463 -19.894  21.089  0.00  0.00    +0.000 C 
ATOM     13  C   UNL     1      -7.709 -16.345  20.379  0.00  0.00    +0.000 A 
ATOM     14  C   UNL     1      -8.415 -18.685  21.703  0.00  0.00    +0.000 A 
ATOM     15  C   UNL     1      -5.044 -15.654  15.951  0.00  0.00    +0.000 C 
ATOM     16  C   UNL     1      -9.069 -17.496  22.005  0.00  0.00    +0.000 A 
ATOM     17  C   UNL     1      -8.716 -16.323  21.347  0.00  0.00    +0.000 A 
ENDROOT
BRANCH  13  18
ATOM     18  O   UNL     1      -7.383 -15.175  19.752  0.00  0.00    +0.000 OA
ATOM     19  H   UNL     1      -6.677 -14.728  20.253  0.00  0.00    +0.000 HD
ENDBRANCH  13  18
BRANCH  16  20
ATOM     20  C   UNL     1     -10.091 -17.477  22.996  0.00  0.00    +0.000 C 
ATOM     21  C   UNL     1     -11.190 -17.471  24.064  0.00  0.00    +0.000 C 
BRANCH  21  22
ATOM     22  C   UNL     1     -12.286 -17.475  25.133  0.00  0.00    +0.000 C 
ATOM     23  C   UNL     1     -13.379 -17.480  26.207  0.00  0.00    +0.000 C 
ATOM     24  C   UNL     1     -14.471 -17.485  27.282  0.00  0.00    +0.000 C 
ENDBRANCH  21  22
ENDBRANCH  16  20
TORSDOF 3
ENDMDL
