MODEL 1
REMARK VINA RESULT:      -6.1      0.000      0.000
REMARK  Name = Ellipticine.pdbqt.pdb
REMARK  0 active torsions:
REMARK  status: ('A' for Active; 'I' for Inactive)
REMARK                            x       y       z     vdW  Elec       q    Type
REMARK                         _______ _______ _______ _____ _____    ______ ____
ROOT
ATOM      1  N   UNL     1      -5.284   9.769   3.894  0.00  0.00    +0.000 N 
ATOM      2  N   UNL     1      -9.207   5.363   6.431  0.00  0.00    +0.000 NA
ATOM      3  C   UNL     1      -6.495   7.975   3.317  0.00  0.00    +0.000 A 
ATOM      4  C   UNL     1      -6.132   8.799   4.386  0.00  0.00    +0.000 A 
ATOM      5  C   UNL     1      -7.372   6.889   3.570  0.00  0.00    +0.000 A 
ATOM      6  C   UNL     1      -5.825   8.493   2.153  0.00  0.00    +0.000 A 
ATOM      7  C   UNL     1      -6.597   8.599   5.696  0.00  0.00    +0.000 A 
ATOM      8  C   UNL     1      -7.467   7.521   5.945  0.00  0.00    +0.000 A 
ATOM      9  C   UNL     1      -7.850   6.673   4.884  0.00  0.00    +0.000 A 
ATOM     10  C   UNL     1      -5.084   9.605   2.547  0.00  0.00    +0.000 A 
ATOM     11  C   UNL     1      -7.786   5.977   2.435  0.00  0.00    +0.000 C 
ATOM     12  C   UNL     1      -5.785   8.113   0.796  0.00  0.00    +0.000 A 
ATOM     13  C   UNL     1      -6.140   9.551   6.776  0.00  0.00    +0.000 C 
ATOM     14  C   UNL     1      -4.305  10.358   1.662  0.00  0.00    +0.000 A 
ATOM     15  C   UNL     1      -7.971   7.261   7.228  0.00  0.00    +0.000 A 
ATOM     16  C   UNL     1      -8.715   5.625   5.200  0.00  0.00    +0.000 A 
ATOM     17  C   UNL     1      -5.014   8.852  -0.104  0.00  0.00    +0.000 A 
ATOM     18  C   UNL     1      -4.287   9.955   0.326  0.00  0.00    +0.000 A 
ATOM     19  C   UNL     1      -8.824   6.189   7.420  0.00  0.00    +0.000 A 
ATOM     20  H   UNL     1      -4.870  10.500   4.460  0.00  0.00    +0.000 HD
ENDROOT
TORSDOF 0
ENDMDL
MODEL 2
REMARK VINA RESULT:      -5.9     24.664     25.843
REMARK  Name = Ellipticine.pdbqt.pdb
REMARK  0 active torsions:
REMARK  status: ('A' for Active; 'I' for Inactive)
REMARK                            x       y       z     vdW  Elec       q    Type
REMARK                         _______ _______ _______ _____ _____    ______ ____
ROOT
ATOM      1  N   UNL     1     -14.858 -14.873   9.624  0.00  0.00    +0.000 N 
ATOM      2  N   UNL     1      -8.877 -17.023   8.712  0.00  0.00    +0.000 NA
ATOM      3  C   UNL     1     -13.065 -15.574  10.769  0.00  0.00    +0.000 A 
ATOM      4  C   UNL     1     -13.567 -15.340   9.485  0.00  0.00    +0.000 A 
ATOM      5  C   UNL     1     -11.739 -16.063  10.894  0.00  0.00    +0.000 A 
ATOM      6  C   UNL     1     -14.114 -15.226  11.691  0.00  0.00    +0.000 A 
ATOM      7  C   UNL     1     -12.820 -15.567   8.319  0.00  0.00    +0.000 A 
ATOM      8  C   UNL     1     -11.505 -16.053   8.446  0.00  0.00    +0.000 A 
ATOM      9  C   UNL     1     -10.971 -16.298   9.730  0.00  0.00    +0.000 A 
ATOM     10  C   UNL     1     -15.210 -14.797  10.946  0.00  0.00    +0.000 A 
ATOM     11  C   UNL     1     -11.163 -16.327  12.269  0.00  0.00    +0.000 C 
ATOM     12  C   UNL     1     -14.227 -15.240  13.095  0.00  0.00    +0.000 A 
ATOM     13  C   UNL     1     -13.463 -15.280   6.983  0.00  0.00    +0.000 C 
ATOM     14  C   UNL     1     -16.413 -14.380  11.527  0.00  0.00    +0.000 A 
ATOM     15  C   UNL     1     -10.699 -16.303   7.325  0.00  0.00    +0.000 A 
ATOM     16  C   UNL     1      -9.663 -16.778   9.783  0.00  0.00    +0.000 A 
ATOM     17  C   UNL     1     -15.419 -14.828  13.696  0.00  0.00    +0.000 A 
ATOM     18  C   UNL     1     -16.492 -14.406  12.921  0.00  0.00    +0.000 A 
ATOM     19  C   UNL     1      -9.413 -16.780   7.504  0.00  0.00    +0.000 A 
ATOM     20  H   UNL     1     -15.457 -14.624   8.845  0.00  0.00    +0.000 HD
ENDROOT
TORSDOF 0
ENDMDL
MODEL 3
REMARK VINA RESULT:      -5.8      4.240      6.437
REMARK  Name = Ellipticine.pdbqt.pdb
REMARK  0 active torsions:
REMARK  status: ('A' for Active; 'I' for Inactive)
REMARK                            x       y       z     vdW  Elec       q    Type
REMARK                         _______ _______ _______ _____ _____    ______ ____
ROOT
ATOM      1  N   UNL     1     -10.617   6.216   6.685  0.00  0.00    +0.000 N 
ATOM      2  N   UNL     1     -11.888   5.924   0.398  0.00  0.00    +0.000 NA
ATOM      3  C   UNL     1      -9.665   5.646   4.740  0.00  0.00    +0.000 A 
ATOM      4  C   UNL     1     -10.837   6.133   5.326  0.00  0.00    +0.000 A 
ATOM      5  C   UNL     1      -9.639   5.469   3.332  0.00  0.00    +0.000 A 
ATOM      6  C   UNL     1      -8.725   5.437   5.810  0.00  0.00    +0.000 A 
ATOM      7  C   UNL     1     -11.985   6.454   4.585  0.00  0.00    +0.000 A 
ATOM      8  C   UNL     1     -11.957   6.279   3.189  0.00  0.00    +0.000 A 
ATOM      9  C   UNL     1     -10.787   5.788   2.570  0.00  0.00    +0.000 A 
ATOM     10  C   UNL     1      -9.349   5.801   7.001  0.00  0.00    +0.000 A 
ATOM     11  C   UNL     1      -8.386   4.944   2.665  0.00  0.00    +0.000 C 
ATOM     12  C   UNL     1      -7.397   4.971   5.870  0.00  0.00    +0.000 A 
ATOM     13  C   UNL     1     -13.197   6.974   5.323  0.00  0.00    +0.000 C 
ATOM     14  C   UNL     1      -8.720   5.724   8.249  0.00  0.00    +0.000 A 
ATOM     15  C   UNL     1     -13.066   6.579   2.384  0.00  0.00    +0.000 A 
ATOM     16  C   UNL     1     -10.827   5.639   1.184  0.00  0.00    +0.000 A 
ATOM     17  C   UNL     1      -6.750   4.886   7.105  0.00  0.00    +0.000 A 
ATOM     18  C   UNL     1      -7.404   5.258   8.272  0.00  0.00    +0.000 A 
ATOM     19  C   UNL     1     -12.988   6.389   1.017  0.00  0.00    +0.000 A 
ATOM     20  H   UNL     1     -11.308   6.541   7.353  0.00  0.00    +0.000 HD
ENDROOT
TORSDOF 0
ENDMDL
MODEL 4
REMARK VINA RESULT:      -5.6     24.295     25.832
REMARK  Name = Ellipticine.pdbqt.pdb
REMARK  0 active torsions:
REMARK  status: ('A' for Active; 'I' for Inactive)
REMARK                            x       y       z     vdW  Elec       q    Type
REMARK                         _______ _______ _______ _____ _____    ______ ____
ROOT
ATOM      1  N   UNL     1     -12.329 -15.839  12.106  0.00  0.00    +0.000 N 
ATOM      2  N   UNL     1     -12.202 -15.446   5.698  0.00  0.00    +0.000 NA
ATOM      3  C   UNL     1     -13.692 -15.563  10.350  0.00  0.00    +0.000 A 
ATOM      4  C   UNL     1     -12.359 -15.748  10.730  0.00  0.00    +0.000 A 
ATOM      5  C   UNL     1     -13.987 -15.440   8.968  0.00  0.00    +0.000 A 
ATOM      6  C   UNL     1     -14.467 -15.548  11.562  0.00  0.00    +0.000 A 
ATOM      7  C   UNL     1     -11.304 -15.816   9.807  0.00  0.00    +0.000 A 
ATOM      8  C   UNL     1     -11.599 -15.693   8.436  0.00  0.00    +0.000 A 
ATOM      9  C   UNL     1     -12.936 -15.506   8.023  0.00  0.00    +0.000 A 
ATOM     10  C   UNL     1     -13.590 -15.721  12.631  0.00  0.00    +0.000 A 
ATOM     11  C   UNL     1     -15.419 -15.239   8.521  0.00  0.00    +0.000 C 
ATOM     12  C   UNL     1     -15.840 -15.401  11.845  0.00  0.00    +0.000 A 
ATOM     13  C   UNL     1      -9.901 -16.017  10.329  0.00  0.00    +0.000 C 
ATOM     14  C   UNL     1     -14.008 -15.756  13.966  0.00  0.00    +0.000 A 
ATOM     15  C   UNL     1     -10.596 -15.751   7.456  0.00  0.00    +0.000 A 
ATOM     16  C   UNL     1     -13.158 -15.392   6.651  0.00  0.00    +0.000 A 
ATOM     17  C   UNL     1     -16.279 -15.433  13.171  0.00  0.00    +0.000 A 
ATOM     18  C   UNL     1     -15.375 -15.608  14.211  0.00  0.00    +0.000 A 
ATOM     19  C   UNL     1     -10.939 -15.624   6.123  0.00  0.00    +0.000 A 
ATOM     20  H   UNL     1     -11.483 -15.975  12.647  0.00  0.00    +0.000 HD
ENDROOT
TORSDOF 0
ENDMDL
MODEL 5
REMARK VINA RESULT:      -5.5     24.600     25.759
REMARK  Name = Ellipticine.pdbqt.pdb
REMARK  0 active torsions:
REMARK  status: ('A' for Active; 'I' for Inactive)
REMARK                            x       y       z     vdW  Elec       q    Type
REMARK                         _______ _______ _______ _____ _____    ______ ____
ROOT
ATOM      1  N   UNL     1     -13.279 -15.109   8.967  0.00  0.00    +0.000 N 
ATOM      2  N   UNL     1     -15.935 -15.528  14.798  0.00  0.00    +0.000 NA
ATOM      3  C   UNL     1     -12.832 -15.840  11.037  0.00  0.00    +0.000 A 
ATOM      4  C   UNL     1     -13.801 -15.224  10.239  0.00  0.00    +0.000 A 
ATOM      5  C   UNL     1     -13.134 -16.073  12.403  0.00  0.00    +0.000 A 
ATOM      6  C   UNL     1     -11.699 -16.093  10.187  0.00  0.00    +0.000 A 
ATOM      7  C   UNL     1     -15.055 -14.827  10.729  0.00  0.00    +0.000 A 
ATOM      8  C   UNL     1     -15.352 -15.059  12.086  0.00  0.00    +0.000 A 
ATOM      9  C   UNL     1     -14.393 -15.679  12.915  0.00  0.00    +0.000 A 
ATOM     10  C   UNL     1     -12.010 -15.626   8.912  0.00  0.00    +0.000 A 
ATOM     11  C   UNL     1     -12.109 -16.738  13.296  0.00  0.00    +0.000 C 
ATOM     12  C   UNL     1     -10.433 -16.678  10.391  0.00  0.00    +0.000 A 
ATOM     13  C   UNL     1     -16.026 -14.169   9.777  0.00  0.00    +0.000 C 
ATOM     14  C   UNL     1     -11.128 -15.712   7.829  0.00  0.00    +0.000 A 
ATOM     15  C   UNL     1     -16.584 -14.689  12.645  0.00  0.00    +0.000 A 
ATOM     16  C   UNL     1     -14.753 -15.879  14.248  0.00  0.00    +0.000 A 
ATOM     17  C   UNL     1      -9.537 -16.773   9.324  0.00  0.00    +0.000 A 
ATOM     18  C   UNL     1      -9.883 -16.297   8.065  0.00  0.00    +0.000 A 
ATOM     19  C   UNL     1     -16.827 -14.939  13.983  0.00  0.00    +0.000 A 
ATOM     20  H   UNL     1     -13.775 -14.695   8.186  0.00  0.00    +0.000 HD
ENDROOT
TORSDOF 0
ENDMDL
MODEL 6
REMARK VINA RESULT:      -5.4     24.693     25.639
REMARK  Name = Ellipticine.pdbqt.pdb
REMARK  0 active torsions:
REMARK  status: ('A' for Active; 'I' for Inactive)
REMARK                            x       y       z     vdW  Elec       q    Type
REMARK                         _______ _______ _______ _____ _____    ______ ____
ROOT
ATOM      1  N   UNL     1     -14.175 -15.206  12.138  0.00  0.00    +0.000 N 
ATOM      2  N   UNL     1      -9.962 -16.900   7.598  0.00  0.00    +0.000 NA
ATOM      3  C   UNL     1     -13.916 -15.204   9.913  0.00  0.00    +0.000 A 
ATOM      4  C   UNL     1     -13.307 -15.551  11.123  0.00  0.00    +0.000 A 
ATOM      5  C   UNL     1     -13.214 -15.462   8.708  0.00  0.00    +0.000 A 
ATOM      6  C   UNL     1     -15.195 -14.633  10.246  0.00  0.00    +0.000 A 
ATOM      7  C   UNL     1     -12.036 -16.141  11.197  0.00  0.00    +0.000 A 
ATOM      8  C   UNL     1     -11.341 -16.396   9.999  0.00  0.00    +0.000 A 
ATOM      9  C   UNL     1     -11.932 -16.056   8.763  0.00  0.00    +0.000 A 
ATOM     10  C   UNL     1     -15.322 -14.650  11.633  0.00  0.00    +0.000 A 
ATOM     11  C   UNL     1     -13.844 -15.099   7.380  0.00  0.00    +0.000 C 
ATOM     12  C   UNL     1     -16.257 -14.101   9.486  0.00  0.00    +0.000 A 
ATOM     13  C   UNL     1     -11.473 -16.475  12.558  0.00  0.00    +0.000 C 
ATOM     14  C   UNL     1     -16.450 -14.166  12.304  0.00  0.00    +0.000 A 
ATOM     15  C   UNL     1     -10.067 -16.983   9.995  0.00  0.00    +0.000 A 
ATOM     16  C   UNL     1     -11.189 -16.336   7.616  0.00  0.00    +0.000 A 
ATOM     17  C   UNL     1     -17.393 -13.613  10.136  0.00  0.00    +0.000 A 
ATOM     18  C   UNL     1     -17.484 -13.647  11.522  0.00  0.00    +0.000 A 
ATOM     19  C   UNL     1      -9.426 -17.212   8.791  0.00  0.00    +0.000 A 
ATOM     20  H   UNL     1     -13.981 -15.349  13.123  0.00  0.00    +0.000 HD
ENDROOT
TORSDOF 0
ENDMDL
MODEL 7
REMARK VINA RESULT:      -5.4      2.893      5.432
REMARK  Name = Ellipticine.pdbqt.pdb
REMARK  0 active torsions:
REMARK  status: ('A' for Active; 'I' for Inactive)
REMARK                            x       y       z     vdW  Elec       q    Type
REMARK                         _______ _______ _______ _____ _____    ______ ____
ROOT
ATOM      1  N   UNL     1      -8.990   5.623   1.755  0.00  0.00    +0.000 N 
ATOM      2  N   UNL     1      -8.245   6.775   8.028  0.00  0.00    +0.000 NA
ATOM      3  C   UNL     1     -10.100   5.485   3.696  0.00  0.00    +0.000 A 
ATOM      4  C   UNL     1      -8.884   5.852   3.112  0.00  0.00    +0.000 A 
ATOM      5  C   UNL     1     -10.242   5.628   5.100  0.00  0.00    +0.000 A 
ATOM      6  C   UNL     1     -10.947   5.023   2.628  0.00  0.00    +0.000 A 
ATOM      7  C   UNL     1      -7.802   6.354   3.851  0.00  0.00    +0.000 A 
ATOM      8  C   UNL     1      -7.946   6.496   5.244  0.00  0.00    +0.000 A 
ATOM      9  C   UNL     1      -9.162   6.133   5.862  0.00  0.00    +0.000 A 
ATOM     10  C   UNL     1     -10.227   5.122   1.440  0.00  0.00    +0.000 A 
ATOM     11  C   UNL     1     -11.545   5.241   5.766  0.00  0.00    +0.000 C 
ATOM     12  C   UNL     1     -12.265   4.528   2.569  0.00  0.00    +0.000 A 
ATOM     13  C   UNL     1      -6.534   6.719   3.116  0.00  0.00    +0.000 C 
ATOM     14  C   UNL     1     -10.750   4.755   0.195  0.00  0.00    +0.000 A 
ATOM     15  C   UNL     1      -6.907   6.991   6.047  0.00  0.00    +0.000 A 
ATOM     16  C   UNL     1      -9.237   6.299   7.244  0.00  0.00    +0.000 A 
ATOM     17  C   UNL     1     -12.807   4.156   1.336  0.00  0.00    +0.000 A 
ATOM     18  C   UNL     1     -12.059   4.269   0.171  0.00  0.00    +0.000 A 
ATOM     19  C   UNL     1      -7.099   7.111   7.411  0.00  0.00    +0.000 A 
ATOM     20  H   UNL     1      -8.247   5.804   1.090  0.00  0.00    +0.000 HD
ENDROOT
TORSDOF 0
ENDMDL
MODEL 8
REMARK VINA RESULT:      -5.2     25.066     26.741
REMARK  Name = Ellipticine.pdbqt.pdb
REMARK  0 active torsions:
REMARK  status: ('A' for Active; 'I' for Inactive)
REMARK                            x       y       z     vdW  Elec       q    Type
REMARK                         _______ _______ _______ _____ _____    ______ ____
ROOT
ATOM      1  N   UNL     1     -14.391 -15.041  10.886  0.00  0.00    +0.000 N 
ATOM      2  N   UNL     1     -15.441 -16.466  17.058  0.00  0.00    +0.000 NA
ATOM      3  C   UNL     1     -13.509 -16.215  12.578  0.00  0.00    +0.000 A 
ATOM      4  C   UNL     1     -14.568 -15.379  12.212  0.00  0.00    +0.000 A 
ATOM      5  C   UNL     1     -13.465 -16.703  13.909  0.00  0.00    +0.000 A 
ATOM      6  C   UNL     1     -12.682 -16.366  11.410  0.00  0.00    +0.000 A 
ATOM      7  C   UNL     1     -15.587 -15.004  13.101  0.00  0.00    +0.000 A 
ATOM      8  C   UNL     1     -15.542 -15.490  14.421  0.00  0.00    +0.000 A 
ATOM      9  C   UNL     1     -14.484 -16.335  14.819  0.00  0.00    +0.000 A 
ATOM     10  C   UNL     1     -13.258 -15.625  10.381  0.00  0.00    +0.000 A 
ATOM     11  C   UNL     1     -12.333 -17.610  14.340  0.00  0.00    +0.000 C 
ATOM     12  C   UNL     1     -11.491 -17.070  11.138  0.00  0.00    +0.000 A 
ATOM     13  C   UNL     1     -16.685 -14.096  12.598  0.00  0.00    +0.000 C 
ATOM     14  C   UNL     1     -12.712 -15.548   9.095  0.00  0.00    +0.000 A 
ATOM     15  C   UNL     1     -16.526 -15.156  15.365  0.00  0.00    +0.000 A 
ATOM     16  C   UNL     1     -14.501 -16.780  16.141  0.00  0.00    +0.000 A 
ATOM     17  C   UNL     1     -10.928 -17.006   9.861  0.00  0.00    +0.000 A 
ATOM     18  C   UNL     1     -11.532 -16.256   8.859  0.00  0.00    +0.000 A 
ATOM     19  C   UNL     1     -16.436 -15.660  16.649  0.00  0.00    +0.000 A 
ATOM     20  H   UNL     1     -15.020 -14.440  10.365  0.00  0.00    +0.000 HD
ENDROOT
TORSDOF 0
ENDMDL
MODEL 9
REMARK VINA RESULT:      -5.1     24.042     26.650
REMARK  Name = Ellipticine.pdbqt.pdb
REMARK  0 active torsions:
REMARK  status: ('A' for Active; 'I' for Inactive)
REMARK                            x       y       z     vdW  Elec       q    Type
REMARK                         _______ _______ _______ _____ _____    ______ ____
ROOT
ATOM      1  N   UNL     1     -15.358 -15.252  13.918  0.00  0.00    +0.000 N 
ATOM      2  N   UNL     1     -14.423 -14.576   7.602  0.00  0.00    +0.000 NA
ATOM      3  C   UNL     1     -14.055 -16.005  12.259  0.00  0.00    +0.000 A 
ATOM      4  C   UNL     1     -15.114 -15.145  12.565  0.00  0.00    +0.000 A 
ATOM      5  C   UNL     1     -13.611 -16.076  10.914  0.00  0.00    +0.000 A 
ATOM      6  C   UNL     1     -13.669 -16.637  13.494  0.00  0.00    +0.000 A 
ATOM      7  C   UNL     1     -15.756 -14.352  11.601  0.00  0.00    +0.000 A 
ATOM      8  C   UNL     1     -15.314 -14.424  10.266  0.00  0.00    +0.000 A 
ATOM      9  C   UNL     1     -14.247 -15.283   9.929  0.00  0.00    +0.000 A 
ATOM     10  C   UNL     1     -14.498 -16.147  14.501  0.00  0.00    +0.000 A 
ATOM     11  C   UNL     1     -12.467 -16.996  10.548  0.00  0.00    +0.000 C 
ATOM     12  C   UNL     1     -12.686 -17.585  13.843  0.00  0.00    +0.000 A 
ATOM     13  C   UNL     1     -16.891 -13.458  12.043  0.00  0.00    +0.000 C 
ATOM     14  C   UNL     1     -14.399 -16.550  15.837  0.00  0.00    +0.000 A 
ATOM     15  C   UNL     1     -15.908 -13.660   9.250  0.00  0.00    +0.000 A 
ATOM     16  C   UNL     1     -13.860 -15.306   8.589  0.00  0.00    +0.000 A 
ATOM     17  C   UNL     1     -12.571 -18.001  15.171  0.00  0.00    +0.000 A 
ATOM     18  C   UNL     1     -13.415 -17.490  16.149  0.00  0.00    +0.000 A 
ATOM     19  C   UNL     1     -15.437 -13.767   7.954  0.00  0.00    +0.000 A 
ATOM     20  H   UNL     1     -16.079 -14.733  14.407  0.00  0.00    +0.000 HD
ENDROOT
TORSDOF 0
ENDMDL
