MODEL 1
REMARK VINA RESULT:      -5.4      0.000      0.000
REMARK  Name = Enterolactone.pdbqt.pdb
REMARK  2 active torsions:
REMARK  status: ('A' for Active; 'I' for Inactive)
REMARK    1  A    between atoms: C_10  and  O_14
REMARK    2  A    between atoms: C_19  and  O_23
REMARK                            x       y       z     vdW  Elec       q    Type
REMARK                         _______ _______ _______ _____ _____    ______ ____
ROOT
ATOM      1  O   UNL     1     -12.831 -18.350  16.952  0.00  0.00    +0.000 OA
ATOM      2  O   UNL     1     -13.104 -18.934  14.712  0.00  0.00    +0.000 OA
ATOM      3  C   UNL     1     -14.166 -16.392  17.007  0.00  0.00    +0.000 C 
ATOM      4  C   UNL     1     -14.188 -16.957  15.679  0.00  0.00    +0.000 C 
ATOM      5  C   UNL     1     -13.340 -17.331  17.626  0.00  0.00    +0.000 C 
ATOM      6  C   UNL     1     -13.321 -18.202  15.660  0.00  0.00    +0.000 C 
ATOM      7  C   UNL     1     -15.125 -15.519  17.555  0.00  0.00    +0.000 C 
ATOM      8  C   UNL     1     -16.101 -14.629  18.091  0.00  0.00    +0.000 C 
ATOM      9  C   UNL     1     -17.426 -14.722  17.672  0.00  0.00    +0.000 C 
ATOM     10  C   UNL     1     -18.367 -13.840  18.195  0.00  0.00    +0.000 C 
ATOM     11  C   UNL     1     -18.001 -12.873  19.125  0.00  0.00    +0.000 C 
ATOM     12  C   UNL     1     -16.675 -12.786  19.540  0.00  0.00    +0.000 C 
ATOM     13  C   UNL     1     -15.724 -13.664  19.023  0.00  0.00    +0.000 C 
ATOM     14  C   UNL     1     -14.957 -16.484  14.592  0.00  0.00    +0.000 C 
ATOM     15  C   UNL     1     -15.739 -16.003  13.502  0.00  0.00    +0.000 C 
ATOM     16  C   UNL     1     -15.895 -14.633  13.312  0.00  0.00    +0.000 C 
ATOM     17  C   UNL     1     -16.670 -14.177  12.250  0.00  0.00    +0.000 C 
ATOM     18  C   UNL     1     -17.289 -15.070  11.382  0.00  0.00    +0.000 C 
ATOM     19  C   UNL     1     -17.129 -16.440  11.577  0.00  0.00    +0.000 C 
ATOM     20  C   UNL     1     -16.355 -16.908  12.638  0.00  0.00    +0.000 C 
ENDROOT
BRANCH  10  21
ATOM     21  O   UNL     1     -19.673 -13.904  17.805  0.00  0.00    +0.000 OA
ATOM     22  H   UNL     1     -20.234 -13.646  18.558  0.00  0.00    +0.000 HD
ENDBRANCH  10  21
BRANCH  17  23
ATOM     23  O   UNL     1     -16.844 -12.841  12.037  0.00  0.00    +0.000 OA
ATOM     24  H   UNL     1     -17.433 -12.725  11.270  0.00  0.00    +0.000 HD
ENDBRANCH  17  23
TORSDOF 2
ENDMDL
MODEL 2
REMARK VINA RESULT:      -5.3     10.156     14.091
REMARK  Name = Enterolactone.pdbqt.pdb
REMARK  2 active torsions:
REMARK  status: ('A' for Active; 'I' for Inactive)
REMARK    1  A    between atoms: C_10  and  O_14
REMARK    2  A    between atoms: C_19  and  O_23
REMARK                            x       y       z     vdW  Elec       q    Type
REMARK                         _______ _______ _______ _____ _____    ______ ____
ROOT
ATOM      1  O   UNL     1     -19.577  -1.225  21.693  0.00  0.00    +0.000 OA
ATOM      2  O   UNL     1     -21.048  -1.623  23.457  0.00  0.00    +0.000 OA
ATOM      3  C   UNL     1     -19.566  -3.380  20.706  0.00  0.00    +0.000 C 
ATOM      4  C   UNL     1     -20.444  -3.376  21.852  0.00  0.00    +0.000 C 
ATOM      5  C   UNL     1     -19.152  -2.048  20.748  0.00  0.00    +0.000 C 
ATOM      6  C   UNL     1     -20.431  -1.994  22.476  0.00  0.00    +0.000 C 
ATOM      7  C   UNL     1     -19.605  -4.289  19.632  0.00  0.00    +0.000 C 
ATOM      8  C   UNL     1     -19.653  -5.224  18.557  0.00  0.00    +0.000 C 
ATOM      9  C   UNL     1     -20.872  -5.785  18.182  0.00  0.00    +0.000 C 
ATOM     10  C   UNL     1     -20.904  -6.704  17.138  0.00  0.00    +0.000 C 
ATOM     11  C   UNL     1     -19.741  -7.066  16.468  0.00  0.00    +0.000 C 
ATOM     12  C   UNL     1     -18.525  -6.501  16.847  0.00  0.00    +0.000 C 
ATOM     13  C   UNL     1     -18.481  -5.580  17.892  0.00  0.00    +0.000 C 
ATOM     14  C   UNL     1     -21.252  -4.454  22.277  0.00  0.00    +0.000 C 
ATOM     15  C   UNL     1     -22.068  -5.545  22.697  0.00  0.00    +0.000 C 
ATOM     16  C   UNL     1     -21.577  -6.845  22.625  0.00  0.00    +0.000 C 
ATOM     17  C   UNL     1     -22.388  -7.902  23.028  0.00  0.00    +0.000 C 
ATOM     18  C   UNL     1     -23.677  -7.675  23.498  0.00  0.00    +0.000 C 
ATOM     19  C   UNL     1     -24.162  -6.371  23.568  0.00  0.00    +0.000 C 
ATOM     20  C   UNL     1     -23.359  -5.304  23.168  0.00  0.00    +0.000 C 
ENDROOT
BRANCH  10  21
ATOM     21  O   UNL     1     -22.081  -7.272  16.746  0.00  0.00    +0.000 OA
ATOM     22  H   UNL     1     -22.777  -7.009  17.373  0.00  0.00    +0.000 HD
ENDBRANCH  10  21
BRANCH  17  23
ATOM     23  O   UNL     1     -21.939  -9.188  22.968  0.00  0.00    +0.000 OA
ATOM     24  H   UNL     1     -22.218  -9.575  22.119  0.00  0.00    +0.000 HD
ENDBRANCH  17  23
TORSDOF 2
ENDMDL
MODEL 3
REMARK VINA RESULT:      -5.3     19.210     21.447
REMARK  Name = Enterolactone.pdbqt.pdb
REMARK  2 active torsions:
REMARK  status: ('A' for Active; 'I' for Inactive)
REMARK    1  A    between atoms: C_10  and  O_14
REMARK    2  A    between atoms: C_19  and  O_23
REMARK                            x       y       z     vdW  Elec       q    Type
REMARK                         _______ _______ _______ _____ _____    ______ ____
ROOT
ATOM      1  O   UNL     1       9.152 -15.247  11.564  0.00  0.00    +0.000 OA
ATOM      2  O   UNL     1       8.454 -17.423  12.022  0.00  0.00    +0.000 OA
ATOM      3  C   UNL     1       7.060 -14.137  11.685  0.00  0.00    +0.000 C 
ATOM      4  C   UNL     1       6.879 -15.544  11.951  0.00  0.00    +0.000 C 
ATOM      5  C   UNL     1       8.442 -14.131  11.492  0.00  0.00    +0.000 C 
ATOM      6  C   UNL     1       8.225 -16.239  11.860  0.00  0.00    +0.000 C 
ATOM      7  C   UNL     1       6.189 -13.100  12.067  0.00  0.00    +0.000 C 
ATOM      8  C   UNL     1       5.292 -12.063  12.454  0.00  0.00    +0.000 C 
ATOM      9  C   UNL     1       4.538 -12.199  13.618  0.00  0.00    +0.000 C 
ATOM     10  C   UNL     1       3.657 -11.184  13.980  0.00  0.00    +0.000 C 
ATOM     11  C   UNL     1       3.522 -10.042  13.197  0.00  0.00    +0.000 C 
ATOM     12  C   UNL     1       4.279  -9.912  12.035  0.00  0.00    +0.000 C 
ATOM     13  C   UNL     1       5.164 -10.923  11.663  0.00  0.00    +0.000 C 
ATOM     14  C   UNL     1       5.666 -16.165  12.321  0.00  0.00    +0.000 C 
ATOM     15  C   UNL     1       4.438 -16.784  12.700  0.00  0.00    +0.000 C 
ATOM     16  C   UNL     1       3.246 -16.373  12.111  0.00  0.00    +0.000 C 
ATOM     17  C   UNL     1       2.053 -16.977  12.498  0.00  0.00    +0.000 C 
ATOM     18  C   UNL     1       2.039 -17.981  13.460  0.00  0.00    +0.000 C 
ATOM     19  C   UNL     1       3.236 -18.388  14.044  0.00  0.00    +0.000 C 
ATOM     20  C   UNL     1       4.437 -17.790  13.665  0.00  0.00    +0.000 C 
ENDROOT
BRANCH  10  21
ATOM     21  O   UNL     1       2.904 -11.286  15.113  0.00  0.00    +0.000 OA
ATOM     22  H   UNL     1       2.241 -10.574  15.110  0.00  0.00    +0.000 HD
ENDBRANCH  10  21
BRANCH  17  23
ATOM     23  O   UNL     1       0.867 -16.597  11.942  0.00  0.00    +0.000 OA
ATOM     24  H   UNL     1       0.473 -17.367  11.495  0.00  0.00    +0.000 HD
ENDBRANCH  17  23
TORSDOF 2
ENDMDL
MODEL 4
REMARK VINA RESULT:      -5.3      2.745      7.487
REMARK  Name = Enterolactone.pdbqt.pdb
REMARK  2 active torsions:
REMARK  status: ('A' for Active; 'I' for Inactive)
REMARK    1  A    between atoms: C_10  and  O_14
REMARK    2  A    between atoms: C_19  and  O_23
REMARK                            x       y       z     vdW  Elec       q    Type
REMARK                         _______ _______ _______ _____ _____    ______ ____
ROOT
ATOM      1  O   UNL     1     -17.464 -13.182  10.955  0.00  0.00    +0.000 OA
ATOM      2  O   UNL     1     -18.726 -13.397  12.903  0.00  0.00    +0.000 OA
ATOM      3  C   UNL     1     -15.524 -14.373  11.619  0.00  0.00    +0.000 C 
ATOM      4  C   UNL     1     -16.487 -14.377  12.694  0.00  0.00    +0.000 C 
ATOM      5  C   UNL     1     -16.255 -13.646  10.678  0.00  0.00    +0.000 C 
ATOM      6  C   UNL     1     -17.716 -13.603  12.256  0.00  0.00    +0.000 C 
ATOM      7  C   UNL     1     -14.470 -15.289  11.444  0.00  0.00    +0.000 C 
ATOM      8  C   UNL     1     -13.403 -16.220  11.287  0.00  0.00    +0.000 C 
ATOM      9  C   UNL     1     -13.554 -17.528  11.741  0.00  0.00    +0.000 C 
ATOM     10  C   UNL     1     -12.500 -18.425  11.591  0.00  0.00    +0.000 C 
ATOM     11  C   UNL     1     -11.306 -18.032  10.997  0.00  0.00    +0.000 C 
ATOM     12  C   UNL     1     -11.161 -16.723  10.545  0.00  0.00    +0.000 C 
ATOM     13  C   UNL     1     -12.210 -15.816  10.690  0.00  0.00    +0.000 C 
ATOM     14  C   UNL     1     -16.350 -15.059  13.924  0.00  0.00    +0.000 C 
ATOM     15  C   UNL     1     -16.206 -15.755  15.159  0.00  0.00    +0.000 C 
ATOM     16  C   UNL     1     -14.965 -15.801  15.788  0.00  0.00    +0.000 C 
ATOM     17  C   UNL     1     -14.836 -16.493  16.988  0.00  0.00    +0.000 C 
ATOM     18  C   UNL     1     -15.927 -17.136  17.564  0.00  0.00    +0.000 C 
ATOM     19  C   UNL     1     -17.166 -17.085  16.930  0.00  0.00    +0.000 C 
ATOM     20  C   UNL     1     -17.307 -16.395  15.727  0.00  0.00    +0.000 C 
ENDROOT
BRANCH  10  21
ATOM     21  O   UNL     1     -12.615 -19.714  12.024  0.00  0.00    +0.000 OA
ATOM     22  H   UNL     1     -12.265 -19.769  12.931  0.00  0.00    +0.000 HD
ENDBRANCH  10  21
BRANCH  17  23
ATOM     23  O   UNL     1     -13.634 -16.559  17.629  0.00  0.00    +0.000 OA
ATOM     24  H   UNL     1     -13.095 -15.796  17.355  0.00  0.00    +0.000 HD
ENDBRANCH  17  23
TORSDOF 2
ENDMDL
MODEL 5
REMARK VINA RESULT:      -5.2      9.581     12.118
REMARK  Name = Enterolactone.pdbqt.pdb
REMARK  2 active torsions:
REMARK  status: ('A' for Active; 'I' for Inactive)
REMARK    1  A    between atoms: C_10  and  O_14
REMARK    2  A    between atoms: C_19  and  O_23
REMARK                            x       y       z     vdW  Elec       q    Type
REMARK                         _______ _______ _______ _____ _____    ______ ____
ROOT
ATOM      1  O   UNL     1     -17.757  -7.208  16.282  0.00  0.00    +0.000 OA
ATOM      2  O   UNL     1     -19.385  -7.329  14.619  0.00  0.00    +0.000 OA
ATOM      3  C   UNL     1     -18.874  -5.784  17.813  0.00  0.00    +0.000 C 
ATOM      4  C   UNL     1     -19.717  -6.019  16.666  0.00  0.00    +0.000 C 
ATOM      5  C   UNL     1     -17.776  -6.558  17.435  0.00  0.00    +0.000 C 
ATOM      6  C   UNL     1     -18.983  -6.923  15.693  0.00  0.00    +0.000 C 
ATOM      7  C   UNL     1     -19.302  -5.372  19.089  0.00  0.00    +0.000 C 
ATOM      8  C   UNL     1     -19.752  -4.946  20.372  0.00  0.00    +0.000 C 
ATOM      9  C   UNL     1     -21.016  -5.321  20.822  0.00  0.00    +0.000 C 
ATOM     10  C   UNL     1     -21.448  -4.890  22.073  0.00  0.00    +0.000 C 
ATOM     11  C   UNL     1     -20.637  -4.093  22.874  0.00  0.00    +0.000 C 
ATOM     12  C   UNL     1     -19.374  -3.721  22.418  0.00  0.00    +0.000 C 
ATOM     13  C   UNL     1     -18.931  -4.147  21.167  0.00  0.00    +0.000 C 
ATOM     14  C   UNL     1     -21.043  -5.558  16.506  0.00  0.00    +0.000 C 
ATOM     15  C   UNL     1     -22.382  -5.093  16.355  0.00  0.00    +0.000 C 
ATOM     16  C   UNL     1     -22.727  -3.820  16.800  0.00  0.00    +0.000 C 
ATOM     17  C   UNL     1     -24.040  -3.382  16.657  0.00  0.00    +0.000 C 
ATOM     18  C   UNL     1     -25.007  -4.198  16.078  0.00  0.00    +0.000 C 
ATOM     19  C   UNL     1     -24.654  -5.470  15.634  0.00  0.00    +0.000 C 
ATOM     20  C   UNL     1     -23.342  -5.920  15.773  0.00  0.00    +0.000 C 
ENDROOT
BRANCH  10  21
ATOM     21  O   UNL     1     -22.680  -5.240  22.544  0.00  0.00    +0.000 OA
ATOM     22  H   UNL     1     -22.767  -4.915  23.457  0.00  0.00    +0.000 HD
ENDBRANCH  10  21
BRANCH  17  23
ATOM     23  O   UNL     1     -24.412  -2.141  17.084  0.00  0.00    +0.000 OA
ATOM     24  H   UNL     1     -25.103  -1.803  16.486  0.00  0.00    +0.000 HD
ENDBRANCH  17  23
TORSDOF 2
ENDMDL
MODEL 6
REMARK VINA RESULT:      -5.2     26.441     28.689
REMARK  Name = Enterolactone.pdbqt.pdb
REMARK  2 active torsions:
REMARK  status: ('A' for Active; 'I' for Inactive)
REMARK    1  A    between atoms: C_10  and  O_14
REMARK    2  A    between atoms: C_19  and  O_23
REMARK                            x       y       z     vdW  Elec       q    Type
REMARK                         _______ _______ _______ _____ _____    ______ ____
ROOT
ATOM      1  O   UNL     1      -3.636  10.739   7.483  0.00  0.00    +0.000 OA
ATOM      2  O   UNL     1      -2.753  11.560   5.487  0.00  0.00    +0.000 OA
ATOM      3  C   UNL     1      -5.559   9.644   6.633  0.00  0.00    +0.000 C 
ATOM      4  C   UNL     1      -4.821  10.242   5.546  0.00  0.00    +0.000 C 
ATOM      5  C   UNL     1      -4.726  10.017   7.689  0.00  0.00    +0.000 C 
ATOM      6  C   UNL     1      -3.601  10.946   6.109  0.00  0.00    +0.000 C 
ATOM      7  C   UNL     1      -6.480   8.585   6.530  0.00  0.00    +0.000 C 
ATOM      8  C   UNL     1      -7.415   7.517   6.405  0.00  0.00    +0.000 C 
ATOM      9  C   UNL     1      -7.244   6.559   5.408  0.00  0.00    +0.000 C 
ATOM     10  C   UNL     1      -8.170   5.527   5.291  0.00  0.00    +0.000 C 
ATOM     11  C   UNL     1      -9.259   5.442   6.152  0.00  0.00    +0.000 C 
ATOM     12  C   UNL     1      -9.424   6.403   7.147  0.00  0.00    +0.000 C 
ATOM     13  C   UNL     1      -8.503   7.440   7.274  0.00  0.00    +0.000 C 
ATOM     14  C   UNL     1      -5.131  10.122   4.173  0.00  0.00    +0.000 C 
ATOM     15  C   UNL     1      -5.448   9.993   2.790  0.00  0.00    +0.000 C 
ATOM     16  C   UNL     1      -6.778  10.017   2.378  0.00  0.00    +0.000 C 
ATOM     17  C   UNL     1      -7.074   9.879   1.026  0.00  0.00    +0.000 C 
ATOM     18  C   UNL     1      -6.063   9.716   0.085  0.00  0.00    +0.000 C 
ATOM     19  C   UNL     1      -4.734   9.693   0.503  0.00  0.00    +0.000 C 
ATOM     20  C   UNL     1      -4.425   9.831   1.856  0.00  0.00    +0.000 C 
ENDROOT
BRANCH  10  21
ATOM     21  O   UNL     1      -8.032   4.573   4.325  0.00  0.00    +0.000 OA
ATOM     22  H   UNL     1      -8.900   4.163   4.168  0.00  0.00    +0.000 HD
ENDBRANCH  10  21
BRANCH  17  23
ATOM     23  O   UNL     1      -8.366   9.897   0.589  0.00  0.00    +0.000 OA
ATOM     24  H   UNL     1      -8.614  10.819   0.396  0.00  0.00    +0.000 HD
ENDBRANCH  17  23
TORSDOF 2
ENDMDL
MODEL 7
REMARK VINA RESULT:      -5.1      3.813      8.180
REMARK  Name = Enterolactone.pdbqt.pdb
REMARK  2 active torsions:
REMARK  status: ('A' for Active; 'I' for Inactive)
REMARK    1  A    between atoms: C_10  and  O_14
REMARK    2  A    between atoms: C_19  and  O_23
REMARK                            x       y       z     vdW  Elec       q    Type
REMARK                         _______ _______ _______ _____ _____    ______ ____
ROOT
ATOM      1  O   UNL     1     -16.419 -14.198  11.222  0.00  0.00    +0.000 OA
ATOM      2  O   UNL     1     -17.485 -15.241  13.014  0.00  0.00    +0.000 OA
ATOM      3  C   UNL     1     -14.251 -15.124  11.470  0.00  0.00    +0.000 C 
ATOM      4  C   UNL     1     -15.122 -15.645  12.496  0.00  0.00    +0.000 C 
ATOM      5  C   UNL     1     -15.167 -14.306  10.807  0.00  0.00    +0.000 C 
ATOM      6  C   UNL     1     -16.501 -15.035  12.328  0.00  0.00    +0.000 C 
ATOM      7  C   UNL     1     -13.059 -15.715  11.012  0.00  0.00    +0.000 C 
ATOM      8  C   UNL     1     -11.849 -16.323  10.566  0.00  0.00    +0.000 C 
ATOM      9  C   UNL     1     -11.722 -17.710  10.591  0.00  0.00    +0.000 C 
ATOM     10  C   UNL     1     -10.532 -18.291  10.163  0.00  0.00    +0.000 C 
ATOM     11  C   UNL     1      -9.475 -17.507   9.713  0.00  0.00    +0.000 C 
ATOM     12  C   UNL     1      -9.608 -16.121   9.691  0.00  0.00    +0.000 C 
ATOM     13  C   UNL     1     -10.796 -15.528  10.118  0.00  0.00    +0.000 C 
ATOM     14  C   UNL     1     -14.777 -16.628  13.451  0.00  0.00    +0.000 C 
ATOM     15  C   UNL     1     -14.423 -17.623  14.408  0.00  0.00    +0.000 C 
ATOM     16  C   UNL     1     -13.156 -17.611  14.983  0.00  0.00    +0.000 C 
ATOM     17  C   UNL     1     -12.819 -18.595  15.908  0.00  0.00    +0.000 C 
ATOM     18  C   UNL     1     -13.729 -19.586  16.261  0.00  0.00    +0.000 C 
ATOM     19  C   UNL     1     -14.995 -19.592  15.682  0.00  0.00    +0.000 C 
ATOM     20  C   UNL     1     -15.344 -18.611  14.754  0.00  0.00    +0.000 C 
ENDROOT
BRANCH  10  21
ATOM     21  O   UNL     1     -10.375 -19.646  10.174  0.00  0.00    +0.000 OA
ATOM     22  H   UNL     1     -10.902 -20.026   9.450  0.00  0.00    +0.000 HD
ENDBRANCH  10  21
BRANCH  17  23
ATOM     23  O   UNL     1     -11.585 -18.613  16.489  0.00  0.00    +0.000 OA
ATOM     24  H   UNL     1     -11.535 -17.881  17.130  0.00  0.00    +0.000 HD
ENDBRANCH  17  23
TORSDOF 2
ENDMDL
MODEL 8
REMARK VINA RESULT:      -5.0     27.818     30.164
REMARK  Name = Enterolactone.pdbqt.pdb
REMARK  2 active torsions:
REMARK  status: ('A' for Active; 'I' for Inactive)
REMARK    1  A    between atoms: C_10  and  O_14
REMARK    2  A    between atoms: C_19  and  O_23
REMARK                            x       y       z     vdW  Elec       q    Type
REMARK                         _______ _______ _______ _____ _____    ______ ____
ROOT
ATOM      1  O   UNL     1      -4.050  10.292  -0.014  0.00  0.00    +0.000 OA
ATOM      2  O   UNL     1      -5.757   8.705  -0.081  0.00  0.00    +0.000 OA
ATOM      3  C   UNL     1      -3.954  10.658   2.326  0.00  0.00    +0.000 C 
ATOM      4  C   UNL     1      -4.967   9.673   2.030  0.00  0.00    +0.000 C 
ATOM      5  C   UNL     1      -3.509  10.905   1.027  0.00  0.00    +0.000 C 
ATOM      6  C   UNL     1      -5.021   9.459   0.529  0.00  0.00    +0.000 C 
ATOM      7  C   UNL     1      -3.304  10.837   3.561  0.00  0.00    +0.000 C 
ATOM      8  C   UNL     1      -2.662  11.009   4.822  0.00  0.00    +0.000 C 
ATOM      9  C   UNL     1      -2.466   9.910   5.655  0.00  0.00    +0.000 C 
ATOM     10  C   UNL     1      -1.847  10.093   6.888  0.00  0.00    +0.000 C 
ATOM     11  C   UNL     1      -1.424  11.354   7.295  0.00  0.00    +0.000 C 
ATOM     12  C   UNL     1      -1.622  12.449   6.457  0.00  0.00    +0.000 C 
ATOM     13  C   UNL     1      -2.241  12.277   5.220  0.00  0.00    +0.000 C 
ATOM     14  C   UNL     1      -5.728   8.958   2.983  0.00  0.00    +0.000 C 
ATOM     15  C   UNL     1      -6.487   8.238   3.950  0.00  0.00    +0.000 C 
ATOM     16  C   UNL     1      -6.938   8.884   5.097  0.00  0.00    +0.000 C 
ATOM     17  C   UNL     1      -7.669   8.166   6.039  0.00  0.00    +0.000 C 
ATOM     18  C   UNL     1      -7.953   6.818   5.848  0.00  0.00    +0.000 C 
ATOM     19  C   UNL     1      -7.500   6.178   4.697  0.00  0.00    +0.000 C 
ATOM     20  C   UNL     1      -6.766   6.887   3.747  0.00  0.00    +0.000 C 
ENDROOT
BRANCH  10  21
ATOM     21  O   UNL     1      -1.641   9.038   7.728  0.00  0.00    +0.000 OA
ATOM     22  H   UNL     1      -1.564   9.376   8.637  0.00  0.00    +0.000 HD
ENDBRANCH  10  21
BRANCH  17  23
ATOM     23  O   UNL     1      -8.124   8.768   7.176  0.00  0.00    +0.000 OA
ATOM     24  H   UNL     1      -8.831   8.217   7.556  0.00  0.00    +0.000 HD
ENDBRANCH  17  23
TORSDOF 2
ENDMDL
MODEL 9
REMARK VINA RESULT:      -5.0     12.096     15.462
REMARK  Name = Enterolactone.pdbqt.pdb
REMARK  2 active torsions:
REMARK  status: ('A' for Active; 'I' for Inactive)
REMARK    1  A    between atoms: C_10  and  O_14
REMARK    2  A    between atoms: C_19  and  O_23
REMARK                            x       y       z     vdW  Elec       q    Type
REMARK                         _______ _______ _______ _____ _____    ______ ____
ROOT
ATOM      1  O   UNL     1     -14.906 -13.674   3.015  0.00  0.00    +0.000 OA
ATOM      2  O   UNL     1     -15.924 -12.752   4.898  0.00  0.00    +0.000 OA
ATOM      3  C   UNL     1     -13.843 -11.734   2.163  0.00  0.00    +0.000 C 
ATOM      4  C   UNL     1     -14.554 -11.404   3.374  0.00  0.00    +0.000 C 
ATOM      5  C   UNL     1     -14.141 -13.096   2.102  0.00  0.00    +0.000 C 
ATOM      6  C   UNL     1     -15.236 -12.654   3.900  0.00  0.00    +0.000 C 
ATOM      7  C   UNL     1     -12.774 -11.009   1.603  0.00  0.00    +0.000 C 
ATOM      8  C   UNL     1     -11.698 -10.259   1.046  0.00  0.00    +0.000 C 
ATOM      9  C   UNL     1     -10.838  -9.554   1.885  0.00  0.00    +0.000 C 
ATOM     10  C   UNL     1      -9.798  -8.816   1.328  0.00  0.00    +0.000 C 
ATOM     11  C   UNL     1      -9.608  -8.775  -0.049  0.00  0.00    +0.000 C 
ATOM     12  C   UNL     1     -10.471  -9.483  -0.883  0.00  0.00    +0.000 C 
ATOM     13  C   UNL     1     -11.516 -10.225  -0.336  0.00  0.00    +0.000 C 
ATOM     14  C   UNL     1     -14.551 -10.147   4.018  0.00  0.00    +0.000 C 
ATOM     15  C   UNL     1     -14.538  -8.877   4.665  0.00  0.00    +0.000 C 
ATOM     16  C   UNL     1     -14.566  -7.712   3.903  0.00  0.00    +0.000 C 
ATOM     17  C   UNL     1     -14.542  -6.478   4.546  0.00  0.00    +0.000 C 
ATOM     18  C   UNL     1     -14.490  -6.395   5.933  0.00  0.00    +0.000 C 
ATOM     19  C   UNL     1     -14.463  -7.565   6.690  0.00  0.00    +0.000 C 
ATOM     20  C   UNL     1     -14.487  -8.807   6.056  0.00  0.00    +0.000 C 
ENDROOT
BRANCH  10  21
ATOM     21  O   UNL     1      -8.938  -8.114   2.122  0.00  0.00    +0.000 OA
ATOM     22  H   UNL     1      -8.361  -8.744   2.587  0.00  0.00    +0.000 HD
ENDBRANCH  10  21
BRANCH  17  23
ATOM     23  O   UNL     1     -14.566  -5.317   3.830  0.00  0.00    +0.000 OA
ATOM     24  H   UNL     1     -14.659  -4.572   4.451  0.00  0.00    +0.000 HD
ENDBRANCH  17  23
TORSDOF 2
ENDMDL
