MODEL 1
REMARK VINA RESULT:      -7.0      0.000      0.000
REMARK  Name = 
REMARK  12 active torsions:
REMARK  status: ('A' for Active; 'I' for Inactive)
REMARK    1  A    between atoms: O_2  and  C_12
REMARK    2  A    between atoms: O_2  and  C_24
REMARK    3  A    between atoms: O_3  and  C_18
REMARK    4  A    between atoms: O_4  and  C_23
REMARK    5  A    between atoms: O_5  and  C_25
REMARK    6  A    between atoms: O_6  and  C_26
REMARK    7  A    between atoms: O_8  and  C_27
REMARK    8  A    between atoms: O_9  and  C_31
REMARK    9  A    between atoms: O_10  and  C_32
REMARK   10  A    between atoms: O_11  and  C_33
REMARK   11  A    between atoms: C_13  and  C_16
REMARK   12  A    between atoms: C_24  and  C_28
REMARK                            x       y       z     vdW  Elec       q    Type
REMARK                         _______ _______ _______ _____ _____    ______ ____
ROOT
ATOM      1  O   UNL     1      -4.789  -4.511  -1.534  0.00  0.00    +0.000 OA
ATOM      2  C   UNL     1      -5.247  -6.453  -2.991  0.00  0.00    +0.000 C 
ATOM      3  C   UNL     1      -5.623  -5.667  -1.723  0.00  0.00    +0.000 C 
ATOM      4  C   UNL     1      -5.465  -5.546  -4.202  0.00  0.00    +0.000 C 
ATOM      5  C   UNL     1      -4.947  -4.154  -3.946  0.00  0.00    +0.000 A 
ATOM      6  C   UNL     1      -4.650  -3.723  -2.646  0.00  0.00    +0.000 A 
ATOM      7  C   UNL     1      -4.774  -3.252  -5.003  0.00  0.00    +0.000 A 
ATOM      8  C   UNL     1      -4.149  -2.440  -2.415  0.00  0.00    +0.000 A 
ATOM      9  C   UNL     1      -4.287  -1.965  -4.782  0.00  0.00    +0.000 A 
ATOM     10  C   UNL     1      -3.973  -1.572  -3.488  0.00  0.00    +0.000 A 
ENDROOT
BRANCH   3  11
ATOM     11  C   UNL     1      -5.545  -6.540  -0.478  0.00  0.00    +0.000 A 
ATOM     12  C   UNL     1      -5.388  -5.942   0.788  0.00  0.00    +0.000 A 
ATOM     13  C   UNL     1      -5.663  -7.940  -0.562  0.00  0.00    +0.000 A 
ATOM     14  C   UNL     1      -5.619  -8.711   0.596  0.00  0.00    +0.000 A 
ATOM     15  C   UNL     1      -5.343  -6.729   1.941  0.00  0.00    +0.000 A 
ATOM     16  C   UNL     1      -5.458  -8.111   1.843  0.00  0.00    +0.000 A 
BRANCH  14  17
ATOM     17  O   UNL     1      -5.735 -10.074   0.556  0.00  0.00    +0.000 OA
ATOM     18  H   UNL     1      -6.605 -10.297   0.183  0.00  0.00    +0.000 HD
ENDBRANCH  14  17
BRANCH  15  19
ATOM     19  O   UNL     1      -5.188  -6.152   3.169  0.00  0.00    +0.000 OA
ATOM     20  H   UNL     1      -5.599  -6.710   3.845  0.00  0.00    +0.000 HD
ENDBRANCH  15  19
BRANCH  16  21
ATOM     21  O   UNL     1      -5.420  -8.899   2.960  0.00  0.00    +0.000 OA
ATOM     22  H   UNL     1      -6.006  -8.452   3.599  0.00  0.00    +0.000 HD
ENDBRANCH  16  21
ENDBRANCH   3  11
BRANCH   7  23
ATOM     23  O   UNL     1      -5.093  -3.658  -6.268  0.00  0.00    +0.000 OA
ATOM     24  H   UNL     1      -6.043  -3.514  -6.413  0.00  0.00    +0.000 HD
ENDBRANCH   7  23
BRANCH  10  25
ATOM     25  O   UNL     1      -3.495  -0.308  -3.307  0.00  0.00    +0.000 OA
ATOM     26  H   UNL     1      -4.246   0.296  -3.175  0.00  0.00    +0.000 HD
ENDBRANCH  10  25
BRANCH   2  27
ATOM     27  O   UNL     1      -3.849  -6.832  -2.933  0.00  0.00    +0.000 OA
BRANCH  27  29
ATOM     28  O   UNL     1      -4.321  -8.917  -3.769  0.00  0.00    +0.000 OA
ATOM     29  C   UNL     1      -3.556  -8.107  -3.272  0.00  0.00    +0.000 C 
BRANCH  29  30
ATOM     30  C   UNL     1      -2.148  -8.412  -2.912  0.00  0.00    +0.000 A 
ATOM     31  C   UNL     1      -1.654  -7.905  -1.700  0.00  0.00    +0.000 A 
ATOM     32  C   UNL     1      -1.324  -9.190  -3.743  0.00  0.00    +0.000 A 
ATOM     33  C   UNL     1      -0.007  -9.445  -3.366  0.00  0.00    +0.000 A 
ATOM     34  C   UNL     1      -0.338  -8.167  -1.342  0.00  0.00    +0.000 A 
ATOM     35  C   UNL     1       0.485  -8.929  -2.171  0.00  0.00    +0.000 A 
BRANCH  33  36
ATOM     36  O   UNL     1       0.808 -10.198  -4.163  0.00  0.00    +0.000 OA
ATOM     37  H   UNL     1       1.703 -10.212  -3.792  0.00  0.00    +0.000 HD
ENDBRANCH  33  36
BRANCH  34  38
ATOM     38  O   UNL     1       0.198  -7.693  -0.175  0.00  0.00    +0.000 OA
ATOM     39  H   UNL     1       0.032  -6.735  -0.123  0.00  0.00    +0.000 HD
ENDBRANCH  34  38
BRANCH  35  40
ATOM     40  O   UNL     1       1.777  -9.167  -1.786  0.00  0.00    +0.000 OA
ATOM     41  H   UNL     1       1.738  -9.260  -0.815  0.00  0.00    +0.000 HD
ENDBRANCH  35  40
ENDBRANCH  29  30
ENDBRANCH  27  29
ENDBRANCH   2  27
TORSDOF 12
ENDMDL
MODEL 2
REMARK VINA RESULT:      -6.8      2.655      6.855
REMARK  Name = 
REMARK  12 active torsions:
REMARK  status: ('A' for Active; 'I' for Inactive)
REMARK    1  A    between atoms: O_2  and  C_12
REMARK    2  A    between atoms: O_2  and  C_24
REMARK    3  A    between atoms: O_3  and  C_18
REMARK    4  A    between atoms: O_4  and  C_23
REMARK    5  A    between atoms: O_5  and  C_25
REMARK    6  A    between atoms: O_6  and  C_26
REMARK    7  A    between atoms: O_8  and  C_27
REMARK    8  A    between atoms: O_9  and  C_31
REMARK    9  A    between atoms: O_10  and  C_32
REMARK   10  A    between atoms: O_11  and  C_33
REMARK   11  A    between atoms: C_13  and  C_16
REMARK   12  A    between atoms: C_24  and  C_28
REMARK                            x       y       z     vdW  Elec       q    Type
REMARK                         _______ _______ _______ _____ _____    ______ ____
ROOT
ATOM      1  O   UNL     1      -5.706  -6.671  -1.454  0.00  0.00    +0.000 OA
ATOM      2  C   UNL     1      -4.937  -4.402  -0.850  0.00  0.00    +0.000 C 
ATOM      3  C   UNL     1      -5.903  -5.265  -1.680  0.00  0.00    +0.000 C 
ATOM      4  C   UNL     1      -5.214  -4.657   0.631  0.00  0.00    +0.000 C 
ATOM      5  C   UNL     1      -5.407  -6.126   0.909  0.00  0.00    +0.000 A 
ATOM      6  C   UNL     1      -5.644  -7.031  -0.134  0.00  0.00    +0.000 A 
ATOM      7  C   UNL     1      -5.378  -6.613   2.221  0.00  0.00    +0.000 A 
ATOM      8  C   UNL     1      -5.800  -8.394   0.125  0.00  0.00    +0.000 A 
ATOM      9  C   UNL     1      -5.545  -7.970   2.492  0.00  0.00    +0.000 A 
ATOM     10  C   UNL     1      -5.751  -8.851   1.438  0.00  0.00    +0.000 A 
ENDROOT
BRANCH   3  11
ATOM     11  C   UNL     1      -5.772  -4.981  -3.170  0.00  0.00    +0.000 A 
ATOM     12  C   UNL     1      -5.395  -6.015  -4.049  0.00  0.00    +0.000 A 
ATOM     13  C   UNL     1      -6.054  -3.706  -3.696  0.00  0.00    +0.000 A 
ATOM     14  C   UNL     1      -5.954  -3.483  -5.066  0.00  0.00    +0.000 A 
ATOM     15  C   UNL     1      -5.296  -5.776  -5.421  0.00  0.00    +0.000 A 
ATOM     16  C   UNL     1      -5.576  -4.511  -5.927  0.00  0.00    +0.000 A 
BRANCH  14  17
ATOM     17  O   UNL     1      -6.226  -2.259  -5.616  0.00  0.00    +0.000 OA
ATOM     18  H   UNL     1      -7.113  -1.984  -5.327  0.00  0.00    +0.000 HD
ENDBRANCH  14  17
BRANCH  15  19
ATOM     19  O   UNL     1      -4.929  -6.776  -6.275  0.00  0.00    +0.000 OA
ATOM     20  H   UNL     1      -4.777  -7.591  -5.775  0.00  0.00    +0.000 HD
ENDBRANCH  15  19
BRANCH  16  21
ATOM     21  O   UNL     1      -5.489  -4.256  -7.268  0.00  0.00    +0.000 OA
ATOM     22  H   UNL     1      -4.904  -4.956  -7.615  0.00  0.00    +0.000 HD
ENDBRANCH  16  21
ENDBRANCH   3  11
BRANCH   7  23
ATOM     23  O   UNL     1      -5.179  -5.728   3.243  0.00  0.00    +0.000 OA
ATOM     24  H   UNL     1      -4.701  -6.179   3.959  0.00  0.00    +0.000 HD
ENDBRANCH   7  23
BRANCH  10  25
ATOM     25  O   UNL     1      -5.907 -10.172   1.737  0.00  0.00    +0.000 OA
ATOM     26  H   UNL     1      -5.207 -10.679   1.293  0.00  0.00    +0.000 HD
ENDBRANCH  10  25
BRANCH   2  27
ATOM     27  O   UNL     1      -3.569  -4.781  -1.145  0.00  0.00    +0.000 OA
BRANCH  27  29
ATOM     28  O   UNL     1      -2.362  -2.842  -0.920  0.00  0.00    +0.000 OA
ATOM     29  C   UNL     1      -2.750  -3.796  -1.574  0.00  0.00    +0.000 C 
BRANCH  29  30
ATOM     30  C   UNL     1      -2.405  -4.016  -3.001  0.00  0.00    +0.000 A 
ATOM     31  C   UNL     1      -2.518  -2.928  -3.881  0.00  0.00    +0.000 A 
ATOM     32  C   UNL     1      -1.967  -5.266  -3.473  0.00  0.00    +0.000 A 
ATOM     33  C   UNL     1      -1.660  -5.425  -4.823  0.00  0.00    +0.000 A 
ATOM     34  C   UNL     1      -2.210  -3.106  -5.224  0.00  0.00    +0.000 A 
ATOM     35  C   UNL     1      -1.787  -4.349  -5.696  0.00  0.00    +0.000 A 
BRANCH  33  36
ATOM     36  O   UNL     1      -1.235  -6.633  -5.298  0.00  0.00    +0.000 OA
ATOM     37  H   UNL     1      -0.894  -7.170  -4.567  0.00  0.00    +0.000 HD
ENDBRANCH  33  36
BRANCH  34  38
ATOM     38  O   UNL     1      -2.308  -2.083  -6.126  0.00  0.00    +0.000 OA
ATOM     39  H   UNL     1      -2.603  -2.447  -6.980  0.00  0.00    +0.000 HD
ENDBRANCH  34  38
BRANCH  35  40
ATOM     40  O   UNL     1      -1.492  -4.488  -7.025  0.00  0.00    +0.000 OA
ATOM     41  H   UNL     1      -1.829  -5.372  -7.267  0.00  0.00    +0.000 HD
ENDBRANCH  35  40
ENDBRANCH  29  30
ENDBRANCH  27  29
ENDBRANCH   2  27
TORSDOF 12
ENDMDL
MODEL 3
REMARK VINA RESULT:      -6.3      8.007     11.964
REMARK  Name = 
REMARK  12 active torsions:
REMARK  status: ('A' for Active; 'I' for Inactive)
REMARK    1  A    between atoms: O_2  and  C_12
REMARK    2  A    between atoms: O_2  and  C_24
REMARK    3  A    between atoms: O_3  and  C_18
REMARK    4  A    between atoms: O_4  and  C_23
REMARK    5  A    between atoms: O_5  and  C_25
REMARK    6  A    between atoms: O_6  and  C_26
REMARK    7  A    between atoms: O_8  and  C_27
REMARK    8  A    between atoms: O_9  and  C_31
REMARK    9  A    between atoms: O_10  and  C_32
REMARK   10  A    between atoms: O_11  and  C_33
REMARK   11  A    between atoms: C_13  and  C_16
REMARK   12  A    between atoms: C_24  and  C_28
REMARK                            x       y       z     vdW  Elec       q    Type
REMARK                         _______ _______ _______ _____ _____    ______ ____
ROOT
ATOM      1  O   UNL     1      -9.749 -10.149   2.238  0.00  0.00    +0.000 OA
ATOM      2  C   UNL     1     -11.673 -10.140   0.687  0.00  0.00    +0.000 C 
ATOM      3  C   UNL     1     -10.785  -9.339   1.655  0.00  0.00    +0.000 C 
ATOM      4  C   UNL     1     -10.802 -10.641  -0.464  0.00  0.00    +0.000 C 
ATOM      5  C   UNL     1      -9.485 -11.177   0.037  0.00  0.00    +0.000 A 
ATOM      6  C   UNL     1      -9.041 -10.899   1.336  0.00  0.00    +0.000 A 
ATOM      7  C   UNL     1      -8.666 -11.948  -0.797  0.00  0.00    +0.000 A 
ATOM      8  C   UNL     1      -7.832 -11.417   1.804  0.00  0.00    +0.000 A 
ATOM      9  C   UNL     1      -7.451 -12.459  -0.345  0.00  0.00    +0.000 A 
ATOM     10  C   UNL     1      -7.046 -12.192   0.957  0.00  0.00    +0.000 A 
ENDROOT
BRANCH   3  11
ATOM     11  C   UNL     1     -11.602  -8.705   2.773  0.00  0.00    +0.000 A 
ATOM     12  C   UNL     1     -12.565  -7.724   2.465  0.00  0.00    +0.000 A 
ATOM     13  C   UNL     1     -11.440  -9.106   4.112  0.00  0.00    +0.000 A 
ATOM     14  C   UNL     1     -12.222  -8.531   5.109  0.00  0.00    +0.000 A 
ATOM     15  C   UNL     1     -13.341  -7.153   3.476  0.00  0.00    +0.000 A 
ATOM     16  C   UNL     1     -13.168  -7.558   4.796  0.00  0.00    +0.000 A 
BRANCH  14  17
ATOM     17  O   UNL     1     -12.097  -8.898   6.422  0.00  0.00    +0.000 OA
ATOM     18  H   UNL     1     -11.196  -8.680   6.716  0.00  0.00    +0.000 HD
ENDBRANCH  14  17
BRANCH  15  19
ATOM     19  O   UNL     1     -14.273  -6.200   3.182  0.00  0.00    +0.000 OA
ATOM     20  H   UNL     1     -14.305  -6.061   2.223  0.00  0.00    +0.000 HD
ENDBRANCH  15  19
BRANCH  16  21
ATOM     21  O   UNL     1     -13.920  -7.014   5.801  0.00  0.00    +0.000 OA
ATOM     22  H   UNL     1     -13.382  -7.137   6.606  0.00  0.00    +0.000 HD
ENDBRANCH  16  21
ENDBRANCH   3  11
BRANCH   7  23
ATOM     23  O   UNL     1      -9.081 -12.194  -2.075  0.00  0.00    +0.000 OA
ATOM     24  H   UNL     1      -8.594 -11.611  -2.681  0.00  0.00    +0.000 HD
ENDBRANCH   7  23
BRANCH  10  25
ATOM     25  O   UNL     1      -5.855 -12.710   1.369  0.00  0.00    +0.000 OA
ATOM     26  H   UNL     1      -5.376 -12.033   1.875  0.00  0.00    +0.000 HD
ENDBRANCH  10  25
BRANCH   2  27
ATOM     27  O   UNL     1     -12.241 -11.281   1.378  0.00  0.00    +0.000 OA
BRANCH  27  29
ATOM     28  O   UNL     1     -13.995 -12.110   0.150  0.00  0.00    +0.000 OA
ATOM     29  C   UNL     1     -13.543 -11.546   1.134  0.00  0.00    +0.000 C 
BRANCH  29  30
ATOM     30  C   UNL     1     -14.380 -11.010   2.237  0.00  0.00    +0.000 A 
ATOM     31  C   UNL     1     -15.311 -10.005   1.928  0.00  0.00    +0.000 A 
ATOM     32  C   UNL     1     -14.264 -11.488   3.553  0.00  0.00    +0.000 A 
ATOM     33  C   UNL     1     -15.068 -10.950   4.557  0.00  0.00    +0.000 A 
ATOM     34  C   UNL     1     -16.102  -9.479   2.941  0.00  0.00    +0.000 A 
ATOM     35  C   UNL     1     -15.980  -9.944   4.251  0.00  0.00    +0.000 A 
BRANCH  33  36
ATOM     36  O   UNL     1     -14.967 -11.402   5.842  0.00  0.00    +0.000 OA
ATOM     37  H   UNL     1     -15.799 -11.239   6.311  0.00  0.00    +0.000 HD
ENDBRANCH  33  36
BRANCH  34  38
ATOM     38  O   UNL     1     -17.021  -8.495   2.699  0.00  0.00    +0.000 OA
ATOM     39  H   UNL     1     -17.443  -8.668   1.838  0.00  0.00    +0.000 HD
ENDBRANCH  34  38
BRANCH  35  40
ATOM     40  O   UNL     1     -16.775  -9.403   5.224  0.00  0.00    +0.000 OA
ATOM     41  H   UNL     1     -16.331  -9.622   6.065  0.00  0.00    +0.000 HD
ENDBRANCH  35  40
ENDBRANCH  29  30
ENDBRANCH  27  29
ENDBRANCH   2  27
TORSDOF 12
ENDMDL
MODEL 4
REMARK VINA RESULT:      -6.3     14.859     18.504
REMARK  Name = 
REMARK  12 active torsions:
REMARK  status: ('A' for Active; 'I' for Inactive)
REMARK    1  A    between atoms: O_2  and  C_12
REMARK    2  A    between atoms: O_2  and  C_24
REMARK    3  A    between atoms: O_3  and  C_18
REMARK    4  A    between atoms: O_4  and  C_23
REMARK    5  A    between atoms: O_5  and  C_25
REMARK    6  A    between atoms: O_6  and  C_26
REMARK    7  A    between atoms: O_8  and  C_27
REMARK    8  A    between atoms: O_9  and  C_31
REMARK    9  A    between atoms: O_10  and  C_32
REMARK   10  A    between atoms: O_11  and  C_33
REMARK   11  A    between atoms: C_13  and  C_16
REMARK   12  A    between atoms: C_24  and  C_28
REMARK                            x       y       z     vdW  Elec       q    Type
REMARK                         _______ _______ _______ _____ _____    ______ ____
ROOT
ATOM      1  O   UNL     1       4.954 -10.126  11.663  0.00  0.00    +0.000 OA
ATOM      2  C   UNL     1       6.819  -9.240  13.020  0.00  0.00    +0.000 C 
ATOM      3  C   UNL     1       5.475  -8.961  12.326  0.00  0.00    +0.000 C 
ATOM      4  C   UNL     1       6.594 -10.299  14.099  0.00  0.00    +0.000 C 
ATOM      5  C   UNL     1       5.711 -11.414  13.597  0.00  0.00    +0.000 A 
ATOM      6  C   UNL     1       4.951 -11.261  12.430  0.00  0.00    +0.000 A 
ATOM      7  C   UNL     1       5.615 -12.619  14.303  0.00  0.00    +0.000 A 
ATOM      8  C   UNL     1       4.152 -12.304  11.957  0.00  0.00    +0.000 A 
ATOM      9  C   UNL     1       4.811 -13.662  13.846  0.00  0.00    +0.000 A 
ATOM     10  C   UNL     1       4.089 -13.496  12.672  0.00  0.00    +0.000 A 
ENDROOT
BRANCH   3  11
ATOM     11  C   UNL     1       5.590  -7.828  11.315  0.00  0.00    +0.000 A 
ATOM     12  C   UNL     1       5.463  -8.103   9.939  0.00  0.00    +0.000 A 
ATOM     13  C   UNL     1       5.786  -6.498  11.730  0.00  0.00    +0.000 A 
ATOM     14  C   UNL     1       5.857  -5.479  10.785  0.00  0.00    +0.000 A 
ATOM     15  C   UNL     1       5.539  -7.071   9.002  0.00  0.00    +0.000 A 
ATOM     16  C   UNL     1       5.736  -5.761   9.427  0.00  0.00    +0.000 A 
BRANCH  14  17
ATOM     17  O   UNL     1       6.041  -4.173  11.150  0.00  0.00    +0.000 OA
ATOM     18  H   UNL     1       5.220  -3.685  10.967  0.00  0.00    +0.000 HD
ENDBRANCH  14  17
BRANCH  15  19
ATOM     19  O   UNL     1       5.420  -7.334   7.667  0.00  0.00    +0.000 OA
ATOM     20  H   UNL     1       4.502  -7.567   7.462  0.00  0.00    +0.000 HD
ENDBRANCH  15  19
BRANCH  16  21
ATOM     21  O   UNL     1       5.810  -4.735   8.526  0.00  0.00    +0.000 OA
ATOM     22  H   UNL     1       5.689  -5.160   7.655  0.00  0.00    +0.000 HD
ENDBRANCH  16  21
ENDBRANCH   3  11
BRANCH   7  23
ATOM     23  O   UNL     1       6.331 -12.759  15.459  0.00  0.00    +0.000 OA
ATOM     24  H   UNL     1       5.713 -12.783  16.209  0.00  0.00    +0.000 HD
ENDBRANCH   7  23
BRANCH  10  25
ATOM     25  O   UNL     1       3.315 -14.536  12.251  0.00  0.00    +0.000 OA
ATOM     26  H   UNL     1       2.739 -14.815  12.983  0.00  0.00    +0.000 HD
ENDBRANCH  10  25
BRANCH   2  27
ATOM     27  O   UNL     1       7.772  -9.748  12.053  0.00  0.00    +0.000 OA
BRANCH  27  29
ATOM     28  O   UNL     1       9.953  -9.951  12.738  0.00  0.00    +0.000 OA
ATOM     29  C   UNL     1       9.051  -9.336  12.193  0.00  0.00    +0.000 C 
BRANCH  29  30
ATOM     30  C   UNL     1       9.208  -7.979  11.612  0.00  0.00    +0.000 A 
ATOM     31  C   UNL     1       9.023  -7.829  10.229  0.00  0.00    +0.000 A 
ATOM     32  C   UNL     1       9.522  -6.865  12.410  0.00  0.00    +0.000 A 
ATOM     33  C   UNL     1       9.665  -5.611  11.819  0.00  0.00    +0.000 A 
ATOM     34  C   UNL     1       9.172  -6.572   9.657  0.00  0.00    +0.000 A 
ATOM     35  C   UNL     1       9.496  -5.467  10.445  0.00  0.00    +0.000 A 
BRANCH  33  36
ATOM     36  O   UNL     1       9.972  -4.518  12.579  0.00  0.00    +0.000 OA
ATOM     37  H   UNL     1      10.499  -3.895  12.056  0.00  0.00    +0.000 HD
ENDBRANCH  33  36
BRANCH  34  38
ATOM     38  O   UNL     1       9.010  -6.369   8.314  0.00  0.00    +0.000 OA
ATOM     39  H   UNL     1       9.882  -6.420   7.883  0.00  0.00    +0.000 HD
ENDBRANCH  34  38
BRANCH  35  40
ATOM     40  O   UNL     1       9.635  -4.244   9.848  0.00  0.00    +0.000 OA
ATOM     41  H   UNL     1       8.730  -3.879   9.805  0.00  0.00    +0.000 HD
ENDBRANCH  35  40
ENDBRANCH  29  30
ENDBRANCH  27  29
ENDBRANCH   2  27
TORSDOF 12
ENDMDL
MODEL 5
REMARK VINA RESULT:      -6.2     14.924     18.577
REMARK  Name = 
REMARK  12 active torsions:
REMARK  status: ('A' for Active; 'I' for Inactive)
REMARK    1  A    between atoms: O_2  and  C_12
REMARK    2  A    between atoms: O_2  and  C_24
REMARK    3  A    between atoms: O_3  and  C_18
REMARK    4  A    between atoms: O_4  and  C_23
REMARK    5  A    between atoms: O_5  and  C_25
REMARK    6  A    between atoms: O_6  and  C_26
REMARK    7  A    between atoms: O_8  and  C_27
REMARK    8  A    between atoms: O_9  and  C_31
REMARK    9  A    between atoms: O_10  and  C_32
REMARK   10  A    between atoms: O_11  and  C_33
REMARK   11  A    between atoms: C_13  and  C_16
REMARK   12  A    between atoms: C_24  and  C_28
REMARK                            x       y       z     vdW  Elec       q    Type
REMARK                         _______ _______ _______ _____ _____    ______ ____
ROOT
ATOM      1  O   UNL     1       6.183 -10.301  11.274  0.00  0.00    +0.000 OA
ATOM      2  C   UNL     1       7.556  -8.905  12.781  0.00  0.00    +0.000 C 
ATOM      3  C   UNL     1       6.226  -9.077  12.027  0.00  0.00    +0.000 C 
ATOM      4  C   UNL     1       7.691 -10.048  13.787  0.00  0.00    +0.000 C 
ATOM      5  C   UNL     1       7.287 -11.366  13.177  0.00  0.00    +0.000 A 
ATOM      6  C   UNL     1       6.563 -11.413  11.978  0.00  0.00    +0.000 A 
ATOM      7  C   UNL     1       7.607 -12.573  13.811  0.00  0.00    +0.000 A 
ATOM      8  C   UNL     1       6.210 -12.637  11.405  0.00  0.00    +0.000 A 
ATOM      9  C   UNL     1       7.249 -13.799  13.254  0.00  0.00    +0.000 A 
ATOM     10  C   UNL     1       6.556 -13.820  12.050  0.00  0.00    +0.000 A 
ENDROOT
BRANCH   3  11
ATOM     11  C   UNL     1       5.959  -7.910  11.086  0.00  0.00    +0.000 A 
ATOM     12  C   UNL     1       5.935  -6.595  11.591  0.00  0.00    +0.000 A 
ATOM     13  C   UNL     1       5.771  -8.115   9.706  0.00  0.00    +0.000 A 
ATOM     14  C   UNL     1       5.559  -7.027   8.866  0.00  0.00    +0.000 A 
ATOM     15  C   UNL     1       5.718  -5.513  10.736  0.00  0.00    +0.000 A 
ATOM     16  C   UNL     1       5.531  -5.730   9.375  0.00  0.00    +0.000 A 
BRANCH  14  17
ATOM     17  O   UNL     1       5.377  -7.185   7.518  0.00  0.00    +0.000 OA
ATOM     18  H   UNL     1       4.651  -7.817   7.379  0.00  0.00    +0.000 HD
ENDBRANCH  14  17
BRANCH  15  19
ATOM     19  O   UNL     1       5.691  -4.238  11.223  0.00  0.00    +0.000 OA
ATOM     20  H   UNL     1       6.378  -3.709  10.790  0.00  0.00    +0.000 HD
ENDBRANCH  15  19
BRANCH  16  21
ATOM     21  O   UNL     1       5.321  -4.684   8.519  0.00  0.00    +0.000 OA
ATOM     22  H   UNL     1       6.183  -4.228   8.470  0.00  0.00    +0.000 HD
ENDBRANCH  16  21
ENDBRANCH   3  11
BRANCH   7  23
ATOM     23  O   UNL     1       8.286 -12.529  14.996  0.00  0.00    +0.000 OA
ATOM     24  H   UNL     1       8.863 -11.747  14.998  0.00  0.00    +0.000 HD
ENDBRANCH   7  23
BRANCH  10  25
ATOM     25  O   UNL     1       6.224 -15.036  11.531  0.00  0.00    +0.000 OA
ATOM     26  H   UNL     1       6.443 -15.725  12.181  0.00  0.00    +0.000 HD
ENDBRANCH  10  25
BRANCH   2  27
ATOM     27  O   UNL     1       8.660  -8.970  11.844  0.00  0.00    +0.000 OA
BRANCH  27  29
ATOM     28  O   UNL     1      10.637  -8.321  12.814  0.00  0.00    +0.000 OA
ATOM     29  C   UNL     1       9.691  -8.126  12.068  0.00  0.00    +0.000 C 
BRANCH  29  30
ATOM     30  C   UNL     1       9.494  -6.875  11.293  0.00  0.00    +0.000 A 
ATOM     31  C   UNL     1       9.484  -5.660  11.996  0.00  0.00    +0.000 A 
ATOM     32  C   UNL     1       9.331  -6.888   9.897  0.00  0.00    +0.000 A 
ATOM     33  C   UNL     1       9.145  -5.688   9.212  0.00  0.00    +0.000 A 
ATOM     34  C   UNL     1       9.294  -4.474  11.297  0.00  0.00    +0.000 A 
ATOM     35  C   UNL     1       9.120  -4.486   9.913  0.00  0.00    +0.000 A 
BRANCH  33  36
ATOM     36  O   UNL     1       8.983  -5.682   7.856  0.00  0.00    +0.000 OA
ATOM     37  H   UNL     1       9.637  -6.268   7.448  0.00  0.00    +0.000 HD
ENDBRANCH  33  36
BRANCH  34  38
ATOM     38  O   UNL     1       9.269  -3.262  11.931  0.00  0.00    +0.000 OA
ATOM     39  H   UNL     1       8.343  -3.032  12.127  0.00  0.00    +0.000 HD
ENDBRANCH  34  38
BRANCH  35  40
ATOM     40  O   UNL     1       8.935  -3.299   9.258  0.00  0.00    +0.000 OA
ATOM     41  H   UNL     1       9.301  -3.443   8.364  0.00  0.00    +0.000 HD
ENDBRANCH  35  40
ENDBRANCH  29  30
ENDBRANCH  27  29
ENDBRANCH   2  27
TORSDOF 12
ENDMDL
MODEL 6
REMARK VINA RESULT:      -6.2     27.868     30.453
REMARK  Name = 
REMARK  12 active torsions:
REMARK  status: ('A' for Active; 'I' for Inactive)
REMARK    1  A    between atoms: O_2  and  C_12
REMARK    2  A    between atoms: O_2  and  C_24
REMARK    3  A    between atoms: O_3  and  C_18
REMARK    4  A    between atoms: O_4  and  C_23
REMARK    5  A    between atoms: O_5  and  C_25
REMARK    6  A    between atoms: O_6  and  C_26
REMARK    7  A    between atoms: O_8  and  C_27
REMARK    8  A    between atoms: O_9  and  C_31
REMARK    9  A    between atoms: O_10  and  C_32
REMARK   10  A    between atoms: O_11  and  C_33
REMARK   11  A    between atoms: C_13  and  C_16
REMARK   12  A    between atoms: C_24  and  C_28
REMARK                            x       y       z     vdW  Elec       q    Type
REMARK                         _______ _______ _______ _____ _____    ______ ____
ROOT
ATOM      1  O   UNL     1      -9.625  -2.254  26.406  0.00  0.00    +0.000 OA
ATOM      2  C   UNL     1      -7.394  -2.354  27.464  0.00  0.00    +0.000 C 
ATOM      3  C   UNL     1      -8.310  -2.830  26.322  0.00  0.00    +0.000 C 
ATOM      4  C   UNL     1      -7.224  -0.840  27.347  0.00  0.00    +0.000 C 
ATOM      5  C   UNL     1      -8.536  -0.162  27.044  0.00  0.00    +0.000 A 
ATOM      6  C   UNL     1      -9.640  -0.898  26.593  0.00  0.00    +0.000 A 
ATOM      7  C   UNL     1      -8.671   1.224  27.185  0.00  0.00    +0.000 A 
ATOM      8  C   UNL     1     -10.860  -0.269  26.335  0.00  0.00    +0.000 A 
ATOM      9  C   UNL     1      -9.881   1.864  26.919  0.00  0.00    +0.000 A 
ATOM     10  C   UNL     1     -10.968   1.108  26.500  0.00  0.00    +0.000 A 
ENDROOT
BRANCH   3  11
ATOM     11  C   UNL     1      -8.436  -4.347  26.298  0.00  0.00    +0.000 A 
ATOM     12  C   UNL     1      -9.556  -4.966  26.886  0.00  0.00    +0.000 A 
ATOM     13  C   UNL     1      -7.467  -5.148  25.664  0.00  0.00    +0.000 A 
ATOM     14  C   UNL     1      -7.623  -6.530  25.631  0.00  0.00    +0.000 A 
ATOM     15  C   UNL     1      -9.698  -6.354  26.848  0.00  0.00    +0.000 A 
ATOM     16  C   UNL     1      -8.732  -7.134  26.221  0.00  0.00    +0.000 A 
BRANCH  14  17
ATOM     17  O   UNL     1      -6.706  -7.343  25.021  0.00  0.00    +0.000 OA
ATOM     18  H   UNL     1      -6.079  -7.657  25.694  0.00  0.00    +0.000 HD
ENDBRANCH  14  17
BRANCH  15  19
ATOM     19  O   UNL     1     -10.781  -6.957  27.420  0.00  0.00    +0.000 OA
ATOM     20  H   UNL     1     -10.847  -7.872  27.108  0.00  0.00    +0.000 HD
ENDBRANCH  15  19
BRANCH  16  21
ATOM     21  O   UNL     1      -8.853  -8.495  26.169  0.00  0.00    +0.000 OA
ATOM     22  H   UNL     1      -8.643  -8.727  25.244  0.00  0.00    +0.000 HD
ENDBRANCH  16  21
ENDBRANCH   3  11
BRANCH   7  23
ATOM     23  O   UNL     1      -7.587   1.949  27.595  0.00  0.00    +0.000 OA
ATOM     24  H   UNL     1      -6.941   1.345  27.998  0.00  0.00    +0.000 HD
ENDBRANCH   7  23
BRANCH  10  25
ATOM     25  O   UNL     1     -12.137   1.764  26.252  0.00  0.00    +0.000 OA
ATOM     26  H   UNL     1     -12.820   1.429  26.858  0.00  0.00    +0.000 HD
ENDBRANCH  10  25
BRANCH   2  27
ATOM     27  O   UNL     1      -8.008  -2.661  28.741  0.00  0.00    +0.000 OA
BRANCH  27  29
ATOM     28  O   UNL     1      -6.416  -2.582  30.392  0.00  0.00    +0.000 OA
ATOM     29  C   UNL     1      -7.201  -3.192  29.685  0.00  0.00    +0.000 C 
BRANCH  29  30
ATOM     30  C   UNL     1      -7.373  -4.667  29.723  0.00  0.00    +0.000 A 
ATOM     31  C   UNL     1      -8.521  -5.179  30.348  0.00  0.00    +0.000 A 
ATOM     32  C   UNL     1      -6.431  -5.537  29.146  0.00  0.00    +0.000 A 
ATOM     33  C   UNL     1      -6.634  -6.914  29.211  0.00  0.00    +0.000 A 
ATOM     34  C   UNL     1      -8.704  -6.555  30.405  0.00  0.00    +0.000 A 
ATOM     35  C   UNL     1      -7.765  -7.421  29.844  0.00  0.00    +0.000 A 
BRANCH  33  36
ATOM     36  O   UNL     1      -5.728  -7.774  28.658  0.00  0.00    +0.000 OA
ATOM     37  H   UNL     1      -5.321  -8.310  29.355  0.00  0.00    +0.000 HD
ENDBRANCH  33  36
BRANCH  34  38
ATOM     38  O   UNL     1      -9.801  -7.110  31.007  0.00  0.00    +0.000 OA
ATOM     39  H   UNL     1     -10.528  -6.462  30.987  0.00  0.00    +0.000 HD
ENDBRANCH  34  38
BRANCH  35  40
ATOM     40  O   UNL     1      -7.978  -8.770  29.920  0.00  0.00    +0.000 OA
ATOM     41  H   UNL     1      -7.115  -9.175  29.707  0.00  0.00    +0.000 HD
ENDBRANCH  35  40
ENDBRANCH  29  30
ENDBRANCH  27  29
ENDBRANCH   2  27
TORSDOF 12
ENDMDL
MODEL 7
REMARK VINA RESULT:      -6.1     13.827     16.100
REMARK  Name = 
REMARK  12 active torsions:
REMARK  status: ('A' for Active; 'I' for Inactive)
REMARK    1  A    between atoms: O_2  and  C_12
REMARK    2  A    between atoms: O_2  and  C_24
REMARK    3  A    between atoms: O_3  and  C_18
REMARK    4  A    between atoms: O_4  and  C_23
REMARK    5  A    between atoms: O_5  and  C_25
REMARK    6  A    between atoms: O_6  and  C_26
REMARK    7  A    between atoms: O_8  and  C_27
REMARK    8  A    between atoms: O_9  and  C_31
REMARK    9  A    between atoms: O_10  and  C_32
REMARK   10  A    between atoms: O_11  and  C_33
REMARK   11  A    between atoms: C_13  and  C_16
REMARK   12  A    between atoms: C_24  and  C_28
REMARK                            x       y       z     vdW  Elec       q    Type
REMARK                         _______ _______ _______ _____ _____    ______ ____
ROOT
ATOM      1  O   UNL     1     -10.922   6.612   3.727  0.00  0.00    +0.000 OA
ATOM      2  C   UNL     1      -9.061   5.283   2.790  0.00  0.00    +0.000 C 
ATOM      3  C   UNL     1      -9.987   5.552   3.990  0.00  0.00    +0.000 C 
ATOM      4  C   UNL     1      -9.921   4.833   1.609  0.00  0.00    +0.000 C 
ATOM      5  C   UNL     1     -11.164   5.677   1.483  0.00  0.00    +0.000 A 
ATOM      6  C   UNL     1     -11.587   6.500   2.535  0.00  0.00    +0.000 A 
ATOM      7  C   UNL     1     -11.937   5.638   0.316  0.00  0.00    +0.000 A 
ATOM      8  C   UNL     1     -12.726   7.296   2.406  0.00  0.00    +0.000 A 
ATOM      9  C   UNL     1     -13.082   6.420   0.180  0.00  0.00    +0.000 A 
ATOM     10  C   UNL     1     -13.465   7.248   1.228  0.00  0.00    +0.000 A 
ENDROOT
BRANCH   3  11
ATOM     11  C   UNL     1      -9.194   5.892   5.245  0.00  0.00    +0.000 A 
ATOM     12  C   UNL     1      -8.215   4.997   5.718  0.00  0.00    +0.000 A 
ATOM     13  C   UNL     1      -9.395   7.108   5.926  0.00  0.00    +0.000 A 
ATOM     14  C   UNL     1      -8.635   7.405   7.052  0.00  0.00    +0.000 A 
ATOM     15  C   UNL     1      -7.462   5.308   6.852  0.00  0.00    +0.000 A 
ATOM     16  C   UNL     1      -7.673   6.511   7.517  0.00  0.00    +0.000 A 
BRANCH  14  17
ATOM     17  O   UNL     1      -8.797   8.579   7.739  0.00  0.00    +0.000 OA
ATOM     18  H   UNL     1      -8.591   8.417   8.675  0.00  0.00    +0.000 HD
ENDBRANCH  14  17
BRANCH  15  19
ATOM     19  O   UNL     1      -6.515   4.441   7.316  0.00  0.00    +0.000 OA
ATOM     20  H   UNL     1      -6.536   4.422   8.284  0.00  0.00    +0.000 HD
ENDBRANCH  15  19
BRANCH  16  21
ATOM     21  O   UNL     1      -6.943   6.837   8.627  0.00  0.00    +0.000 OA
ATOM     22  H   UNL     1      -7.076   6.088   9.239  0.00  0.00    +0.000 HD
ENDBRANCH  16  21
ENDBRANCH   3  11
BRANCH   7  23
ATOM     23  O   UNL     1     -11.544   4.813  -0.701  0.00  0.00    +0.000 OA
ATOM     24  H   UNL     1     -10.578   4.862  -0.789  0.00  0.00    +0.000 HD
ENDBRANCH   7  23
BRANCH  10  25
ATOM     25  O   UNL     1     -14.588   8.002   1.061  0.00  0.00    +0.000 OA
ATOM     26  H   UNL     1     -15.025   8.109   1.923  0.00  0.00    +0.000 HD
ENDBRANCH  10  25
BRANCH   2  27
ATOM     27  O   UNL     1      -8.366   6.502   2.428  0.00  0.00    +0.000 OA
BRANCH  27  29
ATOM     28  O   UNL     1      -6.442   5.457   1.738  0.00  0.00    +0.000 OA
ATOM     29  C   UNL     1      -7.032   6.401   2.237  0.00  0.00    +0.000 C 
BRANCH  29  30
ATOM     30  C   UNL     1      -6.356   7.612   2.768  0.00  0.00    +0.000 A 
ATOM     31  C   UNL     1      -6.315   7.787   4.160  0.00  0.00    +0.000 A 
ATOM     32  C   UNL     1      -5.761   8.559   1.917  0.00  0.00    +0.000 A 
ATOM     33  C   UNL     1      -5.141   9.683   2.461  0.00  0.00    +0.000 A 
ATOM     34  C   UNL     1      -5.696   8.915   4.684  0.00  0.00    +0.000 A 
ATOM     35  C   UNL     1      -5.115   9.862   3.841  0.00  0.00    +0.000 A 
BRANCH  33  36
ATOM     36  O   UNL     1      -4.560  10.615   1.649  0.00  0.00    +0.000 OA
ATOM     37  H   UNL     1      -4.772  11.504   1.969  0.00  0.00    +0.000 HD
ENDBRANCH  33  36
BRANCH  34  38
ATOM     38  O   UNL     1      -5.633   9.139   6.032  0.00  0.00    +0.000 OA
ATOM     39  H   UNL     1      -6.060   9.992   6.227  0.00  0.00    +0.000 HD
ENDBRANCH  34  38
BRANCH  35  40
ATOM     40  O   UNL     1      -4.514  10.961   4.392  0.00  0.00    +0.000 OA
ATOM     41  H   UNL     1      -4.609  11.664   3.721  0.00  0.00    +0.000 HD
ENDBRANCH  35  40
ENDBRANCH  29  30
ENDBRANCH  27  29
ENDBRANCH   2  27
TORSDOF 12
ENDMDL
MODEL 8
REMARK VINA RESULT:      -6.1     14.849     18.453
REMARK  Name = 
REMARK  12 active torsions:
REMARK  status: ('A' for Active; 'I' for Inactive)
REMARK    1  A    between atoms: O_2  and  C_12
REMARK    2  A    between atoms: O_2  and  C_24
REMARK    3  A    between atoms: O_3  and  C_18
REMARK    4  A    between atoms: O_4  and  C_23
REMARK    5  A    between atoms: O_5  and  C_25
REMARK    6  A    between atoms: O_6  and  C_26
REMARK    7  A    between atoms: O_8  and  C_27
REMARK    8  A    between atoms: O_9  and  C_31
REMARK    9  A    between atoms: O_10  and  C_32
REMARK   10  A    between atoms: O_11  and  C_33
REMARK   11  A    between atoms: C_13  and  C_16
REMARK   12  A    between atoms: C_24  and  C_28
REMARK                            x       y       z     vdW  Elec       q    Type
REMARK                         _______ _______ _______ _____ _____    ______ ____
ROOT
ATOM      1  O   UNL     1       9.389  -7.514  10.852  0.00  0.00    +0.000 OA
ATOM      2  C   UNL     1       7.414  -8.997  10.768  0.00  0.00    +0.000 C 
ATOM      3  C   UNL     1       8.192  -7.836  10.123  0.00  0.00    +0.000 C 
ATOM      4  C   UNL     1       8.298 -10.243  10.743  0.00  0.00    +0.000 C 
ATOM      5  C   UNL     1       9.716  -9.918  11.139  0.00  0.00    +0.000 A 
ATOM      6  C   UNL     1      10.172  -8.594  11.164  0.00  0.00    +0.000 A 
ATOM      7  C   UNL     1      10.615 -10.940  11.467  0.00  0.00    +0.000 A 
ATOM      8  C   UNL     1      11.479  -8.296  11.553  0.00  0.00    +0.000 A 
ATOM      9  C   UNL     1      11.926 -10.654  11.845  0.00  0.00    +0.000 A 
ATOM     10  C   UNL     1      12.346  -9.331  11.889  0.00  0.00    +0.000 A 
ENDROOT
BRANCH   3  11
ATOM     11  C   UNL     1       7.335  -6.584  10.003  0.00  0.00    +0.000 A 
ATOM     12  C   UNL     1       7.624  -5.458  10.799  0.00  0.00    +0.000 A 
ATOM     13  C   UNL     1       6.273  -6.513   9.081  0.00  0.00    +0.000 A 
ATOM     14  C   UNL     1       5.526  -5.345   8.972  0.00  0.00    +0.000 A 
ATOM     15  C   UNL     1       6.864  -4.293  10.681  0.00  0.00    +0.000 A 
ATOM     16  C   UNL     1       5.816  -4.239   9.767  0.00  0.00    +0.000 A 
BRANCH  14  17
ATOM     17  O   UNL     1       4.489  -5.235   8.084  0.00  0.00    +0.000 OA
ATOM     18  H   UNL     1       4.519  -4.348   7.686  0.00  0.00    +0.000 HD
ENDBRANCH  14  17
BRANCH  15  19
ATOM     19  O   UNL     1       7.140  -3.202  11.453  0.00  0.00    +0.000 OA
ATOM     20  H   UNL     1       6.417  -2.562  11.384  0.00  0.00    +0.000 HD
ENDBRANCH  15  19
BRANCH  16  21
ATOM     21  O   UNL     1       5.061  -3.106   9.633  0.00  0.00    +0.000 OA
ATOM     22  H   UNL     1       5.003  -2.739  10.535  0.00  0.00    +0.000 HD
ENDBRANCH  16  21
ENDBRANCH   3  11
BRANCH   7  23
ATOM     23  O   UNL     1      10.183 -12.235  11.413  0.00  0.00    +0.000 OA
ATOM     24  H   UNL     1       9.617 -12.344  10.631  0.00  0.00    +0.000 HD
ENDBRANCH   7  23
BRANCH  10  25
ATOM     25  O   UNL     1      13.633  -9.086  12.266  0.00  0.00    +0.000 OA
ATOM     26  H   UNL     1      14.114  -8.705  11.512  0.00  0.00    +0.000 HD
ENDBRANCH  10  25
BRANCH   2  27
ATOM     27  O   UNL     1       7.103  -8.668  12.146  0.00  0.00    +0.000 OA
BRANCH  27  29
ATOM     28  O   UNL     1       5.296  -7.346  12.651  0.00  0.00    +0.000 OA
ATOM     29  C   UNL     1       5.803  -8.434  12.430  0.00  0.00    +0.000 C 
BRANCH  29  30
ATOM     30  C   UNL     1       5.059  -9.718  12.478  0.00  0.00    +0.000 A 
ATOM     31  C   UNL     1       5.603 -10.766  13.238  0.00  0.00    +0.000 A 
ATOM     32  C   UNL     1       3.842  -9.894  11.797  0.00  0.00    +0.000 A 
ATOM     33  C   UNL     1       3.182 -11.119  11.868  0.00  0.00    +0.000 A 
ATOM     34  C   UNL     1       4.933 -11.981  13.294  0.00  0.00    +0.000 A 
ATOM     35  C   UNL     1       3.731 -12.161  12.610  0.00  0.00    +0.000 A 
BRANCH  33  36
ATOM     36  O   UNL     1       2.000 -11.308  11.211  0.00  0.00    +0.000 OA
ATOM     37  H   UNL     1       1.699 -12.220  11.336  0.00  0.00    +0.000 HD
ENDBRANCH  33  36
BRANCH  34  38
ATOM     38  O   UNL     1       5.420 -13.038  14.014  0.00  0.00    +0.000 OA
ATOM     39  H   UNL     1       4.680 -13.461  14.486  0.00  0.00    +0.000 HD
ENDBRANCH  34  38
BRANCH  35  40
ATOM     40  O   UNL     1       3.098 -13.372  12.687  0.00  0.00    +0.000 OA
ATOM     41  H   UNL     1       3.616 -13.887  13.336  0.00  0.00    +0.000 HD
ENDBRANCH  35  40
ENDBRANCH  29  30
ENDBRANCH  27  29
ENDBRANCH   2  27
TORSDOF 12
ENDMDL
MODEL 9
REMARK VINA RESULT:      -6.1     14.973     18.043
REMARK  Name = 
REMARK  12 active torsions:
REMARK  status: ('A' for Active; 'I' for Inactive)
REMARK    1  A    between atoms: O_2  and  C_12
REMARK    2  A    between atoms: O_2  and  C_24
REMARK    3  A    between atoms: O_3  and  C_18
REMARK    4  A    between atoms: O_4  and  C_23
REMARK    5  A    between atoms: O_5  and  C_25
REMARK    6  A    between atoms: O_6  and  C_26
REMARK    7  A    between atoms: O_8  and  C_27
REMARK    8  A    between atoms: O_9  and  C_31
REMARK    9  A    between atoms: O_10  and  C_32
REMARK   10  A    between atoms: O_11  and  C_33
REMARK   11  A    between atoms: C_13  and  C_16
REMARK   12  A    between atoms: C_24  and  C_28
REMARK                            x       y       z     vdW  Elec       q    Type
REMARK                         _______ _______ _______ _____ _____    ______ ____
ROOT
ATOM      1  O   UNL     1      -6.895   8.586   5.263  0.00  0.00    +0.000 OA
ATOM      2  C   UNL     1      -7.503   6.588   3.942  0.00  0.00    +0.000 C 
ATOM      3  C   UNL     1      -6.545   7.778   4.126  0.00  0.00    +0.000 C 
ATOM      4  C   UNL     1      -7.398   5.689   5.174  0.00  0.00    +0.000 C 
ATOM      5  C   UNL     1      -7.371   6.501   6.445  0.00  0.00    +0.000 A 
ATOM      6  C   UNL     1      -7.120   7.879   6.414  0.00  0.00    +0.000 A 
ATOM      7  C   UNL     1      -7.575   5.887   7.686  0.00  0.00    +0.000 A 
ATOM      8  C   UNL     1      -7.118   8.630   7.591  0.00  0.00    +0.000 A 
ATOM      9  C   UNL     1      -7.563   6.626   8.868  0.00  0.00    +0.000 A 
ATOM     10  C   UNL     1      -7.339   7.995   8.809  0.00  0.00    +0.000 A 
ENDROOT
BRANCH   3  11
ATOM     11  C   UNL     1      -6.502   8.661   2.887  0.00  0.00    +0.000 A 
ATOM     12  C   UNL     1      -5.973   8.154   1.684  0.00  0.00    +0.000 A 
ATOM     13  C   UNL     1      -7.017   9.971   2.908  0.00  0.00    +0.000 A 
ATOM     14  C   UNL     1      -6.992  10.745   1.752  0.00  0.00    +0.000 A 
ATOM     15  C   UNL     1      -5.953   8.943   0.532  0.00  0.00    +0.000 A 
ATOM     16  C   UNL     1      -6.462  10.237   0.568  0.00  0.00    +0.000 A 
BRANCH  14  17
ATOM     17  O   UNL     1      -7.488  12.021   1.731  0.00  0.00    +0.000 OA
ATOM     18  H   UNL     1      -8.223  12.054   1.095  0.00  0.00    +0.000 HD
ENDBRANCH  14  17
BRANCH  15  19
ATOM     19  O   UNL     1      -5.438   8.455  -0.635  0.00  0.00    +0.000 OA
ATOM     20  H   UNL     1      -6.058   8.623  -1.360  0.00  0.00    +0.000 HD
ENDBRANCH  15  19
BRANCH  16  21
ATOM     21  O   UNL     1      -6.455  11.025  -0.549  0.00  0.00    +0.000 OA
ATOM     22  H   UNL     1      -7.079  11.748  -0.346  0.00  0.00    +0.000 HD
ENDBRANCH  16  21
ENDBRANCH   3  11
BRANCH   7  23
ATOM     23  O   UNL     1      -7.789   4.538   7.722  0.00  0.00    +0.000 OA
ATOM     24  H   UNL     1      -6.978   4.084   7.439  0.00  0.00    +0.000 HD
ENDBRANCH   7  23
BRANCH  10  25
ATOM     25  O   UNL     1      -7.338   8.689   9.982  0.00  0.00    +0.000 OA
ATOM     26  H   UNL     1      -6.805   8.202  10.634  0.00  0.00    +0.000 HD
ENDBRANCH  10  25
BRANCH   2  27
ATOM     27  O   UNL     1      -8.864   7.071   3.828  0.00  0.00    +0.000 OA
BRANCH  27  29
ATOM     28  O   UNL     1      -9.891   5.268   2.846  0.00  0.00    +0.000 OA
ATOM     29  C   UNL     1      -9.829   6.133   3.705  0.00  0.00    +0.000 C 
BRANCH  29  30
ATOM     30  C   UNL     1     -10.853   6.324   4.762  0.00  0.00    +0.000 A 
ATOM     31  C   UNL     1     -10.984   7.602   5.329  0.00  0.00    +0.000 A 
ATOM     32  C   UNL     1     -11.682   5.271   5.188  0.00  0.00    +0.000 A 
ATOM     33  C   UNL     1     -12.626   5.497   6.188  0.00  0.00    +0.000 A 
ATOM     34  C   UNL     1     -11.929   7.807   6.326  0.00  0.00    +0.000 A 
ATOM     35  C   UNL     1     -12.744   6.761   6.758  0.00  0.00    +0.000 A 
BRANCH  33  36
ATOM     36  O   UNL     1     -13.438   4.485   6.615  0.00  0.00    +0.000 OA
ATOM     37  H   UNL     1     -13.820   4.029   5.851  0.00  0.00    +0.000 HD
ENDBRANCH  33  36
BRANCH  34  38
ATOM     38  O   UNL     1     -12.096   9.030   6.917  0.00  0.00    +0.000 OA
ATOM     39  H   UNL     1     -11.827   8.964   7.851  0.00  0.00    +0.000 HD
ENDBRANCH  34  38
BRANCH  35  40
ATOM     40  O   UNL     1     -13.664   7.000   7.743  0.00  0.00    +0.000 OA
ATOM     41  H   UNL     1     -14.464   6.513   7.466  0.00  0.00    +0.000 HD
ENDBRANCH  35  40
ENDBRANCH  29  30
ENDBRANCH  27  29
ENDBRANCH   2  27
TORSDOF 12
ENDMDL
