MODEL 1
REMARK VINA RESULT:      -5.7      0.000      0.000
REMARK  Name = Estradiol.pdbqt.pdb
REMARK  2 active torsions:
REMARK  status: ('A' for Active; 'I' for Inactive)
REMARK    1  A    between atoms: C_5  and  O_19
REMARK    2  A    between atoms: C_18  and  O_21
REMARK                            x       y       z     vdW  Elec       q    Type
REMARK                         _______ _______ _______ _____ _____    ______ ____
ROOT
ATOM      1  C   UNL     1      -4.477  -3.488  -2.053  0.00  0.00    +0.000 C 
ATOM      2  C   UNL     1      -4.482  -4.949  -1.385  0.00  0.00    +0.000 C 
ATOM      3  C   UNL     1      -3.395  -5.909  -1.629  0.00  0.00    +0.000 A 
ATOM      4  C   UNL     1      -2.066  -5.610  -2.288  0.00  0.00    +0.000 A 
ATOM      5  C   UNL     1      -4.903  -2.578  -0.882  0.00  0.00    +0.000 C 
ATOM      6  C   UNL     1      -3.108  -3.261  -2.516  0.00  0.00    +0.000 C 
ATOM      7  C   UNL     1      -5.028  -4.803  -0.069  0.00  0.00    +0.000 C 
ATOM      8  C   UNL     1      -1.973  -4.246  -2.661  0.00  0.00    +0.000 C 
ATOM      9  C   UNL     1      -5.258  -3.349   0.257  0.00  0.00    +0.000 C 
ATOM     10  C   UNL     1      -3.473  -7.262  -1.209  0.00  0.00    +0.000 A 
ATOM     11  C   UNL     1      -5.537  -3.454  -3.185  0.00  0.00    +0.000 C 
ATOM     12  C   UNL     1      -0.985  -6.628  -2.512  0.00  0.00    +0.000 A 
ATOM     13  C   UNL     1      -2.380  -8.279  -1.424  0.00  0.00    +0.000 A 
ATOM     14  C   UNL     1      -1.147  -7.978  -2.074  0.00  0.00    +0.000 A 
ATOM     15  C   UNL     1       0.202  -6.281  -3.157  0.00  0.00    +0.000 A 
ATOM     16  C   UNL     1      -0.164  -8.936  -2.280  0.00  0.00    +0.000 A 
ATOM     17  C   UNL     1       1.194  -7.239  -3.367  0.00  0.00    +0.000 A 
ATOM     18  C   UNL     1       1.003  -8.551  -2.929  0.00  0.00    +0.000 A 
ENDROOT
BRANCH   5  19
ATOM     19  O   UNL     1      -4.534  -1.253  -0.791  0.00  0.00    +0.000 OA
ATOM     20  H   UNL     1      -3.634  -1.154  -0.432  0.00  0.00    +0.000 HD
ENDBRANCH   5  19
BRANCH  18  21
ATOM     21  O   UNL     1       1.967  -9.495  -3.135  0.00  0.00    +0.000 OA
ATOM     22  H   UNL     1       2.832  -9.103  -2.920  0.00  0.00    +0.000 HD
ENDBRANCH  18  21
TORSDOF 2
ENDMDL
MODEL 2
REMARK VINA RESULT:      -5.4     24.137     25.582
REMARK  Name = Estradiol.pdbqt.pdb
REMARK  2 active torsions:
REMARK  status: ('A' for Active; 'I' for Inactive)
REMARK    1  A    between atoms: C_5  and  O_19
REMARK    2  A    between atoms: C_18  and  O_21
REMARK                            x       y       z     vdW  Elec       q    Type
REMARK                         _______ _______ _______ _____ _____    ______ ____
ROOT
ATOM      1  C   UNL     1      -8.845 -17.129  22.099  0.00  0.00    +0.000 C 
ATOM      2  C   UNL     1      -8.677 -17.035  20.504  0.00  0.00    +0.000 C 
ATOM      3  C   UNL     1      -7.360 -16.826  19.881  0.00  0.00    +0.000 A 
ATOM      4  C   UNL     1      -6.016 -16.920  20.572  0.00  0.00    +0.000 A 
ATOM      5  C   UNL     1      -9.808 -18.323  22.268  0.00  0.00    +0.000 C 
ATOM      6  C   UNL     1      -7.503 -17.367  22.633  0.00  0.00    +0.000 C 
ATOM      7  C   UNL     1      -9.601 -17.968  19.932  0.00  0.00    +0.000 C 
ATOM      8  C   UNL     1      -6.166 -17.246  21.943  0.00  0.00    +0.000 C 
ATOM      9  C   UNL     1     -10.274 -18.783  21.007  0.00  0.00    +0.000 C 
ATOM     10  C   UNL     1      -7.214 -16.549  18.498  0.00  0.00    +0.000 A 
ATOM     11  C   UNL     1      -9.502 -15.820  22.609  0.00  0.00    +0.000 C 
ATOM     12  C   UNL     1      -4.698 -16.700  19.889  0.00  0.00    +0.000 A 
ATOM     13  C   UNL     1      -5.886 -16.341  17.812  0.00  0.00    +0.000 A 
ATOM     14  C   UNL     1      -4.635 -16.406  18.493  0.00  0.00    +0.000 A 
ATOM     15  C   UNL     1      -3.501 -16.772  20.603  0.00  0.00    +0.000 A 
ATOM     16  C   UNL     1      -3.427 -16.191  17.844  0.00  0.00    +0.000 A 
ATOM     17  C   UNL     1      -2.283 -16.556  19.958  0.00  0.00    +0.000 A 
ATOM     18  C   UNL     1      -2.258 -16.268  18.592  0.00  0.00    +0.000 A 
ENDROOT
BRANCH   5  19
ATOM     19  O   UNL     1      -9.827 -19.115  23.396  0.00  0.00    +0.000 OA
ATOM     20  H   UNL     1     -10.675 -19.584  23.493  0.00  0.00    +0.000 HD
ENDBRANCH   5  19
BRANCH  18  21
ATOM     21  O   UNL     1      -1.070 -16.051  17.955  0.00  0.00    +0.000 OA
ATOM     22  H   UNL     1      -0.360 -16.458  18.482  0.00  0.00    +0.000 HD
ENDBRANCH  18  21
TORSDOF 2
ENDMDL
MODEL 3
REMARK VINA RESULT:      -5.3     25.765     29.164
REMARK  Name = Estradiol.pdbqt.pdb
REMARK  2 active torsions:
REMARK  status: ('A' for Active; 'I' for Inactive)
REMARK    1  A    between atoms: C_5  and  O_19
REMARK    2  A    between atoms: C_18  and  O_21
REMARK                            x       y       z     vdW  Elec       q    Type
REMARK                         _______ _______ _______ _____ _____    ______ ____
ROOT
ATOM      1  C   UNL     1     -19.871  -4.893  18.028  0.00  0.00    +0.000 C 
ATOM      2  C   UNL     1     -20.358  -5.264  19.513  0.00  0.00    +0.000 C 
ATOM      3  C   UNL     1     -20.143  -4.348  20.644  0.00  0.00    +0.000 A 
ATOM      4  C   UNL     1     -19.697  -2.905  20.557  0.00  0.00    +0.000 A 
ATOM      5  C   UNL     1     -21.077  -5.311  17.161  0.00  0.00    +0.000 C 
ATOM      6  C   UNL     1     -19.615  -3.452  18.036  0.00  0.00    +0.000 C 
ATOM      7  C   UNL     1     -21.602  -5.961  19.381  0.00  0.00    +0.000 C 
ATOM      8  C   UNL     1     -19.501  -2.509  19.210  0.00  0.00    +0.000 C 
ATOM      9  C   UNL     1     -22.064  -5.965  17.946  0.00  0.00    +0.000 C 
ATOM     10  C   UNL     1     -20.389  -4.735  21.987  0.00  0.00    +0.000 A 
ATOM     11  C   UNL     1     -18.626  -5.751  17.683  0.00  0.00    +0.000 C 
ATOM     12  C   UNL     1     -19.495  -2.008  21.744  0.00  0.00    +0.000 A 
ATOM     13  C   UNL     1     -20.197  -3.827  23.177  0.00  0.00    +0.000 A 
ATOM     14  C   UNL     1     -19.748  -2.479  23.069  0.00  0.00    +0.000 A 
ATOM     15  C   UNL     1     -19.050  -0.696  21.582  0.00  0.00    +0.000 A 
ATOM     16  C   UNL     1     -19.558  -1.669  24.180  0.00  0.00    +0.000 A 
ATOM     17  C   UNL     1     -18.857   0.123  22.695  0.00  0.00    +0.000 A 
ATOM     18  C   UNL     1     -19.111  -0.369  23.977  0.00  0.00    +0.000 A 
ENDROOT
BRANCH   5  19
ATOM     19  O   UNL     1     -21.368  -4.722  15.950  0.00  0.00    +0.000 OA
ATOM     20  H   UNL     1     -22.257  -4.965  15.634  0.00  0.00    +0.000 HD
ENDBRANCH   5  19
BRANCH  18  21
ATOM     21  O   UNL     1     -18.920   0.425  25.071  0.00  0.00    +0.000 OA
ATOM     22  H   UNL     1     -17.972   0.419  25.294  0.00  0.00    +0.000 HD
ENDBRANCH  18  21
TORSDOF 2
ENDMDL
MODEL 4
REMARK VINA RESULT:      -5.2     28.681     30.650
REMARK  Name = Estradiol.pdbqt.pdb
REMARK  2 active torsions:
REMARK  status: ('A' for Active; 'I' for Inactive)
REMARK    1  A    between atoms: C_5  and  O_19
REMARK    2  A    between atoms: C_18  and  O_21
REMARK                            x       y       z     vdW  Elec       q    Type
REMARK                         _______ _______ _______ _____ _____    ______ ____
ROOT
ATOM      1  C   UNL     1      -7.922  -4.690  27.128  0.00  0.00    +0.000 C 
ATOM      2  C   UNL     1      -9.509  -4.907  27.242  0.00  0.00    +0.000 C 
ATOM      3  C   UNL     1     -10.099  -6.254  27.278  0.00  0.00    +0.000 A 
ATOM      4  C   UNL     1      -9.351  -7.557  27.463  0.00  0.00    +0.000 A 
ATOM      5  C   UNL     1      -7.657  -3.573  28.160  0.00  0.00    +0.000 C 
ATOM      6  C   UNL     1      -7.312  -5.975  27.473  0.00  0.00    +0.000 C 
ATOM      7  C   UNL     1     -10.008  -3.882  28.108  0.00  0.00    +0.000 C 
ATOM      8  C   UNL     1      -7.959  -7.333  27.606  0.00  0.00    +0.000 C 
ATOM      9  C   UNL     1      -8.876  -3.081  28.699  0.00  0.00    +0.000 C 
ATOM     10  C   UNL     1     -11.499  -6.469  27.184  0.00  0.00    +0.000 A 
ATOM     11  C   UNL     1      -7.588  -4.200  25.695  0.00  0.00    +0.000 C 
ATOM     12  C   UNL     1     -10.002  -8.909  27.495  0.00  0.00    +0.000 A 
ATOM     13  C   UNL     1     -12.151  -7.828  27.230  0.00  0.00    +0.000 A 
ATOM     14  C   UNL     1     -11.419  -9.043  27.376  0.00  0.00    +0.000 A 
ATOM     15  C   UNL     1      -9.239 -10.068  27.637  0.00  0.00    +0.000 A 
ATOM     16  C   UNL     1     -12.040 -10.285  27.395  0.00  0.00    +0.000 A 
ATOM     17  C   UNL     1      -9.856 -11.319  27.656  0.00  0.00    +0.000 A 
ATOM     18  C   UNL     1     -11.243 -11.415  27.535  0.00  0.00    +0.000 A 
ENDROOT
BRANCH   5  19
ATOM     19  O   UNL     1      -6.449  -3.423  28.806  0.00  0.00    +0.000 OA
ATOM     20  H   UNL     1      -6.568  -3.126  29.726  0.00  0.00    +0.000 HD
ENDBRANCH   5  19
BRANCH  18  21
ATOM     21  O   UNL     1     -11.854 -12.636  27.548  0.00  0.00    +0.000 OA
ATOM     22  H   UNL     1     -12.436 -12.697  26.770  0.00  0.00    +0.000 HD
ENDBRANCH  18  21
TORSDOF 2
ENDMDL
MODEL 5
REMARK VINA RESULT:      -5.0     28.196     30.556
REMARK  Name = Estradiol.pdbqt.pdb
REMARK  2 active torsions:
REMARK  status: ('A' for Active; 'I' for Inactive)
REMARK    1  A    between atoms: C_5  and  O_19
REMARK    2  A    between atoms: C_18  and  O_21
REMARK                            x       y       z     vdW  Elec       q    Type
REMARK                         _______ _______ _______ _____ _____    ______ ____
ROOT
ATOM      1  C   UNL     1     -10.783  -0.387  29.114  0.00  0.00    +0.000 C 
ATOM      2  C   UNL     1      -9.681  -0.380  27.946  0.00  0.00    +0.000 C 
ATOM      3  C   UNL     1      -9.148  -1.632  27.385  0.00  0.00    +0.000 A 
ATOM      4  C   UNL     1      -9.697  -3.023  27.615  0.00  0.00    +0.000 A 
ATOM      5  C   UNL     1     -11.779   0.695  28.646  0.00  0.00    +0.000 C 
ATOM      6  C   UNL     1     -11.340  -1.740  29.135  0.00  0.00    +0.000 C 
ATOM      7  C   UNL     1      -9.998   0.716  27.080  0.00  0.00    +0.000 C 
ATOM      8  C   UNL     1     -10.831  -2.993  28.464  0.00  0.00    +0.000 C 
ATOM      9  C   UNL     1     -11.300   1.359  27.485  0.00  0.00    +0.000 C 
ATOM     10  C   UNL     1      -8.042  -1.651  26.496  0.00  0.00    +0.000 A 
ATOM     11  C   UNL     1     -10.103   0.034  30.443  0.00  0.00    +0.000 C 
ATOM     12  C   UNL     1      -9.116  -4.271  27.015  0.00  0.00    +0.000 A 
ATOM     13  C   UNL     1      -7.470  -2.906  25.885  0.00  0.00    +0.000 A 
ATOM     14  C   UNL     1      -7.989  -4.208  26.141  0.00  0.00    +0.000 A 
ATOM     15  C   UNL     1      -9.661  -5.523  27.302  0.00  0.00    +0.000 A 
ATOM     16  C   UNL     1      -7.431  -5.351  25.584  0.00  0.00    +0.000 A 
ATOM     17  C   UNL     1      -9.106  -6.676  26.746  0.00  0.00    +0.000 A 
ATOM     18  C   UNL     1      -8.002  -6.580  25.897  0.00  0.00    +0.000 A 
ENDROOT
BRANCH   5  19
ATOM     19  O   UNL     1     -13.113   0.684  28.994  0.00  0.00    +0.000 OA
ATOM     20  H   UNL     1     -13.474  -0.220  29.010  0.00  0.00    +0.000 HD
ENDBRANCH   5  19
BRANCH  18  21
ATOM     21  O   UNL     1      -7.450  -7.704  25.353  0.00  0.00    +0.000 OA
ATOM     22  H   UNL     1      -7.200  -8.305  26.077  0.00  0.00    +0.000 HD
ENDBRANCH  18  21
TORSDOF 2
ENDMDL
MODEL 6
REMARK VINA RESULT:      -4.9     28.767     30.516
REMARK  Name = Estradiol.pdbqt.pdb
REMARK  2 active torsions:
REMARK  status: ('A' for Active; 'I' for Inactive)
REMARK    1  A    between atoms: C_5  and  O_19
REMARK    2  A    between atoms: C_18  and  O_21
REMARK                            x       y       z     vdW  Elec       q    Type
REMARK                         _______ _______ _______ _____ _____    ______ ____
ROOT
ATOM      1  C   UNL     1      -9.659  -1.738  28.752  0.00  0.00    +0.000 C 
ATOM      2  C   UNL     1      -8.775  -2.367  27.569  0.00  0.00    +0.000 C 
ATOM      3  C   UNL     1      -8.860  -3.794  27.221  0.00  0.00    +0.000 A 
ATOM      4  C   UNL     1      -9.904  -4.775  27.708  0.00  0.00    +0.000 A 
ATOM      5  C   UNL     1     -10.167  -0.419  28.132  0.00  0.00    +0.000 C 
ATOM      6  C   UNL     1     -10.717  -2.712  29.027  0.00  0.00    +0.000 C 
ATOM      7  C   UNL     1      -8.702  -1.380  26.533  0.00  0.00    +0.000 C 
ATOM      8  C   UNL     1     -10.835  -4.146  28.573  0.00  0.00    +0.000 C 
ATOM      9  C   UNL     1      -9.578  -0.197  26.858  0.00  0.00    +0.000 C 
ATOM     10  C   UNL     1      -7.955  -4.407  26.316  0.00  0.00    +0.000 A 
ATOM     11  C   UNL     1      -8.737  -1.451  29.966  0.00  0.00    +0.000 C 
ATOM     12  C   UNL     1      -9.949  -6.225  27.321  0.00  0.00    +0.000 A 
ATOM     13  C   UNL     1      -8.011  -5.861  25.919  0.00  0.00    +0.000 A 
ATOM     14  C   UNL     1      -8.988  -6.771  26.416  0.00  0.00    +0.000 A 
ATOM     15  C   UNL     1     -10.926  -7.074  27.839  0.00  0.00    +0.000 A 
ATOM     16  C   UNL     1      -9.007  -8.111  26.052  0.00  0.00    +0.000 A 
ATOM     17  C   UNL     1     -10.950  -8.422  27.478  0.00  0.00    +0.000 A 
ATOM     18  C   UNL     1      -9.995  -8.925  26.593  0.00  0.00    +0.000 A 
ENDROOT
BRANCH   5  19
ATOM     19  O   UNL     1     -11.346   0.183  28.516  0.00  0.00    +0.000 OA
ATOM     20  H   UNL     1     -11.935   0.340  27.756  0.00  0.00    +0.000 HD
ENDBRANCH   5  19
BRANCH  18  21
ATOM     21  O   UNL     1     -10.010 -10.244  26.238  0.00  0.00    +0.000 OA
ATOM     22  H   UNL     1      -9.181 -10.653  26.546  0.00  0.00    +0.000 HD
ENDBRANCH  18  21
TORSDOF 2
ENDMDL
MODEL 7
REMARK VINA RESULT:      -4.9     14.555     17.088
REMARK  Name = Estradiol.pdbqt.pdb
REMARK  2 active torsions:
REMARK  status: ('A' for Active; 'I' for Inactive)
REMARK    1  A    between atoms: C_5  and  O_19
REMARK    2  A    between atoms: C_18  and  O_21
REMARK                            x       y       z     vdW  Elec       q    Type
REMARK                         _______ _______ _______ _____ _____    ______ ____
ROOT
ATOM      1  C   UNL     1     -13.825   8.381   4.381  0.00  0.00    +0.000 C 
ATOM      2  C   UNL     1     -12.765   7.632   3.436  0.00  0.00    +0.000 C 
ATOM      3  C   UNL     1     -11.551   7.009   3.986  0.00  0.00    +0.000 A 
ATOM      4  C   UNL     1     -11.253   6.763   5.449  0.00  0.00    +0.000 A 
ATOM      5  C   UNL     1     -15.179   7.872   3.843  0.00  0.00    +0.000 C 
ATOM      6  C   UNL     1     -13.527   7.947   5.746  0.00  0.00    +0.000 C 
ATOM      7  C   UNL     1     -13.517   6.961   2.417  0.00  0.00    +0.000 C 
ATOM      8  C   UNL     1     -12.316   7.214   6.272  0.00  0.00    +0.000 C 
ATOM      9  C   UNL     1     -14.997   7.078   2.679  0.00  0.00    +0.000 C 
ATOM     10  C   UNL     1     -10.513   6.514   3.155  0.00  0.00    +0.000 A 
ATOM     11  C   UNL     1     -13.691   9.911   4.165  0.00  0.00    +0.000 C 
ATOM     12  C   UNL     1      -9.997   6.119   5.960  0.00  0.00    +0.000 A 
ATOM     13  C   UNL     1      -9.258   5.856   3.672  0.00  0.00    +0.000 A 
ATOM     14  C   UNL     1      -8.989   5.662   5.058  0.00  0.00    +0.000 A 
ATOM     15  C   UNL     1      -9.782   5.957   7.329  0.00  0.00    +0.000 A 
ATOM     16  C   UNL     1      -7.816   5.073   5.510  0.00  0.00    +0.000 A 
ATOM     17  C   UNL     1      -8.606   5.366   7.790  0.00  0.00    +0.000 A 
ATOM     18  C   UNL     1      -7.638   4.932   6.882  0.00  0.00    +0.000 A 
ENDROOT
BRANCH   5  19
ATOM     19  O   UNL     1     -16.311   7.789   4.624  0.00  0.00    +0.000 OA
ATOM     20  H   UNL     1     -16.862   8.589   4.548  0.00  0.00    +0.000 HD
ENDBRANCH   5  19
BRANCH  18  21
ATOM     21  O   UNL     1      -6.482   4.357   7.326  0.00  0.00    +0.000 OA
ATOM     22  H   UNL     1      -6.376   4.571   8.270  0.00  0.00    +0.000 HD
ENDBRANCH  18  21
TORSDOF 2
ENDMDL
MODEL 8
REMARK VINA RESULT:      -4.7      4.512      5.918
REMARK  Name = Estradiol.pdbqt.pdb
REMARK  2 active torsions:
REMARK  status: ('A' for Active; 'I' for Inactive)
REMARK    1  A    between atoms: C_5  and  O_19
REMARK    2  A    between atoms: C_18  and  O_21
REMARK                            x       y       z     vdW  Elec       q    Type
REMARK                         _______ _______ _______ _____ _____    ______ ____
ROOT
ATOM      1  C   UNL     1      -5.236  -2.951  -6.073  0.00  0.00    +0.000 C 
ATOM      2  C   UNL     1      -4.569  -2.384  -4.727  0.00  0.00    +0.000 C 
ATOM      3  C   UNL     1      -4.711  -3.087  -3.443  0.00  0.00    +0.000 A 
ATOM      4  C   UNL     1      -5.248  -4.489  -3.242  0.00  0.00    +0.000 A 
ATOM      5  C   UNL     1      -4.110  -2.770  -7.112  0.00  0.00    +0.000 C 
ATOM      6  C   UNL     1      -5.573  -4.349  -5.799  0.00  0.00    +0.000 C 
ATOM      7  C   UNL     1      -3.308  -1.813  -5.096  0.00  0.00    +0.000 C 
ATOM      8  C   UNL     1      -5.613  -5.080  -4.478  0.00  0.00    +0.000 C 
ATOM      9  C   UNL     1      -3.006  -2.075  -6.550  0.00  0.00    +0.000 C 
ATOM     10  C   UNL     1      -4.298  -2.510  -2.215  0.00  0.00    +0.000 A 
ATOM     11  C   UNL     1      -6.459  -2.069  -6.434  0.00  0.00    +0.000 C 
ATOM     12  C   UNL     1      -5.371  -5.164  -1.907  0.00  0.00    +0.000 A 
ATOM     13  C   UNL     1      -4.412  -3.197  -0.876  0.00  0.00    +0.000 A 
ATOM     14  C   UNL     1      -4.948  -4.507  -0.712  0.00  0.00    +0.000 A 
ATOM     15  C   UNL     1      -5.907  -6.448  -1.802  0.00  0.00    +0.000 A 
ATOM     16  C   UNL     1      -5.062  -5.111   0.533  0.00  0.00    +0.000 A 
ATOM     17  C   UNL     1      -6.024  -7.060  -0.554  0.00  0.00    +0.000 A 
ATOM     18  C   UNL     1      -5.604  -6.390   0.596  0.00  0.00    +0.000 A 
ENDROOT
BRANCH   5  19
ATOM     19  O   UNL     1      -3.988  -3.567  -8.230  0.00  0.00    +0.000 OA
ATOM     20  H   UNL     1      -3.912  -3.037  -9.044  0.00  0.00    +0.000 HD
ENDBRANCH   5  19
BRANCH  18  21
ATOM     21  O   UNL     1      -5.720  -6.981   1.821  0.00  0.00    +0.000 OA
ATOM     22  H   UNL     1      -4.828  -7.084   2.198  0.00  0.00    +0.000 HD
ENDBRANCH  18  21
TORSDOF 2
ENDMDL
MODEL 9
REMARK VINA RESULT:      -4.7     14.738     17.865
REMARK  Name = Estradiol.pdbqt.pdb
REMARK  2 active torsions:
REMARK  status: ('A' for Active; 'I' for Inactive)
REMARK    1  A    between atoms: C_5  and  O_19
REMARK    2  A    between atoms: C_18  and  O_21
REMARK                            x       y       z     vdW  Elec       q    Type
REMARK                         _______ _______ _______ _____ _____    ______ ____
ROOT
ATOM      1  C   UNL     1     -15.619   8.301   4.786  0.00  0.00    +0.000 C 
ATOM      2  C   UNL     1     -14.795   7.750   3.523  0.00  0.00    +0.000 C 
ATOM      3  C   UNL     1     -13.435   7.208   3.670  0.00  0.00    +0.000 A 
ATOM      4  C   UNL     1     -12.742   6.865   4.971  0.00  0.00    +0.000 A 
ATOM      5  C   UNL     1     -17.025   7.707   4.559  0.00  0.00    +0.000 C 
ATOM      6  C   UNL     1     -14.938   7.780   5.972  0.00  0.00    +0.000 C 
ATOM      7  C   UNL     1     -15.737   7.100   2.662  0.00  0.00    +0.000 C 
ATOM      8  C   UNL     1     -13.580   7.131   6.084  0.00  0.00    +0.000 C 
ATOM      9  C   UNL     1     -17.099   7.042   3.306  0.00  0.00    +0.000 C 
ATOM     10  C   UNL     1     -12.620   6.897   2.551  0.00  0.00    +0.000 A 
ATOM     11  C   UNL     1     -15.663   9.850   4.716  0.00  0.00    +0.000 C 
ATOM     12  C   UNL     1     -11.351   6.310   5.068  0.00  0.00    +0.000 A 
ATOM     13  C   UNL     1     -11.227   6.327   2.652  0.00  0.00    +0.000 A 
ATOM     14  C   UNL     1     -10.586   6.039   3.893  0.00  0.00    +0.000 A 
ATOM     15  C   UNL     1     -10.769   6.049   6.309  0.00  0.00    +0.000 A 
ATOM     16  C   UNL     1      -9.295   5.535   3.961  0.00  0.00    +0.000 A 
ATOM     17  C   UNL     1      -9.472   5.542   6.385  0.00  0.00    +0.000 A 
ATOM     18  C   UNL     1      -8.750   5.292   5.216  0.00  0.00    +0.000 A 
ENDROOT
BRANCH   5  19
ATOM     19  O   UNL     1     -17.900   7.440   5.589  0.00  0.00    +0.000 OA
ATOM     20  H   UNL     1     -18.616   8.099   5.635  0.00  0.00    +0.000 HD
ENDBRANCH   5  19
BRANCH  18  21
ATOM     21  O   UNL     1      -7.478   4.800   5.282  0.00  0.00    +0.000 OA
ATOM     22  H   UNL     1      -7.380   4.313   6.119  0.00  0.00    +0.000 HD
ENDBRANCH  18  21
TORSDOF 2
ENDMDL
