MODEL 1
REMARK VINA RESULT:      -6.7      0.000      0.000
REMARK  Name = 
REMARK  11 active torsions:
REMARK  status: ('A' for Active; 'I' for Inactive)
REMARK    1  A    between atoms: O_1  and  C_16
REMARK    2  A    between atoms: O_1  and  C_22
REMARK    3  A    between atoms: O_6  and  C_24
REMARK    4  A    between atoms: O_8  and  C_26
REMARK    5  A    between atoms: O_11  and  C_36
REMARK    6  A    between atoms: O_11  and  C_41
REMARK    7  A    between atoms: O_12  and  C_37
REMARK    8  A    between atoms: O_12  and  C_42
REMARK    9  A    between atoms: O_13  and  C_39
REMARK   10  A    between atoms: C_17  and  C_23
REMARK   11  A    between atoms: C_35  and  C_40
REMARK                            x       y       z     vdW  Elec       q    Type
REMARK                         _______ _______ _______ _____ _____    ______ ____
ROOT
ATOM      1  O   UNL     1     -12.419  -8.605   4.492  0.00  0.00    +0.000 OA
ATOM      2  O   UNL     1     -13.159  -6.539   3.829  0.00  0.00    +0.000 OA
ATOM      3  O   UNL     1     -11.201 -10.485  -3.616  0.00  0.00    +0.000 OA
ATOM      4  O   UNL     1     -12.489  -8.466  -3.907  0.00  0.00    +0.000 OA
ATOM      5  C   UNL     1     -12.200  -9.610   2.416  0.00  0.00    +0.000 C 
ATOM      6  C   UNL     1     -12.245  -8.108   2.212  0.00  0.00    +0.000 C 
ATOM      7  C   UNL     1     -11.356 -10.268   1.333  0.00  0.00    +0.000 C 
ATOM      8  C   UNL     1     -13.065  -7.751   0.973  0.00  0.00    +0.000 C 
ATOM      9  C   UNL     1     -11.731  -9.733  -0.048  0.00  0.00    +0.000 A 
ATOM     10  C   UNL     1     -12.498  -8.534  -0.224  0.00  0.00    +0.000 A 
ATOM     11  C   UNL     1     -11.727  -9.687   3.846  0.00  0.00    +0.000 C 
ATOM     12  C   UNL     1     -12.700  -7.636   3.560  0.00  0.00    +0.000 C 
ATOM     13  C   UNL     1     -11.269 -10.428  -1.182  0.00  0.00    +0.000 A 
ATOM     14  C   UNL     1     -12.781  -8.064  -1.522  0.00  0.00    +0.000 A 
ATOM     15  C   UNL     1     -11.572  -9.930  -2.431  0.00  0.00    +0.000 A 
ATOM     16  C   UNL     1     -12.305  -8.782  -2.596  0.00  0.00    +0.000 A 
ATOM     17  C   UNL     1     -11.788  -9.552  -4.548  0.00  0.00    +0.000 C 
ENDROOT
BRANCH   8  18
ATOM     18  C   UNL     1     -14.578  -7.912   1.133  0.00  0.00    +0.000 A 
ATOM     19  C   UNL     1     -15.487  -6.868   0.887  0.00  0.00    +0.000 A 
ATOM     20  C   UNL     1     -15.097  -9.156   1.531  0.00  0.00    +0.000 A 
ATOM     21  C   UNL     1     -16.473  -9.352   1.653  0.00  0.00    +0.000 A 
ATOM     22  C   UNL     1     -16.873  -7.035   1.023  0.00  0.00    +0.000 A 
ATOM     23  C   UNL     1     -17.355  -8.286   1.407  0.00  0.00    +0.000 A 
BRANCH  21  24
ATOM     24  O   UNL     1     -17.082 -10.532   2.012  0.00  0.00    +0.000 OA
ATOM     25  C   UNL     1     -16.245 -11.685   2.061  0.00  0.00    +0.000 C 
ENDBRANCH  21  24
BRANCH  22  26
ATOM     26  O   UNL     1     -17.578  -5.897   0.734  0.00  0.00    +0.000 OA
ATOM     27  C   UNL     1     -18.262  -5.834  -0.509  0.00  0.00    +0.000 C 
ENDBRANCH  22  26
BRANCH  23  28
ATOM     28  O   UNL     1     -18.697  -8.537   1.548  0.00  0.00    +0.000 OA
ATOM     29  H   UNL     1     -18.910  -9.175   0.840  0.00  0.00    +0.000 HD
ENDBRANCH  23  28
ENDBRANCH   8  18
BRANCH   7  30
ATOM     30  O   UNL     1      -9.981  -9.942   1.537  0.00  0.00    +0.000 OA
BRANCH  30  34
ATOM     31  O   UNL     1      -8.962 -12.001   1.970  0.00  0.00    +0.000 OA
ATOM     32  O   UNL     1      -5.709 -13.409   0.988  0.00  0.00    +0.000 OA
ATOM     33  O   UNL     1      -6.990 -15.103   2.024  0.00  0.00    +0.000 OA
ATOM     34  C   UNL     1      -9.085 -10.936   1.025  0.00  0.00    +0.000 C 
ATOM     35  C   UNL     1      -7.735 -10.231   0.761  0.00  0.00    +0.000 C 
ATOM     36  C   UNL     1      -6.635 -12.401   1.407  0.00  0.00    +0.000 C 
ATOM     37  C   UNL     1      -6.640 -11.246   0.405  0.00  0.00    +0.000 C 
ATOM     38  C   UNL     1      -8.040 -12.987   1.512  0.00  0.00    +0.000 C 
ATOM     39  C   UNL     1      -7.973 -14.172   2.470  0.00  0.00    +0.000 C 
ATOM     40  C   UNL     1      -5.703 -14.495   1.919  0.00  0.00    +0.000 C 
ATOM     41  C   UNL     1      -4.728 -15.541   1.410  0.00  0.00    +0.000 C 
BRANCH  35  42
ATOM     42  O   UNL     1      -7.898  -9.287  -0.311  0.00  0.00    +0.000 OA
ATOM     43  H   UNL     1      -8.311  -8.496   0.087  0.00  0.00    +0.000 HD
ENDBRANCH  35  42
BRANCH  37  44
ATOM     44  O   UNL     1      -5.350 -10.614   0.433  0.00  0.00    +0.000 OA
ATOM     45  H   UNL     1      -5.278 -10.191   1.310  0.00  0.00    +0.000 HD
ENDBRANCH  37  44
ENDBRANCH  30  34
ENDBRANCH   7  30
TORSDOF 8
ENDMDL
MODEL 2
REMARK VINA RESULT:      -6.5     19.635     24.234
REMARK  Name = 
REMARK  11 active torsions:
REMARK  status: ('A' for Active; 'I' for Inactive)
REMARK    1  A    between atoms: O_1  and  C_16
REMARK    2  A    between atoms: O_1  and  C_22
REMARK    3  A    between atoms: O_6  and  C_24
REMARK    4  A    between atoms: O_8  and  C_26
REMARK    5  A    between atoms: O_11  and  C_36
REMARK    6  A    between atoms: O_11  and  C_41
REMARK    7  A    between atoms: O_12  and  C_37
REMARK    8  A    between atoms: O_12  and  C_42
REMARK    9  A    between atoms: O_13  and  C_39
REMARK   10  A    between atoms: C_17  and  C_23
REMARK   11  A    between atoms: C_35  and  C_40
REMARK                            x       y       z     vdW  Elec       q    Type
REMARK                         _______ _______ _______ _____ _____    ______ ____
ROOT
ATOM      1  O   UNL     1       9.538 -16.462  13.198  0.00  0.00    +0.000 OA
ATOM      2  O   UNL     1      10.974 -15.797  11.539  0.00  0.00    +0.000 OA
ATOM      3  O   UNL     1       4.811  -9.727  11.450  0.00  0.00    +0.000 OA
ATOM      4  O   UNL     1       6.775  -9.122  10.188  0.00  0.00    +0.000 OA
ATOM      5  C   UNL     1       8.124 -14.627  13.229  0.00  0.00    +0.000 C 
ATOM      6  C   UNL     1       8.880 -14.619  11.915  0.00  0.00    +0.000 C 
ATOM      7  C   UNL     1       6.748 -13.997  13.054  0.00  0.00    +0.000 C 
ATOM      8  C   UNL     1       9.278 -13.197  11.525  0.00  0.00    +0.000 C 
ATOM      9  C   UNL     1       6.846 -12.684  12.280  0.00  0.00    +0.000 A 
ATOM     10  C   UNL     1       8.013 -12.321  11.530  0.00  0.00    +0.000 A 
ATOM     11  C   UNL     1       8.208 -16.087  13.595  0.00  0.00    +0.000 C 
ATOM     12  C   UNL     1       9.946 -15.640  12.177  0.00  0.00    +0.000 C 
ATOM     13  C   UNL     1       5.731 -11.824  12.278  0.00  0.00    +0.000 A 
ATOM     14  C   UNL     1       8.035 -11.115  10.801  0.00  0.00    +0.000 A 
ATOM     15  C   UNL     1       5.799 -10.656  11.550  0.00  0.00    +0.000 A 
ATOM     16  C   UNL     1       6.916 -10.312  10.832  0.00  0.00    +0.000 A 
ATOM     17  C   UNL     1       5.438  -8.756  10.586  0.00  0.00    +0.000 C 
ENDROOT
BRANCH   8  18
ATOM     18  C   UNL     1      10.425 -12.600  12.345  0.00  0.00    +0.000 A 
ATOM     19  C   UNL     1      10.270 -12.174  13.676  0.00  0.00    +0.000 A 
ATOM     20  C   UNL     1      11.696 -12.480  11.758  0.00  0.00    +0.000 A 
ATOM     21  C   UNL     1      12.775 -11.976  12.485  0.00  0.00    +0.000 A 
ATOM     22  C   UNL     1      11.334 -11.644  14.419  0.00  0.00    +0.000 A 
ATOM     23  C   UNL     1      12.587 -11.551  13.811  0.00  0.00    +0.000 A 
BRANCH  21  24
ATOM     24  O   UNL     1      14.060 -11.838  12.013  0.00  0.00    +0.000 OA
ATOM     25  C   UNL     1      14.681 -13.022  11.518  0.00  0.00    +0.000 C 
ENDBRANCH  21  24
BRANCH  22  26
ATOM     26  O   UNL     1      10.973 -11.293  15.692  0.00  0.00    +0.000 OA
ATOM     27  C   UNL     1      10.568  -9.951  15.924  0.00  0.00    +0.000 C 
ENDBRANCH  22  26
BRANCH  23  28
ATOM     28  O   UNL     1      13.683 -11.058  14.474  0.00  0.00    +0.000 OA
ATOM     29  H   UNL     1      13.888 -11.728  15.154  0.00  0.00    +0.000 HD
ENDBRANCH  23  28
ENDBRANCH   8  18
BRANCH   7  30
ATOM     30  O   UNL     1       5.922 -14.867  12.280  0.00  0.00    +0.000 OA
BRANCH  30  34
ATOM     31  O   UNL     1       5.021 -16.463  13.731  0.00  0.00    +0.000 OA
ATOM     32  O   UNL     1       1.643 -17.879  14.066  0.00  0.00    +0.000 OA
ATOM     33  O   UNL     1       2.965 -18.628  15.877  0.00  0.00    +0.000 OA
ATOM     34  C   UNL     1       4.740 -15.285  12.974  0.00  0.00    +0.000 C 
ATOM     35  C   UNL     1       3.652 -15.525  11.902  0.00  0.00    +0.000 C 
ATOM     36  C   UNL     1       2.796 -17.369  13.387  0.00  0.00    +0.000 C 
ATOM     37  C   UNL     1       2.403 -16.175  12.517  0.00  0.00    +0.000 C 
ATOM     38  C   UNL     1       3.853 -16.934  14.398  0.00  0.00    +0.000 C 
ATOM     39  C   UNL     1       4.165 -18.136  15.283  0.00  0.00    +0.000 C 
ATOM     40  C   UNL     1       2.004 -18.994  14.886  0.00  0.00    +0.000 C 
ATOM     41  C   UNL     1       0.753 -19.474  15.599  0.00  0.00    +0.000 C 
BRANCH  35  42
ATOM     42  O   UNL     1       3.304 -14.270  11.294  0.00  0.00    +0.000 OA
ATOM     43  H   UNL     1       4.123 -13.935  10.880  0.00  0.00    +0.000 HD
ENDBRANCH  35  42
BRANCH  37  44
ATOM     44  O   UNL     1       1.524 -16.638  11.479  0.00  0.00    +0.000 OA
ATOM     45  H   UNL     1       2.102 -16.923  10.746  0.00  0.00    +0.000 HD
ENDBRANCH  37  44
ENDBRANCH  30  34
ENDBRANCH   7  30
TORSDOF 8
ENDMDL
MODEL 3
REMARK VINA RESULT:      -6.3      2.541      9.578
REMARK  Name = 
REMARK  11 active torsions:
REMARK  status: ('A' for Active; 'I' for Inactive)
REMARK    1  A    between atoms: O_1  and  C_16
REMARK    2  A    between atoms: O_1  and  C_22
REMARK    3  A    between atoms: O_6  and  C_24
REMARK    4  A    between atoms: O_8  and  C_26
REMARK    5  A    between atoms: O_11  and  C_36
REMARK    6  A    between atoms: O_11  and  C_41
REMARK    7  A    between atoms: O_12  and  C_37
REMARK    8  A    between atoms: O_12  and  C_42
REMARK    9  A    between atoms: O_13  and  C_39
REMARK   10  A    between atoms: C_17  and  C_23
REMARK   11  A    between atoms: C_35  and  C_40
REMARK                            x       y       z     vdW  Elec       q    Type
REMARK                         _______ _______ _______ _____ _____    ______ ____
ROOT
ATOM      1  O   UNL     1      -7.728 -10.228   0.085  0.00  0.00    +0.000 OA
ATOM      2  O   UNL     1      -5.743 -11.167   0.744  0.00  0.00    +0.000 OA
ATOM      3  O   UNL     1     -11.657 -15.465   5.368  0.00  0.00    +0.000 OA
ATOM      4  O   UNL     1      -9.476 -16.496   5.398  0.00  0.00    +0.000 OA
ATOM      5  C   UNL     1      -9.196 -11.644   1.185  0.00  0.00    +0.000 C 
ATOM      6  C   UNL     1      -7.829 -11.789   1.826  0.00  0.00    +0.000 C 
ATOM      7  C   UNL     1     -10.293 -11.896   2.211  0.00  0.00    +0.000 C 
ATOM      8  C   UNL     1      -7.545 -13.249   2.176  0.00  0.00    +0.000 C 
ATOM      9  C   UNL     1     -10.000 -13.159   3.020  0.00  0.00    +0.000 A 
ATOM     10  C   UNL     1      -8.705 -13.774   3.039  0.00  0.00    +0.000 A 
ATOM     11  C   UNL     1      -9.079 -10.269   0.577  0.00  0.00    +0.000 C 
ATOM     12  C   UNL     1      -6.957 -11.084   0.832  0.00  0.00    +0.000 C 
ATOM     13  C   UNL     1     -11.035 -13.706   3.802  0.00  0.00    +0.000 A 
ATOM     14  C   UNL     1      -8.480 -14.915   3.835  0.00  0.00    +0.000 A 
ATOM     15  C   UNL     1     -10.767 -14.822   4.565  0.00  0.00    +0.000 A 
ATOM     16  C   UNL     1      -9.527 -15.409   4.582  0.00  0.00    +0.000 A 
ATOM     17  C   UNL     1     -10.832 -16.527   5.892  0.00  0.00    +0.000 C 
ENDROOT
BRANCH   8  18
ATOM     18  C   UNL     1      -7.231 -14.150   0.979  0.00  0.00    +0.000 A 
ATOM     19  C   UNL     1      -7.924 -14.067  -0.241  0.00  0.00    +0.000 A 
ATOM     20  C   UNL     1      -6.197 -15.096   1.087  0.00  0.00    +0.000 A 
ATOM     21  C   UNL     1      -5.857 -15.910   0.006  0.00  0.00    +0.000 A 
ATOM     22  C   UNL     1      -7.614 -14.889  -1.334  0.00  0.00    +0.000 A 
ATOM     23  C   UNL     1      -6.574 -15.809  -1.198  0.00  0.00    +0.000 A 
BRANCH  21  24
ATOM     24  O   UNL     1      -4.851 -16.849   0.001  0.00  0.00    +0.000 OA
ATOM     25  C   UNL     1      -5.075 -18.020   0.782  0.00  0.00    +0.000 C 
ENDBRANCH  21  24
BRANCH  22  26
ATOM     26  O   UNL     1      -8.406 -14.648  -2.424  0.00  0.00    +0.000 OA
ATOM     27  C   UNL     1      -8.788 -13.305  -2.687  0.00  0.00    +0.000 C 
ENDBRANCH  22  26
BRANCH  23  28
ATOM     28  O   UNL     1      -6.198 -16.640  -2.224  0.00  0.00    +0.000 OA
ATOM     29  H   UNL     1      -7.000 -16.742  -2.772  0.00  0.00    +0.000 HD
ENDBRANCH  23  28
ENDBRANCH   8  18
BRANCH   7  30
ATOM     30  O   UNL     1     -10.332 -10.814   3.142  0.00  0.00    +0.000 OA
BRANCH  30  34
ATOM     31  O   UNL     1     -12.087  -9.912   1.888  0.00  0.00    +0.000 OA
ATOM     32  O   UNL     1     -14.447  -7.169   2.549  0.00  0.00    +0.000 OA
ATOM     33  O   UNL     1     -15.113  -8.286   0.577  0.00  0.00    +0.000 OA
ATOM     34  C   UNL     1     -11.614 -10.178   3.210  0.00  0.00    +0.000 C 
ATOM     35  C   UNL     1     -11.429  -8.883   4.035  0.00  0.00    +0.000 C 
ATOM     36  C   UNL     1     -13.192  -7.858   2.560  0.00  0.00    +0.000 C 
ATOM     37  C   UNL     1     -12.696  -8.017   3.998  0.00  0.00    +0.000 C 
ATOM     38  C   UNL     1     -13.341  -9.235   1.920  0.00  0.00    +0.000 C 
ATOM     39  C   UNL     1     -13.897  -9.031   0.515  0.00  0.00    +0.000 C 
ATOM     40  C   UNL     1     -14.919  -7.021   1.207  0.00  0.00    +0.000 C 
ATOM     41  C   UNL     1     -16.261  -6.312   1.260  0.00  0.00    +0.000 C 
BRANCH  35  42
ATOM     42  O   UNL     1     -11.112  -9.232   5.393  0.00  0.00    +0.000 OA
ATOM     43  H   UNL     1     -10.930 -10.192   5.389  0.00  0.00    +0.000 HD
ENDBRANCH  35  42
BRANCH  37  44
ATOM     44  O   UNL     1     -12.419  -6.711   4.530  0.00  0.00    +0.000 OA
ATOM     45  H   UNL     1     -11.473  -6.715   4.770  0.00  0.00    +0.000 HD
ENDBRANCH  37  44
ENDBRANCH  30  34
ENDBRANCH   7  30
TORSDOF 8
ENDMDL
MODEL 4
REMARK VINA RESULT:      -6.2     25.759     28.640
REMARK  Name = 
REMARK  11 active torsions:
REMARK  status: ('A' for Active; 'I' for Inactive)
REMARK    1  A    between atoms: O_1  and  C_16
REMARK    2  A    between atoms: O_1  and  C_22
REMARK    3  A    between atoms: O_6  and  C_24
REMARK    4  A    between atoms: O_8  and  C_26
REMARK    5  A    between atoms: O_11  and  C_36
REMARK    6  A    between atoms: O_11  and  C_41
REMARK    7  A    between atoms: O_12  and  C_37
REMARK    8  A    between atoms: O_12  and  C_42
REMARK    9  A    between atoms: O_13  and  C_39
REMARK   10  A    between atoms: C_17  and  C_23
REMARK   11  A    between atoms: C_35  and  C_40
REMARK                            x       y       z     vdW  Elec       q    Type
REMARK                         _______ _______ _______ _____ _____    ______ ____
ROOT
ATOM      1  O   UNL     1      -7.011  -5.532  25.485  0.00  0.00    +0.000 OA
ATOM      2  O   UNL     1      -7.299  -3.417  24.649  0.00  0.00    +0.000 OA
ATOM      3  O   UNL     1     -13.177  -3.923  30.975  0.00  0.00    +0.000 OA
ATOM      4  O   UNL     1     -12.816  -1.677  30.175  0.00  0.00    +0.000 OA
ATOM      5  C   UNL     1      -8.437  -5.414  27.308  0.00  0.00    +0.000 C 
ATOM      6  C   UNL     1      -8.799  -4.295  26.350  0.00  0.00    +0.000 C 
ATOM      7  C   UNL     1      -9.670  -5.879  28.072  0.00  0.00    +0.000 C 
ATOM      8  C   UNL     1      -9.145  -3.017  27.113  0.00  0.00    +0.000 C 
ATOM      9  C   UNL     1     -10.456  -4.685  28.612  0.00  0.00    +0.000 A 
ATOM     10  C   UNL     1     -10.242  -3.349  28.139  0.00  0.00    +0.000 A 
ATOM     11  C   UNL     1      -7.762  -6.382  26.369  0.00  0.00    +0.000 C 
ATOM     12  C   UNL     1      -7.623  -4.305  25.420  0.00  0.00    +0.000 C 
ATOM     13  C   UNL     1     -11.449  -4.923  29.581  0.00  0.00    +0.000 A 
ATOM     14  C   UNL     1     -11.024  -2.290  28.645  0.00  0.00    +0.000 A 
ATOM     15  C   UNL     1     -12.188  -3.856  30.045  0.00  0.00    +0.000 A 
ATOM     16  C   UNL     1     -11.983  -2.578  29.590  0.00  0.00    +0.000 A 
ATOM     17  C   UNL     1     -13.570  -2.537  31.055  0.00  0.00    +0.000 C 
ENDROOT
BRANCH   8  18
ATOM     18  C   UNL     1      -7.947  -2.289  27.727  0.00  0.00    +0.000 A 
ATOM     19  C   UNL     1      -7.346  -1.168  27.127  0.00  0.00    +0.000 A 
ATOM     20  C   UNL     1      -7.424  -2.741  28.950  0.00  0.00    +0.000 A 
ATOM     21  C   UNL     1      -6.357  -2.081  29.560  0.00  0.00    +0.000 A 
ATOM     22  C   UNL     1      -6.259  -0.501  27.710  0.00  0.00    +0.000 A 
ATOM     23  C   UNL     1      -5.772  -0.968  28.931  0.00  0.00    +0.000 A 
BRANCH  21  24
ATOM     24  O   UNL     1      -5.787  -2.428  30.763  0.00  0.00    +0.000 OA
ATOM     25  C   UNL     1      -5.694  -3.823  31.039  0.00  0.00    +0.000 C 
ENDBRANCH  21  24
BRANCH  22  26
ATOM     26  O   UNL     1      -5.826   0.563  26.966  0.00  0.00    +0.000 OA
ATOM     27  C   UNL     1      -6.362   1.845  27.261  0.00  0.00    +0.000 C 
ENDBRANCH  22  26
BRANCH  23  28
ATOM     28  O   UNL     1      -4.722  -0.364  29.575  0.00  0.00    +0.000 OA
ATOM     29  H   UNL     1      -4.948   0.587  29.589  0.00  0.00    +0.000 HD
ENDBRANCH  23  28
ENDBRANCH   8  18
BRANCH   7  30
ATOM     30  O   UNL     1     -10.545  -6.576  27.184  0.00  0.00    +0.000 OA
BRANCH  30  34
ATOM     31  O   UNL     1      -9.794  -8.632  28.004  0.00  0.00    +0.000 OA
ATOM     32  O   UNL     1     -11.182 -12.033  27.808  0.00  0.00    +0.000 OA
ATOM     33  O   UNL     1      -9.329 -12.051  29.274  0.00  0.00    +0.000 OA
ATOM     34  C   UNL     1     -10.950  -7.856  27.685  0.00  0.00    +0.000 C 
ATOM     35  C   UNL     1     -11.811  -8.516  26.584  0.00  0.00    +0.000 C 
ATOM     36  C   UNL     1     -10.856 -10.715  27.352  0.00  0.00    +0.000 C 
ATOM     37  C   UNL     1     -12.128  -9.978  26.931  0.00  0.00    +0.000 C 
ATOM     38  C   UNL     1     -10.160  -9.931  28.462  0.00  0.00    +0.000 C 
ATOM     39  C   UNL     1      -8.937 -10.733  28.893  0.00  0.00    +0.000 C 
ATOM     40  C   UNL     1      -9.997 -12.726  28.209  0.00  0.00    +0.000 C 
ATOM     41  C   UNL     1     -10.406 -14.101  28.706  0.00  0.00    +0.000 C 
BRANCH  35  42
ATOM     42  O   UNL     1     -13.031  -7.772  26.430  0.00  0.00    +0.000 OA
ATOM     43  H   UNL     1     -13.756  -8.417  26.544  0.00  0.00    +0.000 HD
ENDBRANCH  35  42
BRANCH  37  44
ATOM     44  O   UNL     1     -12.684 -10.649  25.789  0.00  0.00    +0.000 OA
ATOM     45  H   UNL     1     -13.282 -10.005  25.365  0.00  0.00    +0.000 HD
ENDBRANCH  37  44
ENDBRANCH  30  34
ENDBRANCH   7  30
TORSDOF 8
ENDMDL
MODEL 5
REMARK VINA RESULT:      -6.1     20.208     24.885
REMARK  Name = 
REMARK  11 active torsions:
REMARK  status: ('A' for Active; 'I' for Inactive)
REMARK    1  A    between atoms: O_1  and  C_16
REMARK    2  A    between atoms: O_1  and  C_22
REMARK    3  A    between atoms: O_6  and  C_24
REMARK    4  A    between atoms: O_8  and  C_26
REMARK    5  A    between atoms: O_11  and  C_36
REMARK    6  A    between atoms: O_11  and  C_41
REMARK    7  A    between atoms: O_12  and  C_37
REMARK    8  A    between atoms: O_12  and  C_42
REMARK    9  A    between atoms: O_13  and  C_39
REMARK   10  A    between atoms: C_17  and  C_23
REMARK   11  A    between atoms: C_35  and  C_40
REMARK                            x       y       z     vdW  Elec       q    Type
REMARK                         _______ _______ _______ _____ _____    ______ ____
ROOT
ATOM      1  O   UNL     1       9.070 -15.054  13.419  0.00  0.00    +0.000 OA
ATOM      2  O   UNL     1      10.609 -15.106  11.721  0.00  0.00    +0.000 OA
ATOM      3  O   UNL     1       7.034  -7.264  10.986  0.00  0.00    +0.000 OA
ATOM      4  O   UNL     1       9.054  -7.525   9.695  0.00  0.00    +0.000 OA
ATOM      5  C   UNL     1       8.409 -12.839  13.260  0.00  0.00    +0.000 C 
ATOM      6  C   UNL     1       9.087 -13.226  11.959  0.00  0.00    +0.000 C 
ATOM      7  C   UNL     1       7.347 -11.776  13.010  0.00  0.00    +0.000 C 
ATOM      8  C   UNL     1       9.960 -12.084  11.441  0.00  0.00    +0.000 C 
ATOM      9  C   UNL     1       7.892 -10.664  12.116  0.00  0.00    +0.000 A 
ATOM     10  C   UNL     1       9.093 -10.816  11.349  0.00  0.00    +0.000 A 
ATOM     11  C   UNL     1       7.972 -14.192  13.764  0.00  0.00    +0.000 C 
ATOM     12  C   UNL     1       9.722 -14.532  12.330  0.00  0.00    +0.000 C 
ATOM     13  C   UNL     1       7.159  -9.465  12.020  0.00  0.00    +0.000 A 
ATOM     14  C   UNL     1       9.529  -9.771  10.509  0.00  0.00    +0.000 A 
ATOM     15  C   UNL     1       7.625  -8.472  11.185  0.00  0.00    +0.000 A 
ATOM     16  C   UNL     1       8.774  -8.621  10.451  0.00  0.00    +0.000 A 
ATOM     17  C   UNL     1       7.947  -6.667  10.041  0.00  0.00    +0.000 C 
ENDROOT
BRANCH   8  18
ATOM     18  C   UNL     1      11.263 -11.866  12.214  0.00  0.00    +0.000 A 
ATOM     19  C   UNL     1      11.295 -11.389  13.536  0.00  0.00    +0.000 A 
ATOM     20  C   UNL     1      12.487 -12.165  11.592  0.00  0.00    +0.000 A 
ATOM     21  C   UNL     1      13.693 -12.014  12.276  0.00  0.00    +0.000 A 
ATOM     22  C   UNL     1      12.496 -11.209  14.237  0.00  0.00    +0.000 A 
ATOM     23  C   UNL     1      13.693 -11.528  13.594  0.00  0.00    +0.000 A 
BRANCH  21  24
ATOM     24  O   UNL     1      14.940 -12.299  11.767  0.00  0.00    +0.000 OA
ATOM     25  C   UNL     1      15.168 -13.651  11.377  0.00  0.00    +0.000 C 
ENDBRANCH  21  24
BRANCH  22  26
ATOM     26  O   UNL     1      12.307 -10.738  15.508  0.00  0.00    +0.000 OA
ATOM     27  C   UNL     1      12.252  -9.332  15.698  0.00  0.00    +0.000 C 
ENDBRANCH  22  26
BRANCH  23  28
ATOM     28  O   UNL     1      14.910 -11.395  14.214  0.00  0.00    +0.000 OA
ATOM     29  H   UNL     1      14.770 -11.736  15.119  0.00  0.00    +0.000 HD
ENDBRANCH  23  28
ENDBRANCH   8  18
BRANCH   7  30
ATOM     30  O   UNL     1       6.246 -12.359  12.312  0.00  0.00    +0.000 OA
BRANCH  30  34
ATOM     31  O   UNL     1       5.216 -11.795  14.334  0.00  0.00    +0.000 OA
ATOM     32  O   UNL     1       1.998 -12.764  15.828  0.00  0.00    +0.000 OA
ATOM     33  O   UNL     1       2.970 -11.064  17.151  0.00  0.00    +0.000 OA
ATOM     34  C   UNL     1       4.989 -12.146  12.967  0.00  0.00    +0.000 C 
ATOM     35  C   UNL     1       4.183 -13.458  12.828  0.00  0.00    +0.000 C 
ATOM     36  C   UNL     1       3.214 -12.937  15.092  0.00  0.00    +0.000 C 
ATOM     37  C   UNL     1       2.901 -13.412  13.673  0.00  0.00    +0.000 C 
ATOM     38  C   UNL     1       3.984 -11.622  15.029  0.00  0.00    +0.000 C 
ATOM     39  C   UNL     1       4.216 -11.155  16.462  0.00  0.00    +0.000 C 
ATOM     40  C   UNL     1       2.283 -12.315  17.156  0.00  0.00    +0.000 C 
ATOM     41  C   UNL     1       0.961 -12.122  17.877  0.00  0.00    +0.000 C 
BRANCH  35  42
ATOM     42  O   UNL     1       3.853 -13.663  11.444  0.00  0.00    +0.000 OA
ATOM     43  H   UNL     1       4.598 -14.165  11.061  0.00  0.00    +0.000 HD
ENDBRANCH  35  42
BRANCH  37  44
ATOM     44  O   UNL     1       2.312 -14.720  13.750  0.00  0.00    +0.000 OA
ATOM     45  H   UNL     1       3.041 -15.352  13.600  0.00  0.00    +0.000 HD
ENDBRANCH  37  44
ENDBRANCH  30  34
ENDBRANCH   7  30
TORSDOF 8
ENDMDL
MODEL 6
REMARK VINA RESULT:      -6.0      2.296      4.296
REMARK  Name = 
REMARK  11 active torsions:
REMARK  status: ('A' for Active; 'I' for Inactive)
REMARK    1  A    between atoms: O_1  and  C_16
REMARK    2  A    between atoms: O_1  and  C_22
REMARK    3  A    between atoms: O_6  and  C_24
REMARK    4  A    between atoms: O_8  and  C_26
REMARK    5  A    between atoms: O_11  and  C_36
REMARK    6  A    between atoms: O_11  and  C_41
REMARK    7  A    between atoms: O_12  and  C_37
REMARK    8  A    between atoms: O_12  and  C_42
REMARK    9  A    between atoms: O_13  and  C_39
REMARK   10  A    between atoms: C_17  and  C_23
REMARK   11  A    between atoms: C_35  and  C_40
REMARK                            x       y       z     vdW  Elec       q    Type
REMARK                         _______ _______ _______ _____ _____    ______ ____
ROOT
ATOM      1  O   UNL     1      -9.114  -8.014   0.040  0.00  0.00    +0.000 OA
ATOM      2  O   UNL     1     -11.050  -7.087  -0.764  0.00  0.00    +0.000 OA
ATOM      3  O   UNL     1     -13.552 -14.859   2.093  0.00  0.00    +0.000 OA
ATOM      4  O   UNL     1     -15.390 -13.368   1.627  0.00  0.00    +0.000 OA
ATOM      5  C   UNL     1      -9.987  -9.936   0.996  0.00  0.00    +0.000 C 
ATOM      6  C   UNL     1     -11.008  -9.389   0.017  0.00  0.00    +0.000 C 
ATOM      7  C   UNL     1     -10.096 -11.453   1.085  0.00  0.00    +0.000 C 
ATOM      8  C   UNL     1     -12.424  -9.528   0.574  0.00  0.00    +0.000 C 
ATOM      9  C   UNL     1     -11.554 -11.884   1.238  0.00  0.00    +0.000 A 
ATOM     10  C   UNL     1     -12.648 -10.999   0.963  0.00  0.00    +0.000 A 
ATOM     11  C   UNL     1      -8.718  -9.335   0.446  0.00  0.00    +0.000 C 
ATOM     12  C   UNL     1     -10.454  -8.024  -0.261  0.00  0.00    +0.000 C 
ATOM     13  C   UNL     1     -11.821 -13.211   1.627  0.00  0.00    +0.000 A 
ATOM     14  C   UNL     1     -13.974 -11.462   1.083  0.00  0.00    +0.000 A 
ATOM     15  C   UNL     1     -13.134 -13.617   1.730  0.00  0.00    +0.000 A 
ATOM     16  C   UNL     1     -14.179 -12.769   1.465  0.00  0.00    +0.000 A 
ATOM     17  C   UNL     1     -14.984 -14.694   2.027  0.00  0.00    +0.000 C 
ENDROOT
BRANCH   8  18
ATOM     18  C   UNL     1     -12.774  -8.549   1.698  0.00  0.00    +0.000 A 
ATOM     19  C   UNL     1     -13.923  -7.739   1.673  0.00  0.00    +0.000 A 
ATOM     20  C   UNL     1     -11.925  -8.456   2.814  0.00  0.00    +0.000 A 
ATOM     21  C   UNL     1     -12.230  -7.602   3.875  0.00  0.00    +0.000 A 
ATOM     22  C   UNL     1     -14.238  -6.858   2.718  0.00  0.00    +0.000 A 
ATOM     23  C   UNL     1     -13.381  -6.799   3.817  0.00  0.00    +0.000 A 
BRANCH  21  24
ATOM     24  O   UNL     1     -11.480  -7.454   5.019  0.00  0.00    +0.000 OA
ATOM     25  C   UNL     1     -11.692  -8.422   6.043  0.00  0.00    +0.000 C 
ENDBRANCH  21  24
BRANCH  22  26
ATOM     26  O   UNL     1     -15.398  -6.165   2.499  0.00  0.00    +0.000 OA
ATOM     27  C   UNL     1     -16.126  -6.441   1.311  0.00  0.00    +0.000 C 
ENDBRANCH  22  26
BRANCH  23  28
ATOM     28  O   UNL     1     -13.626  -5.975   4.887  0.00  0.00    +0.000 OA
ATOM     29  H   UNL     1     -12.876  -6.124   5.496  0.00  0.00    +0.000 HD
ENDBRANCH  23  28
ENDBRANCH   8  18
BRANCH   7  30
ATOM     30  O   UNL     1      -9.624 -12.036  -0.130  0.00  0.00    +0.000 OA
BRANCH  30  34
ATOM     31  O   UNL     1      -8.461 -13.338   1.426  0.00  0.00    +0.000 OA
ATOM     32  O   UNL     1      -5.680 -15.720   1.075  0.00  0.00    +0.000 OA
ATOM     33  O   UNL     1      -6.495 -15.822   3.291  0.00  0.00    +0.000 OA
ATOM     34  C   UNL     1      -8.921 -13.268   0.075  0.00  0.00    +0.000 C 
ATOM     35  C   UNL     1      -7.756 -13.295  -0.941  0.00  0.00    +0.000 C 
ATOM     36  C   UNL     1      -6.443 -14.537   0.810  0.00  0.00    +0.000 C 
ATOM     37  C   UNL     1      -6.814 -14.476  -0.672  0.00  0.00    +0.000 C 
ATOM     38  C   UNL     1      -7.716 -14.531   1.651  0.00  0.00    +0.000 C 
ATOM     39  C   UNL     1      -7.300 -14.658   3.113  0.00  0.00    +0.000 C 
ATOM     40  C   UNL     1      -5.334 -15.786   2.461  0.00  0.00    +0.000 C 
ATOM     41  C   UNL     1      -4.554 -17.068   2.687  0.00  0.00    +0.000 C 
BRANCH  35  42
ATOM     42  O   UNL     1      -8.294 -13.387  -2.271  0.00  0.00    +0.000 OA
ATOM     43  H   UNL     1      -8.256 -14.333  -2.512  0.00  0.00    +0.000 HD
ENDBRANCH  35  42
BRANCH  37  44
ATOM     44  O   UNL     1      -5.606 -14.331  -1.437  0.00  0.00    +0.000 OA
ATOM     45  H   UNL     1      -4.872 -14.455  -0.806  0.00  0.00    +0.000 HD
ENDBRANCH  37  44
ENDBRANCH  30  34
ENDBRANCH   7  30
TORSDOF 8
ENDMDL
MODEL 7
REMARK VINA RESULT:      -5.9     25.705     28.664
REMARK  Name = 
REMARK  11 active torsions:
REMARK  status: ('A' for Active; 'I' for Inactive)
REMARK    1  A    between atoms: O_1  and  C_16
REMARK    2  A    between atoms: O_1  and  C_22
REMARK    3  A    between atoms: O_6  and  C_24
REMARK    4  A    between atoms: O_8  and  C_26
REMARK    5  A    between atoms: O_11  and  C_36
REMARK    6  A    between atoms: O_11  and  C_41
REMARK    7  A    between atoms: O_12  and  C_37
REMARK    8  A    between atoms: O_12  and  C_42
REMARK    9  A    between atoms: O_13  and  C_39
REMARK   10  A    between atoms: C_17  and  C_23
REMARK   11  A    between atoms: C_35  and  C_40
REMARK                            x       y       z     vdW  Elec       q    Type
REMARK                         _______ _______ _______ _____ _____    ______ ____
ROOT
ATOM      1  O   UNL     1      -7.695  -7.264  26.168  0.00  0.00    +0.000 OA
ATOM      2  O   UNL     1      -7.570  -5.060  25.551  0.00  0.00    +0.000 OA
ATOM      3  O   UNL     1     -14.523  -5.346  30.690  0.00  0.00    +0.000 OA
ATOM      4  O   UNL     1     -13.755  -3.105  30.234  0.00  0.00    +0.000 OA
ATOM      5  C   UNL     1      -9.405  -7.123  27.725  0.00  0.00    +0.000 C 
ATOM      6  C   UNL     1      -9.449  -5.879  26.859  0.00  0.00    +0.000 C 
ATOM      7  C   UNL     1     -10.803  -7.483  28.210  0.00  0.00    +0.000 C 
ATOM      8  C   UNL     1      -9.774  -4.644  27.698  0.00  0.00    +0.000 C 
ATOM      9  C   UNL     1     -11.526  -6.249  28.747  0.00  0.00    +0.000 A 
ATOM     10  C   UNL     1     -11.071  -4.917  28.478  0.00  0.00    +0.000 A 
ATOM     11  C   UNL     1      -8.691  -8.082  26.805  0.00  0.00    +0.000 C 
ATOM     12  C   UNL     1      -8.134  -5.964  26.146  0.00  0.00    +0.000 C 
ATOM     13  C   UNL     1     -12.701  -6.438  29.499  0.00  0.00    +0.000 A 
ATOM     14  C   UNL     1     -11.800  -3.813  28.966  0.00  0.00    +0.000 A 
ATOM     15  C   UNL     1     -13.380  -5.328  29.954  0.00  0.00    +0.000 A 
ATOM     16  C   UNL     1     -12.943  -4.054  29.695  0.00  0.00    +0.000 A 
ATOM     17  C   UNL     1     -14.755  -3.932  30.866  0.00  0.00    +0.000 C 
ENDROOT
BRANCH   8  18
ATOM     18  C   UNL     1      -8.630  -4.150  28.587  0.00  0.00    +0.000 A 
ATOM     19  C   UNL     1      -8.145  -4.884  29.684  0.00  0.00    +0.000 A 
ATOM     20  C   UNL     1      -8.021  -2.917  28.298  0.00  0.00    +0.000 A 
ATOM     21  C   UNL     1      -6.952  -2.450  29.064  0.00  0.00    +0.000 A 
ATOM     22  C   UNL     1      -7.086  -4.425  30.480  0.00  0.00    +0.000 A 
ATOM     23  C   UNL     1      -6.495  -3.203  30.158  0.00  0.00    +0.000 A 
BRANCH  21  24
ATOM     24  O   UNL     1      -6.274  -1.272  28.851  0.00  0.00    +0.000 OA
ATOM     25  C   UNL     1      -6.139  -0.856  27.495  0.00  0.00    +0.000 C 
ENDBRANCH  21  24
BRANCH  22  26
ATOM     26  O   UNL     1      -6.767  -5.289  31.493  0.00  0.00    +0.000 OA
ATOM     27  C   UNL     1      -5.931  -6.396  31.188  0.00  0.00    +0.000 C 
ENDBRANCH  22  26
BRANCH  23  28
ATOM     28  O   UNL     1      -5.445  -2.690  30.878  0.00  0.00    +0.000 OA
ATOM     29  H   UNL     1      -5.180  -1.883  30.396  0.00  0.00    +0.000 HD
ENDBRANCH  23  28
ENDBRANCH   8  18
BRANCH   7  30
ATOM     30  O   UNL     1     -11.578  -7.965  27.111  0.00  0.00    +0.000 OA
BRANCH  30  34
ATOM     31  O   UNL     1     -11.472 -10.266  27.512  0.00  0.00    +0.000 OA
ATOM     32  O   UNL     1     -13.855 -12.999  26.893  0.00  0.00    +0.000 OA
ATOM     33  O   UNL     1     -12.045 -13.839  28.159  0.00  0.00    +0.000 OA
ATOM     34  C   UNL     1     -12.342  -9.134  27.432  0.00  0.00    +0.000 C 
ATOM     35  C   UNL     1     -13.406  -9.294  26.322  0.00  0.00    +0.000 C 
ATOM     36  C   UNL     1     -13.153 -11.779  26.630  0.00  0.00    +0.000 C 
ATOM     37  C   UNL     1     -14.148 -10.631  26.454  0.00  0.00    +0.000 C 
ATOM     38  C   UNL     1     -12.207 -11.456  27.784  0.00  0.00    +0.000 C 
ATOM     39  C   UNL     1     -11.278 -12.652  27.964  0.00  0.00    +0.000 C 
ATOM     40  C   UNL     1     -12.929 -14.076  27.064  0.00  0.00    +0.000 C 
ATOM     41  C   UNL     1     -13.726 -15.332  27.366  0.00  0.00    +0.000 C 
BRANCH  35  42
ATOM     42  O   UNL     1     -14.340  -8.204  26.405  0.00  0.00    +0.000 OA
ATOM     43  H   UNL     1     -14.474  -8.036  27.358  0.00  0.00    +0.000 HD
ENDBRANCH  35  42
BRANCH  37  44
ATOM     44  O   UNL     1     -14.928 -10.884  25.274  0.00  0.00    +0.000 OA
ATOM     45  H   UNL     1     -15.042 -11.852  25.231  0.00  0.00    +0.000 HD
ENDBRANCH  37  44
ENDBRANCH  30  34
ENDBRANCH   7  30
TORSDOF 8
ENDMDL
MODEL 8
REMARK VINA RESULT:      -5.9     20.178     24.334
REMARK  Name = 
REMARK  11 active torsions:
REMARK  status: ('A' for Active; 'I' for Inactive)
REMARK    1  A    between atoms: O_1  and  C_16
REMARK    2  A    between atoms: O_1  and  C_22
REMARK    3  A    between atoms: O_6  and  C_24
REMARK    4  A    between atoms: O_8  and  C_26
REMARK    5  A    between atoms: O_11  and  C_36
REMARK    6  A    between atoms: O_11  and  C_41
REMARK    7  A    between atoms: O_12  and  C_37
REMARK    8  A    between atoms: O_12  and  C_42
REMARK    9  A    between atoms: O_13  and  C_39
REMARK   10  A    between atoms: C_17  and  C_23
REMARK   11  A    between atoms: C_35  and  C_40
REMARK                            x       y       z     vdW  Elec       q    Type
REMARK                         _______ _______ _______ _____ _____    ______ ____
ROOT
ATOM      1  O   UNL     1      11.518 -12.415  12.035  0.00  0.00    +0.000 OA
ATOM      2  O   UNL     1      11.888 -14.159  13.476  0.00  0.00    +0.000 OA
ATOM      3  O   UNL     1       3.443 -14.746  11.698  0.00  0.00    +0.000 OA
ATOM      4  O   UNL     1       4.335 -16.703  12.789  0.00  0.00    +0.000 OA
ATOM      5  C   UNL     1       9.322 -12.867  11.453  0.00  0.00    +0.000 C 
ATOM      6  C   UNL     1       9.637 -13.620  12.731  0.00  0.00    +0.000 C 
ATOM      7  C   UNL     1       7.846 -12.491  11.408  0.00  0.00    +0.000 C 
ATOM      8  C   UNL     1       9.001 -15.009  12.715  0.00  0.00    +0.000 C 
ATOM      9  C   UNL     1       6.970 -13.685  11.785  0.00  0.00    +0.000 A 
ATOM     10  C   UNL     1       7.498 -14.850  12.432  0.00  0.00    +0.000 A 
ATOM     11  C   UNL     1      10.347 -11.763  11.515  0.00  0.00    +0.000 C 
ATOM     12  C   UNL     1      11.129 -13.491  12.794  0.00  0.00    +0.000 C 
ATOM     13  C   UNL     1       5.589 -13.610  11.516  0.00  0.00    +0.000 A 
ATOM     14  C   UNL     1       6.636 -15.905  12.792  0.00  0.00    +0.000 A 
ATOM     15  C   UNL     1       4.787 -14.667  11.888  0.00  0.00    +0.000 A 
ATOM     16  C   UNL     1       5.294 -15.781  12.508  0.00  0.00    +0.000 A 
ATOM     17  C   UNL     1       3.163 -16.041  12.270  0.00  0.00    +0.000 C 
ENDROOT
BRANCH   8  18
ATOM     18  C   UNL     1       9.683 -16.020  11.790  0.00  0.00    +0.000 A 
ATOM     19  C   UNL     1       9.219 -16.301  10.493  0.00  0.00    +0.000 A 
ATOM     20  C   UNL     1      10.831 -16.694  12.240  0.00  0.00    +0.000 A 
ATOM     21  C   UNL     1      11.502 -17.596  11.413  0.00  0.00    +0.000 A 
ATOM     22  C   UNL     1       9.864 -17.219   9.651  0.00  0.00    +0.000 A 
ATOM     23  C   UNL     1      11.009 -17.861  10.124  0.00  0.00    +0.000 A 
BRANCH  21  24
ATOM     24  O   UNL     1      12.643 -18.288  11.747  0.00  0.00    +0.000 OA
ATOM     25  C   UNL     1      13.818 -17.508  11.950  0.00  0.00    +0.000 C 
ENDBRANCH  21  24
BRANCH  22  26
ATOM     26  O   UNL     1       9.254 -17.345   8.433  0.00  0.00    +0.000 OA
ATOM     27  C   UNL     1       8.556 -18.551   8.157  0.00  0.00    +0.000 C 
ENDBRANCH  22  26
BRANCH  23  28
ATOM     28  O   UNL     1      11.707 -18.762   9.358  0.00  0.00    +0.000 OA
ATOM     29  H   UNL     1      11.472 -18.543   8.436  0.00  0.00    +0.000 HD
ENDBRANCH  23  28
ENDBRANCH   8  18
BRANCH   7  30
ATOM     30  O   UNL     1       7.586 -11.472  12.375  0.00  0.00    +0.000 OA
BRANCH  30  34
ATOM     31  O   UNL     1       7.728  -9.405  11.292  0.00  0.00    +0.000 OA
ATOM     32  O   UNL     1       5.633  -6.386  11.436  0.00  0.00    +0.000 OA
ATOM     33  O   UNL     1       7.221  -6.128   9.705  0.00  0.00    +0.000 OA
ATOM     34  C   UNL     1       6.835 -10.374  11.845  0.00  0.00    +0.000 C 
ATOM     35  C   UNL     1       5.998  -9.798  13.011  0.00  0.00    +0.000 C 
ATOM     36  C   UNL     1       6.311  -7.543  11.936  0.00  0.00    +0.000 C 
ATOM     37  C   UNL     1       5.310  -8.487  12.604  0.00  0.00    +0.000 C 
ATOM     38  C   UNL     1       7.015  -8.275  10.797  0.00  0.00    +0.000 C 
ATOM     39  C   UNL     1       7.953  -7.280  10.122  0.00  0.00    +0.000 C 
ATOM     40  C   UNL     1       6.563  -5.500  10.805  0.00  0.00    +0.000 C 
ATOM     41  C   UNL     1       5.786  -4.310  10.272  0.00  0.00    +0.000 C 
BRANCH  35  42
ATOM     42  O   UNL     1       5.014 -10.767  13.407  0.00  0.00    +0.000 OA
ATOM     43  H   UNL     1       4.773 -11.255  12.596  0.00  0.00    +0.000 HD
ENDBRANCH  35  42
BRANCH  37  44
ATOM     44  O   UNL     1       4.770  -7.830  13.763  0.00  0.00    +0.000 OA
ATOM     45  H   UNL     1       4.086  -8.431  14.116  0.00  0.00    +0.000 HD
ENDBRANCH  37  44
ENDBRANCH  30  34
ENDBRANCH   7  30
TORSDOF 8
ENDMDL
MODEL 9
REMARK VINA RESULT:      -5.9     25.963     28.862
REMARK  Name = 
REMARK  11 active torsions:
REMARK  status: ('A' for Active; 'I' for Inactive)
REMARK    1  A    between atoms: O_1  and  C_16
REMARK    2  A    between atoms: O_1  and  C_22
REMARK    3  A    between atoms: O_6  and  C_24
REMARK    4  A    between atoms: O_8  and  C_26
REMARK    5  A    between atoms: O_11  and  C_36
REMARK    6  A    between atoms: O_11  and  C_41
REMARK    7  A    between atoms: O_12  and  C_37
REMARK    8  A    between atoms: O_12  and  C_42
REMARK    9  A    between atoms: O_13  and  C_39
REMARK   10  A    between atoms: C_17  and  C_23
REMARK   11  A    between atoms: C_35  and  C_40
REMARK                            x       y       z     vdW  Elec       q    Type
REMARK                         _______ _______ _______ _____ _____    ______ ____
ROOT
ATOM      1  O   UNL     1      -7.188  -5.245  25.554  0.00  0.00    +0.000 OA
ATOM      2  O   UNL     1      -7.305  -3.109  24.731  0.00  0.00    +0.000 OA
ATOM      3  O   UNL     1     -13.264  -3.202  31.000  0.00  0.00    +0.000 OA
ATOM      4  O   UNL     1     -12.723  -0.984  30.220  0.00  0.00    +0.000 OA
ATOM      5  C   UNL     1      -8.618  -5.030  27.364  0.00  0.00    +0.000 C 
ATOM      6  C   UNL     1      -8.884  -3.880  26.411  0.00  0.00    +0.000 C 
ATOM      7  C   UNL     1      -9.891  -5.403  28.114  0.00  0.00    +0.000 C 
ATOM      8  C   UNL     1      -9.137  -2.584  27.181  0.00  0.00    +0.000 C 
ATOM      9  C   UNL     1     -10.587  -4.156  28.656  0.00  0.00    +0.000 A 
ATOM     10  C   UNL     1     -10.266  -2.837  28.195  0.00  0.00    +0.000 A 
ATOM     11  C   UNL     1      -8.011  -6.040  26.424  0.00  0.00    +0.000 C 
ATOM     12  C   UNL     1      -7.704  -3.974  25.492  0.00  0.00    +0.000 C 
ATOM     13  C   UNL     1     -11.605  -4.323  29.614  0.00  0.00    +0.000 A 
ATOM     14  C   UNL     1     -10.969  -1.724  28.701  0.00  0.00    +0.000 A 
ATOM     15  C   UNL     1     -12.264  -3.205  30.079  0.00  0.00    +0.000 A 
ATOM     16  C   UNL     1     -11.956  -1.944  29.635  0.00  0.00    +0.000 A 
ATOM     17  C   UNL     1     -13.549  -1.790  31.087  0.00  0.00    +0.000 C 
ENDROOT
BRANCH   8  18
ATOM     18  C   UNL     1      -7.893  -1.954  27.811  0.00  0.00    +0.000 A 
ATOM     19  C   UNL     1      -7.299  -2.449  28.986  0.00  0.00    +0.000 A 
ATOM     20  C   UNL     1      -7.300  -0.840  27.192  0.00  0.00    +0.000 A 
ATOM     21  C   UNL     1      -6.144  -0.261  27.717  0.00  0.00    +0.000 A 
ATOM     22  C   UNL     1      -6.150  -1.870  29.544  0.00  0.00    +0.000 A 
ATOM     23  C   UNL     1      -5.579  -0.774  28.896  0.00  0.00    +0.000 A 
BRANCH  21  24
ATOM     24  O   UNL     1      -5.475   0.813  27.177  0.00  0.00    +0.000 OA
ATOM     25  C   UNL     1      -6.248   1.990  26.951  0.00  0.00    +0.000 C 
ENDBRANCH  21  24
BRANCH  22  26
ATOM     26  O   UNL     1      -5.734  -2.503  30.683  0.00  0.00    +0.000 OA
ATOM     27  C   UNL     1      -6.224  -2.026  31.928  0.00  0.00    +0.000 C 
ENDBRANCH  22  26
BRANCH  23  28
ATOM     28  O   UNL     1      -4.446  -0.159  29.368  0.00  0.00    +0.000 OA
ATOM     29  H   UNL     1      -3.712  -0.564  28.866  0.00  0.00    +0.000 HD
ENDBRANCH  23  28
ENDBRANCH   8  18
BRANCH   7  30
ATOM     30  O   UNL     1     -10.808  -6.024  27.213  0.00  0.00    +0.000 OA
BRANCH  30  34
ATOM     31  O   UNL     1     -10.612  -8.340  27.465  0.00  0.00    +0.000 OA
ATOM     32  O   UNL     1     -13.114 -11.026  27.697  0.00  0.00    +0.000 OA
ATOM     33  O   UNL     1     -10.981 -11.932  28.157  0.00  0.00    +0.000 OA
ATOM     34  C   UNL     1     -11.421  -7.199  27.758  0.00  0.00    +0.000 C 
ATOM     35  C   UNL     1     -12.829  -7.304  27.126  0.00  0.00    +0.000 C 
ATOM     36  C   UNL     1     -12.535  -9.802  27.231  0.00  0.00    +0.000 C 
ATOM     37  C   UNL     1     -13.497  -8.640  27.482  0.00  0.00    +0.000 C 
ATOM     38  C   UNL     1     -11.217  -9.535  27.953  0.00  0.00    +0.000 C 
ATOM     39  C   UNL     1     -10.317 -10.745  27.728  0.00  0.00    +0.000 C 
ATOM     40  C   UNL     1     -12.218 -12.117  27.469  0.00  0.00    +0.000 C 
ATOM     41  C   UNL     1     -12.871 -13.378  28.006  0.00  0.00    +0.000 C 
BRANCH  35  42
ATOM     42  O   UNL     1     -13.637  -6.211  27.593  0.00  0.00    +0.000 OA
ATOM     43  H   UNL     1     -14.133  -6.552  28.362  0.00  0.00    +0.000 HD
ENDBRANCH  35  42
BRANCH  37  44
ATOM     44  O   UNL     1     -14.670  -8.838  26.676  0.00  0.00    +0.000 OA
ATOM     45  H   UNL     1     -15.381  -9.091  27.295  0.00  0.00    +0.000 HD
ENDBRANCH  37  44
ENDBRANCH  30  34
ENDBRANCH   7  30
TORSDOF 8
ENDMDL
