MODEL 1
REMARK VINA RESULT:      -6.4      0.000      0.000
REMARK  Name = Foretinib.pdbqt.pdb
REMARK  11 active torsions:
REMARK  status: ('A' for Active; 'I' for Inactive)
REMARK    1  A    between atoms: C_2  and  N_31
REMARK    2  A    between atoms: C_7  and  O_8
REMARK    3  A    between atoms: O_8  and  C_9
REMARK    4  A    between atoms: C_17  and  O_19
REMARK    5  A    between atoms: C_18  and  O_29
REMARK    6  A    between atoms: O_19  and  C_20
REMARK    7  A    between atoms: C_21  and  C_22
REMARK    8  A    between atoms: C_22  and  N_23
REMARK    9  A    between atoms: C_32  and  C_35
REMARK   10  A    between atoms: C_35  and  C_38
REMARK   11  A    between atoms: N_40  and  C_42
REMARK                            x       y       z     vdW  Elec       q    Type
REMARK                         _______ _______ _______ _____ _____    ______ ____
ROOT
ATOM      1  F   UNL     1     -10.230  -5.327  27.441  0.00  0.00    +0.000 F 
ATOM      2  C   UNL     1      -8.556  -2.279  26.409  0.00  0.00    +0.000 A 
ATOM      3  C   UNL     1      -9.477  -3.139  27.007  0.00  0.00    +0.000 A 
ATOM      4  C   UNL     1      -7.482  -2.810  25.691  0.00  0.00    +0.000 A 
ATOM      5  C   UNL     1      -9.317  -4.516  26.888  0.00  0.00    +0.000 A 
ATOM      6  C   UNL     1      -7.323  -4.189  25.572  0.00  0.00    +0.000 A 
ATOM      7  C   UNL     1      -8.229  -5.045  26.193  0.00  0.00    +0.000 A 
ENDROOT
BRANCH   2   8
ATOM      8  N   UNL     1      -8.658  -0.877  26.487  0.00  0.00    +0.000 N 
ATOM      9  C   UNL     1      -8.832  -0.148  27.653  0.00  0.00    +0.000 C 
ATOM     10  O   UNL     1      -8.949  -0.606  28.782  0.00  0.00    +0.000 OA
ATOM     11  H   UNL     1      -8.642  -0.368  25.608  0.00  0.00    +0.000 HD
BRANCH   9  12
ATOM     12  C   UNL     1      -8.934   1.335  27.450  0.00  0.00    +0.000 C 
ATOM     13  C   UNL     1      -7.835   2.164  27.932  0.00  0.00    +0.000 C 
ATOM     14  C   UNL     1      -9.146   2.162  28.632  0.00  0.00    +0.000 C 
BRANCH  12  15
ATOM     15  C   UNL     1      -9.595   1.749  26.169  0.00  0.00    +0.000 C 
ATOM     16  O   UNL     1     -10.575   1.123  25.780  0.00  0.00    +0.000 OA
ATOM     17  N   UNL     1      -9.042   2.865  25.564  0.00  0.00    +0.000 N 
ATOM     18  H   UNL     1      -8.263   3.320  26.029  0.00  0.00    +0.000 HD
BRANCH  17  19
ATOM     19  C   UNL     1      -9.492   3.452  24.368  0.00  0.00    +0.000 A 
ATOM     20  C   UNL     1     -10.782   3.986  24.352  0.00  0.00    +0.000 A 
ATOM     21  C   UNL     1     -11.286   4.581  23.197  0.00  0.00    +0.000 A 
ATOM     22  C   UNL     1     -10.488   4.639  22.059  0.00  0.00    +0.000 A 
ATOM     23  F   UNL     1     -10.968   5.213  20.948  0.00  0.00    +0.000 F 
ATOM     24  C   UNL     1      -9.201   4.115  22.058  0.00  0.00    +0.000 A 
ATOM     25  C   UNL     1      -8.706   3.522  23.216  0.00  0.00    +0.000 A 
ENDBRANCH  17  19
ENDBRANCH  12  15
ENDBRANCH   9  12
ENDBRANCH   2   8
BRANCH   7  26
ATOM     26  O   UNL     1      -8.060  -6.393  25.988  0.00  0.00    +0.000 OA
BRANCH  26  27
ATOM     27  C   UNL     1      -7.834  -7.177  27.102  0.00  0.00    +0.000 A 
ATOM     28  C   UNL     1      -8.677  -8.279  27.317  0.00  0.00    +0.000 A 
ATOM     29  C   UNL     1      -8.406  -9.106  28.421  0.00  0.00    +0.000 A 
ATOM     30  C   UNL     1      -9.766  -8.570  26.480  0.00  0.00    +0.000 A 
ATOM     31  N   UNL     1      -7.376  -8.880  29.251  0.00  0.00    +0.000 NA
ATOM     32  C   UNL     1      -9.239 -10.192  28.642  0.00  0.00    +0.000 A 
ATOM     33  C   UNL     1      -6.580  -7.816  29.003  0.00  0.00    +0.000 A 
ATOM     34  C   UNL     1      -6.754  -6.945  27.947  0.00  0.00    +0.000 A 
ATOM     35  C   UNL     1     -10.327 -10.488  27.810  0.00  0.00    +0.000 A 
ATOM     36  C   UNL     1     -10.596  -9.666  26.714  0.00  0.00    +0.000 A 
BRANCH  36  37
ATOM     37  O   UNL     1     -11.678  -9.995  25.933  0.00  0.00    +0.000 OA
ATOM     38  C   UNL     1     -12.701  -9.039  25.881  0.00  0.00    +0.000 C 
ENDBRANCH  36  37
BRANCH  35  39
ATOM     39  O   UNL     1     -11.165 -11.558  28.018  0.00  0.00    +0.000 OA
BRANCH  39  40
ATOM     40  C   UNL     1     -10.569 -12.748  28.022  0.00  0.00    +0.000 C 
ATOM     41  C   UNL     1      -9.899 -14.126  28.030  0.00  0.00    +0.000 C 
BRANCH  41  42
ATOM     42  C   UNL     1      -9.233 -15.506  28.034  0.00  0.00    +0.000 C 
BRANCH  42  43
ATOM     43  N   UNL     1      -8.599 -16.817  28.038  0.00  0.00    +0.000 N 
ATOM     44  C   UNL     1      -9.376 -17.674  27.090  0.00  0.00    +0.000 C 
ATOM     45  C   UNL     1      -8.948 -18.228  25.693  0.00  0.00    +0.000 C 
ATOM     46  O   UNL     1      -7.838 -18.126  24.930  0.00  0.00    +0.000 OA
ATOM     47  C   UNL     1      -7.138 -17.349  25.781  0.00  0.00    +0.000 C 
ATOM     48  C   UNL     1      -7.380 -16.708  27.182  0.00  0.00    +0.000 C 
ENDBRANCH  42  43
ENDBRANCH  41  42
ENDBRANCH  39  40
ENDBRANCH  35  39
ENDBRANCH  26  27
ENDBRANCH   7  26
TORSDOF 11
ENDMDL
MODEL 2
REMARK VINA RESULT:      -6.0     21.084     22.726
REMARK  Name = Foretinib.pdbqt.pdb
REMARK  11 active torsions:
REMARK  status: ('A' for Active; 'I' for Inactive)
REMARK    1  A    between atoms: C_2  and  N_31
REMARK    2  A    between atoms: C_7  and  O_8
REMARK    3  A    between atoms: O_8  and  C_9
REMARK    4  A    between atoms: C_17  and  O_19
REMARK    5  A    between atoms: C_18  and  O_29
REMARK    6  A    between atoms: O_19  and  C_20
REMARK    7  A    between atoms: C_21  and  C_22
REMARK    8  A    between atoms: C_22  and  N_23
REMARK    9  A    between atoms: C_32  and  C_35
REMARK   10  A    between atoms: C_35  and  C_38
REMARK   11  A    between atoms: N_40  and  C_42
REMARK                            x       y       z     vdW  Elec       q    Type
REMARK                         _______ _______ _______ _____ _____    ______ ____
ROOT
ATOM      1  F   UNL     1       5.951  -6.523   8.997  0.00  0.00    +0.000 F 
ATOM      2  C   UNL     1       7.539  -3.675  10.589  0.00  0.00    +0.000 A 
ATOM      3  C   UNL     1       6.941  -4.478   9.618  0.00  0.00    +0.000 A 
ATOM      4  C   UNL     1       7.689  -4.163  11.889  0.00  0.00    +0.000 A 
ATOM      5  C   UNL     1       6.494  -5.753   9.951  0.00  0.00    +0.000 A 
ATOM      6  C   UNL     1       7.243  -5.440  12.222  0.00  0.00    +0.000 A 
ATOM      7  C   UNL     1       6.621  -6.228  11.257  0.00  0.00    +0.000 A 
ENDROOT
BRANCH   2   8
ATOM      8  N   UNL     1       8.014  -2.378  10.320  0.00  0.00    +0.000 N 
ATOM      9  C   UNL     1       7.224  -1.262  10.102  0.00  0.00    +0.000 C 
ATOM     10  O   UNL     1       6.000  -1.234  10.084  0.00  0.00    +0.000 OA
ATOM     11  H   UNL     1       9.021  -2.268  10.241  0.00  0.00    +0.000 HD
BRANCH   9  12
ATOM     12  C   UNL     1       7.989  -0.004   9.812  0.00  0.00    +0.000 C 
ATOM     13  C   UNL     1       8.394   0.243   8.432  0.00  0.00    +0.000 C 
ATOM     14  C   UNL     1       9.398  -0.140   9.459  0.00  0.00    +0.000 C 
BRANCH  12  15
ATOM     15  C   UNL     1       7.575   1.184  10.628  0.00  0.00    +0.000 C 
ATOM     16  O   UNL     1       8.378   1.667  11.418  0.00  0.00    +0.000 OA
ATOM     17  N   UNL     1       6.303   1.660  10.359  0.00  0.00    +0.000 N 
ATOM     18  H   UNL     1       5.765   1.193   9.635  0.00  0.00    +0.000 HD
BRANCH  17  19
ATOM     19  C   UNL     1       5.696   2.766  10.980  0.00  0.00    +0.000 A 
ATOM     20  C   UNL     1       5.787   4.003  10.338  0.00  0.00    +0.000 A 
ATOM     21  C   UNL     1       5.206   5.136  10.903  0.00  0.00    +0.000 A 
ATOM     22  C   UNL     1       4.534   5.023  12.115  0.00  0.00    +0.000 A 
ATOM     23  F   UNL     1       3.973   6.110  12.659  0.00  0.00    +0.000 F 
ATOM     24  C   UNL     1       4.432   3.800  12.767  0.00  0.00    +0.000 A 
ATOM     25  C   UNL     1       5.016   2.673  12.196  0.00  0.00    +0.000 A 
ENDBRANCH  17  19
ENDBRANCH  12  15
ENDBRANCH   9  12
ENDBRANCH   2   8
BRANCH   7  26
ATOM     26  O   UNL     1       6.260  -7.501  11.624  0.00  0.00    +0.000 OA
BRANCH  26  27
ATOM     27  C   UNL     1       7.151  -8.517  11.340  0.00  0.00    +0.000 A 
ATOM     28  C   UNL     1       6.681  -9.839  11.378  0.00  0.00    +0.000 A 
ATOM     29  C   UNL     1       7.578 -10.864  11.032  0.00  0.00    +0.000 A 
ATOM     30  C   UNL     1       5.366 -10.161  11.751  0.00  0.00    +0.000 A 
ATOM     31  N   UNL     1       8.844 -10.616  10.663  0.00  0.00    +0.000 NA
ATOM     32  C   UNL     1       7.121 -12.173  11.075  0.00  0.00    +0.000 A 
ATOM     33  C   UNL     1       9.255  -9.328  10.626  0.00  0.00    +0.000 A 
ATOM     34  C   UNL     1       8.456  -8.249  10.941  0.00  0.00    +0.000 A 
ATOM     35  C   UNL     1       5.810 -12.501  11.445  0.00  0.00    +0.000 A 
ATOM     36  C   UNL     1       4.920 -11.483  11.789  0.00  0.00    +0.000 A 
BRANCH  36  37
ATOM     37  O   UNL     1       3.648 -11.857  12.152  0.00  0.00    +0.000 OA
ATOM     38  C   UNL     1       2.608 -11.155  11.527  0.00  0.00    +0.000 C 
ENDBRANCH  36  37
BRANCH  35  39
ATOM     39  O   UNL     1       5.343 -13.793  11.498  0.00  0.00    +0.000 OA
BRANCH  39  40
ATOM     40  C   UNL     1       6.286 -14.732  11.534  0.00  0.00    +0.000 C 
ATOM     41  C   UNL     1       7.376 -15.809  11.559  0.00  0.00    +0.000 C 
BRANCH  41  42
ATOM     42  C   UNL     1       8.470 -16.882  11.581  0.00  0.00    +0.000 C 
BRANCH  42  43
ATOM     43  N   UNL     1       9.508 -17.902  11.603  0.00  0.00    +0.000 N 
ATOM     44  C   UNL     1       9.780 -18.269  10.179  0.00  0.00    +0.000 C 
ATOM     45  C   UNL     1      11.048 -17.970   9.314  0.00  0.00    +0.000 C 
ATOM     46  O   UNL     1      12.218 -17.331   9.533  0.00  0.00    +0.000 OA
ATOM     47  C   UNL     1      11.971 -16.994  10.815  0.00  0.00    +0.000 C 
ATOM     48  C   UNL     1      10.804 -17.193  11.829  0.00  0.00    +0.000 C 
ENDBRANCH  42  43
ENDBRANCH  41  42
ENDBRANCH  39  40
ENDBRANCH  35  39
ENDBRANCH  26  27
ENDBRANCH   7  26
TORSDOF 11
ENDMDL
MODEL 3
REMARK VINA RESULT:      -5.9     18.913     24.915
REMARK  Name = Foretinib.pdbqt.pdb
REMARK  11 active torsions:
REMARK  status: ('A' for Active; 'I' for Inactive)
REMARK    1  A    between atoms: C_2  and  N_31
REMARK    2  A    between atoms: C_7  and  O_8
REMARK    3  A    between atoms: O_8  and  C_9
REMARK    4  A    between atoms: C_17  and  O_19
REMARK    5  A    between atoms: C_18  and  O_29
REMARK    6  A    between atoms: O_19  and  C_20
REMARK    7  A    between atoms: C_21  and  C_22
REMARK    8  A    between atoms: C_22  and  N_23
REMARK    9  A    between atoms: C_32  and  C_35
REMARK   10  A    between atoms: C_35  and  C_38
REMARK   11  A    between atoms: N_40  and  C_42
REMARK                            x       y       z     vdW  Elec       q    Type
REMARK                         _______ _______ _______ _____ _____    ______ ____
ROOT
ATOM      1  F   UNL     1      -7.750  11.141   7.155  0.00  0.00    +0.000 F 
ATOM      2  C   UNL     1      -5.674  10.650  10.090  0.00  0.00    +0.000 A 
ATOM      3  C   UNL     1      -6.594  11.213   9.205  0.00  0.00    +0.000 A 
ATOM      4  C   UNL     1      -5.053   9.443   9.762  0.00  0.00    +0.000 A 
ATOM      5  C   UNL     1      -6.888  10.568   8.008  0.00  0.00    +0.000 A 
ATOM      6  C   UNL     1      -5.347   8.799   8.562  0.00  0.00    +0.000 A 
ATOM      7  C   UNL     1      -6.286   9.350   7.693  0.00  0.00    +0.000 A 
ENDROOT
BRANCH   2   8
ATOM      8  N   UNL     1      -5.330  11.249  11.316  0.00  0.00    +0.000 N 
ATOM      9  C   UNL     1      -5.626  10.742  12.570  0.00  0.00    +0.000 C 
ATOM     10  O   UNL     1      -6.250   9.715  12.806  0.00  0.00    +0.000 OA
ATOM     11  H   UNL     1      -4.860  12.149  11.268  0.00  0.00    +0.000 HD
BRANCH   9  12
ATOM     12  C   UNL     1      -5.162  11.596  13.713  0.00  0.00    +0.000 C 
ATOM     13  C   UNL     1      -5.719  12.939  13.827  0.00  0.00    +0.000 C 
ATOM     14  C   UNL     1      -4.311  12.738  13.397  0.00  0.00    +0.000 C 
BRANCH  12  15
ATOM     15  C   UNL     1      -4.901  10.850  14.988  0.00  0.00    +0.000 C 
ATOM     16  O   UNL     1      -5.495  11.193  16.004  0.00  0.00    +0.000 OA
ATOM     17  N   UNL     1      -4.026   9.784  14.869  0.00  0.00    +0.000 N 
ATOM     18  H   UNL     1      -3.649   9.579  13.949  0.00  0.00    +0.000 HD
BRANCH  17  19
ATOM     19  C   UNL     1      -3.636   8.928  15.915  0.00  0.00    +0.000 A 
ATOM     20  C   UNL     1      -2.444   9.219  16.582  0.00  0.00    +0.000 A 
ATOM     21  C   UNL     1      -2.004   8.409  17.626  0.00  0.00    +0.000 A 
ATOM     22  C   UNL     1      -2.765   7.306  17.998  0.00  0.00    +0.000 A 
ATOM     23  F   UNL     1      -2.345   6.526  19.003  0.00  0.00    +0.000 F 
ATOM     24  C   UNL     1      -3.955   7.002  17.347  0.00  0.00    +0.000 A 
ATOM     25  C   UNL     1      -4.387   7.817  16.304  0.00  0.00    +0.000 A 
ENDBRANCH  17  19
ENDBRANCH  12  15
ENDBRANCH   9  12
ENDBRANCH   2   8
BRANCH   7  26
ATOM     26  O   UNL     1      -6.488   8.705   6.498  0.00  0.00    +0.000 OA
BRANCH  26  27
ATOM     27  C   UNL     1      -7.430   7.696   6.476  0.00  0.00    +0.000 A 
ATOM     28  C   UNL     1      -7.586   6.962   5.290  0.00  0.00    +0.000 A 
ATOM     29  C   UNL     1      -8.506   5.899   5.293  0.00  0.00    +0.000 A 
ATOM     30  C   UNL     1      -6.869   7.258   4.120  0.00  0.00    +0.000 A 
ATOM     31  N   UNL     1      -9.216   5.567   6.382  0.00  0.00    +0.000 NA
ATOM     32  C   UNL     1      -8.670   5.176   4.121  0.00  0.00    +0.000 A 
ATOM     33  C   UNL     1      -9.027   6.290   7.509  0.00  0.00    +0.000 A 
ATOM     34  C   UNL     1      -8.148   7.348   7.615  0.00  0.00    +0.000 A 
ATOM     35  C   UNL     1      -7.956   5.465   2.951  0.00  0.00    +0.000 A 
ATOM     36  C   UNL     1      -7.043   6.521   2.949  0.00  0.00    +0.000 A 
BRANCH  36  37
ATOM     37  O   UNL     1      -6.373   6.769   1.774  0.00  0.00    +0.000 OA
ATOM     38  C   UNL     1      -6.167   8.121   1.467  0.00  0.00    +0.000 C 
ENDBRANCH  36  37
BRANCH  35  39
ATOM     39  O   UNL     1      -8.110   4.761   1.780  0.00  0.00    +0.000 OA
BRANCH  39  40
ATOM     40  C   UNL     1      -9.371   4.537   1.420  0.00  0.00    +0.000 C 
ATOM     41  C   UNL     1     -10.819   4.269   0.992  0.00  0.00    +0.000 C 
BRANCH  41  42
ATOM     42  C   UNL     1     -12.264   3.994   0.564  0.00  0.00    +0.000 C 
BRANCH  42  43
ATOM     43  N   UNL     1     -13.638   3.734   0.158  0.00  0.00    +0.000 N 
ATOM     44  C   UNL     1     -13.755   4.169  -1.268  0.00  0.00    +0.000 C 
ATOM     45  C   UNL     1     -13.933   3.291  -2.549  0.00  0.00    +0.000 C 
ATOM     46  O   UNL     1     -14.025   1.964  -2.786  0.00  0.00    +0.000 OA
ATOM     47  C   UNL     1     -13.913   1.570  -1.501  0.00  0.00    +0.000 C 
ATOM     48  C   UNL     1     -13.735   2.269  -0.119  0.00  0.00    +0.000 C 
ENDBRANCH  42  43
ENDBRANCH  41  42
ENDBRANCH  39  40
ENDBRANCH  35  39
ENDBRANCH  26  27
ENDBRANCH   7  26
TORSDOF 11
ENDMDL
MODEL 4
REMARK VINA RESULT:      -5.7     25.078     28.049
REMARK  Name = Foretinib.pdbqt.pdb
REMARK  11 active torsions:
REMARK  status: ('A' for Active; 'I' for Inactive)
REMARK    1  A    between atoms: C_2  and  N_31
REMARK    2  A    between atoms: C_7  and  O_8
REMARK    3  A    between atoms: O_8  and  C_9
REMARK    4  A    between atoms: C_17  and  O_19
REMARK    5  A    between atoms: C_18  and  O_29
REMARK    6  A    between atoms: O_19  and  C_20
REMARK    7  A    between atoms: C_21  and  C_22
REMARK    8  A    between atoms: C_22  and  N_23
REMARK    9  A    between atoms: C_32  and  C_35
REMARK   10  A    between atoms: C_35  and  C_38
REMARK   11  A    between atoms: N_40  and  C_42
REMARK                            x       y       z     vdW  Elec       q    Type
REMARK                         _______ _______ _______ _____ _____    ______ ____
ROOT
ATOM      1  F   UNL     1      -4.554 -18.594   0.149  0.00  0.00    +0.000 F 
ATOM      2  C   UNL     1      -6.730 -16.220   1.820  0.00  0.00    +0.000 A 
ATOM      3  C   UNL     1      -5.889 -16.791   0.864  0.00  0.00    +0.000 A 
ATOM      4  C   UNL     1      -7.058 -16.942   2.969  0.00  0.00    +0.000 A 
ATOM      5  C   UNL     1      -5.388 -18.074   1.061  0.00  0.00    +0.000 A 
ATOM      6  C   UNL     1      -6.555 -18.227   3.166  0.00  0.00    +0.000 A 
ATOM      7  C   UNL     1      -5.737 -18.804   2.198  0.00  0.00    +0.000 A 
ENDROOT
BRANCH   2   8
ATOM      8  N   UNL     1      -7.271 -14.928   1.685  0.00  0.00    +0.000 N 
ATOM      9  C   UNL     1      -6.540 -13.751   1.644  0.00  0.00    +0.000 C 
ATOM     10  O   UNL     1      -5.324 -13.651   1.744  0.00  0.00    +0.000 OA
ATOM     11  H   UNL     1      -8.284 -14.857   1.656  0.00  0.00    +0.000 HD
BRANCH   9  12
ATOM     12  C   UNL     1      -7.370 -12.507   1.519  0.00  0.00    +0.000 C 
ATOM     13  C   UNL     1      -8.441 -12.304   2.489  0.00  0.00    +0.000 C 
ATOM     14  C   UNL     1      -8.752 -12.662   1.080  0.00  0.00    +0.000 C 
BRANCH  12  15
ATOM     15  C   UNL     1      -6.615 -11.293   1.066  0.00  0.00    +0.000 C 
ATOM     16  O   UNL     1      -5.774 -11.416   0.182  0.00  0.00    +0.000 OA
ATOM     17  N   UNL     1      -6.996 -10.111   1.677  0.00  0.00    +0.000 N 
ATOM     18  H   UNL     1      -7.750 -10.148   2.356  0.00  0.00    +0.000 HD
BRANCH  17  19
ATOM     19  C   UNL     1      -6.448  -8.842   1.413  0.00  0.00    +0.000 A 
ATOM     20  C   UNL     1      -5.708  -8.230   2.427  0.00  0.00    +0.000 A 
ATOM     21  C   UNL     1      -5.141  -6.974   2.226  0.00  0.00    +0.000 A 
ATOM     22  C   UNL     1      -5.318  -6.335   1.004  0.00  0.00    +0.000 A 
ATOM     23  F   UNL     1      -4.772  -5.128   0.808  0.00  0.00    +0.000 F 
ATOM     24  C   UNL     1      -6.050  -6.930  -0.017  0.00  0.00    +0.000 A 
ATOM     25  C   UNL     1      -6.614  -8.185   0.192  0.00  0.00    +0.000 A 
ENDBRANCH  17  19
ENDBRANCH  12  15
ENDBRANCH   9  12
ENDBRANCH   2   8
BRANCH   7  26
ATOM     26  O   UNL     1      -5.219 -20.046   2.474  0.00  0.00    +0.000 OA
BRANCH  26  27
ATOM     27  C   UNL     1      -4.248 -20.120   3.453  0.00  0.00    +0.000 A 
ATOM     28  C   UNL     1      -2.944 -20.470   3.067  0.00  0.00    +0.000 A 
ATOM     29  C   UNL     1      -1.949 -20.489   4.059  0.00  0.00    +0.000 A 
ATOM     30  C   UNL     1      -2.614 -20.803   1.743  0.00  0.00    +0.000 A 
ATOM     31  N   UNL     1      -2.205 -20.175   5.339  0.00  0.00    +0.000 NA
ATOM     32  C   UNL     1      -0.661 -20.841   3.684  0.00  0.00    +0.000 A 
ATOM     33  C   UNL     1      -3.470 -19.830   5.668  0.00  0.00    +0.000 A 
ATOM     34  C   UNL     1      -4.519 -19.777   4.773  0.00  0.00    +0.000 A 
ATOM     35  C   UNL     1      -0.325 -21.172   2.365  0.00  0.00    +0.000 A 
ATOM     36  C   UNL     1      -1.314 -21.155   1.381  0.00  0.00    +0.000 A 
BRANCH  36  37
ATOM     37  O   UNL     1      -0.935 -21.495   0.103  0.00  0.00    +0.000 OA
ATOM     38  C   UNL     1      -1.533 -20.754  -0.925  0.00  0.00    +0.000 C 
ENDBRANCH  36  37
BRANCH  35  39
ATOM     39  O   UNL     1       0.946 -21.528   1.978  0.00  0.00    +0.000 OA
BRANCH  39  40
ATOM     40  C   UNL     1       1.870 -20.586   2.147  0.00  0.00    +0.000 C 
ATOM     41  C   UNL     1       2.927 -19.496   2.357  0.00  0.00    +0.000 C 
BRANCH  41  42
ATOM     42  C   UNL     1       3.984 -18.408   2.572  0.00  0.00    +0.000 C 
BRANCH  42  43
ATOM     43  N   UNL     1       4.987 -17.373   2.778  0.00  0.00    +0.000 N 
ATOM     44  C   UNL     1       5.553 -17.587   4.145  0.00  0.00    +0.000 C 
ATOM     45  C   UNL     1       6.977 -18.089   4.550  0.00  0.00    +0.000 C 
ATOM     46  O   UNL     1       8.079 -18.472   3.867  0.00  0.00    +0.000 OA
ATOM     47  C   UNL     1       7.568 -18.285   2.634  0.00  0.00    +0.000 C 
ATOM     48  C   UNL     1       6.210 -17.804   2.036  0.00  0.00    +0.000 C 
ENDBRANCH  42  43
ENDBRANCH  41  42
ENDBRANCH  39  40
ENDBRANCH  35  39
ENDBRANCH  26  27
ENDBRANCH   7  26
TORSDOF 11
ENDMDL
MODEL 5
REMARK VINA RESULT:      -5.5     16.253     20.767
REMARK  Name = Foretinib.pdbqt.pdb
REMARK  11 active torsions:
REMARK  status: ('A' for Active; 'I' for Inactive)
REMARK    1  A    between atoms: C_2  and  N_31
REMARK    2  A    between atoms: C_7  and  O_8
REMARK    3  A    between atoms: O_8  and  C_9
REMARK    4  A    between atoms: C_17  and  O_19
REMARK    5  A    between atoms: C_18  and  O_29
REMARK    6  A    between atoms: O_19  and  C_20
REMARK    7  A    between atoms: C_21  and  C_22
REMARK    8  A    between atoms: C_22  and  N_23
REMARK    9  A    between atoms: C_32  and  C_35
REMARK   10  A    between atoms: C_35  and  C_38
REMARK   11  A    between atoms: N_40  and  C_42
REMARK                            x       y       z     vdW  Elec       q    Type
REMARK                         _______ _______ _______ _____ _____    ______ ____
ROOT
ATOM      1  F   UNL     1      -6.406   9.670  16.922  0.00  0.00    +0.000 F 
ATOM      2  C   UNL     1      -5.090  10.262  13.593  0.00  0.00    +0.000 A 
ATOM      3  C   UNL     1      -5.987   9.993  14.627  0.00  0.00    +0.000 A 
ATOM      4  C   UNL     1      -3.745  10.493  13.889  0.00  0.00    +0.000 A 
ATOM      5  C   UNL     1      -5.537   9.963  15.943  0.00  0.00    +0.000 A 
ATOM      6  C   UNL     1      -3.295  10.461  15.208  0.00  0.00    +0.000 A 
ATOM      7  C   UNL     1      -4.198  10.220  16.240  0.00  0.00    +0.000 A 
ENDROOT
BRANCH   2   8
ATOM      8  N   UNL     1      -5.477  10.306  12.240  0.00  0.00    +0.000 N 
ATOM      9  C   UNL     1      -5.936  11.429  11.572  0.00  0.00    +0.000 C 
ATOM     10  O   UNL     1      -6.101  12.542  12.055  0.00  0.00    +0.000 OA
ATOM     11  H   UNL     1      -5.453   9.428  11.729  0.00  0.00    +0.000 HD
BRANCH   9  12
ATOM     12  C   UNL     1      -6.304  11.193  10.136  0.00  0.00    +0.000 C 
ATOM     13  C   UNL     1      -5.317  11.532   9.118  0.00  0.00    +0.000 C 
ATOM     14  C   UNL     1      -6.533  12.365   9.299  0.00  0.00    +0.000 C 
BRANCH  12  15
ATOM     15  C   UNL     1      -7.148   9.977   9.897  0.00  0.00    +0.000 C 
ATOM     16  O   UNL     1      -7.986   9.664  10.736  0.00  0.00    +0.000 OA
ATOM     17  N   UNL     1      -6.920   9.340   8.689  0.00  0.00    +0.000 N 
ATOM     18  H   UNL     1      -6.229   9.743   8.062  0.00  0.00    +0.000 HD
BRANCH  17  19
ATOM     19  C   UNL     1      -7.591   8.192   8.232  0.00  0.00    +0.000 A 
ATOM     20  C   UNL     1      -8.513   8.349   7.194  0.00  0.00    +0.000 A 
ATOM     21  C   UNL     1      -9.210   7.250   6.698  0.00  0.00    +0.000 A 
ATOM     22  C   UNL     1      -8.978   5.993   7.245  0.00  0.00    +0.000 A 
ATOM     23  F   UNL     1      -9.645   4.934   6.768  0.00  0.00    +0.000 F 
ATOM     24  C   UNL     1      -8.062   5.817   8.276  0.00  0.00    +0.000 A 
ATOM     25  C   UNL     1      -7.371   6.922   8.767  0.00  0.00    +0.000 A 
ENDBRANCH  17  19
ENDBRANCH  12  15
ENDBRANCH   9  12
ENDBRANCH   2   8
BRANCH   7  26
ATOM     26  O   UNL     1      -3.688  10.136  17.512  0.00  0.00    +0.000 OA
BRANCH  26  27
ATOM     27  C   UNL     1      -3.126   8.932  17.889  0.00  0.00    +0.000 A 
ATOM     28  C   UNL     1      -1.731   8.871  18.039  0.00  0.00    +0.000 A 
ATOM     29  C   UNL     1      -1.172   7.659  18.477  0.00  0.00    +0.000 A 
ATOM     30  C   UNL     1      -0.895   9.964  17.761  0.00  0.00    +0.000 A 
ATOM     31  N   UNL     1      -1.922   6.583  18.762  0.00  0.00    +0.000 NA
ATOM     32  C   UNL     1       0.206   7.591  18.620  0.00  0.00    +0.000 A 
ATOM     33  C   UNL     1      -3.262   6.686  18.618  0.00  0.00    +0.000 A 
ATOM     34  C   UNL     1      -3.913   7.828  18.199  0.00  0.00    +0.000 A 
ATOM     35  C   UNL     1       1.046   8.678  18.346  0.00  0.00    +0.000 A 
ATOM     36  C   UNL     1       0.490   9.881  17.910  0.00  0.00    +0.000 A 
BRANCH  36  37
ATOM     37  O   UNL     1       1.357  10.916  17.648  0.00  0.00    +0.000 OA
ATOM     38  C   UNL     1       1.339  11.970  18.570  0.00  0.00    +0.000 C 
ENDBRANCH  36  37
BRANCH  35  39
ATOM     39  O   UNL     1       2.414   8.625  18.478  0.00  0.00    +0.000 OA
BRANCH  39  40
ATOM     40  C   UNL     1       2.901   7.435  18.820  0.00  0.00    +0.000 C 
ATOM     41  C   UNL     1       3.446   6.058  19.214  0.00  0.00    +0.000 C 
BRANCH  41  42
ATOM     42  C   UNL     1       3.987   4.678  19.604  0.00  0.00    +0.000 C 
BRANCH  42  43
ATOM     43  N   UNL     1       4.499   3.366  19.973  0.00  0.00    +0.000 N 
ATOM     44  C   UNL     1       3.482   2.744  20.874  0.00  0.00    +0.000 C 
ATOM     45  C   UNL     1       2.530   1.536  20.593  0.00  0.00    +0.000 C 
ATOM     46  O   UNL     1       2.316   0.722  19.536  0.00  0.00    +0.000 OA
ATOM     47  C   UNL     1       3.230   1.286  18.720  0.00  0.00    +0.000 C 
ATOM     48  C   UNL     1       4.249   2.463  18.811  0.00  0.00    +0.000 C 
ENDBRANCH  42  43
ENDBRANCH  41  42
ENDBRANCH  39  40
ENDBRANCH  35  39
ENDBRANCH  26  27
ENDBRANCH   7  26
TORSDOF 11
ENDMDL
MODEL 6
REMARK VINA RESULT:      -5.5     24.816     31.578
REMARK  Name = Foretinib.pdbqt.pdb
REMARK  11 active torsions:
REMARK  status: ('A' for Active; 'I' for Inactive)
REMARK    1  A    between atoms: C_2  and  N_31
REMARK    2  A    between atoms: C_7  and  O_8
REMARK    3  A    between atoms: O_8  and  C_9
REMARK    4  A    between atoms: C_17  and  O_19
REMARK    5  A    between atoms: C_18  and  O_29
REMARK    6  A    between atoms: O_19  and  C_20
REMARK    7  A    between atoms: C_21  and  C_22
REMARK    8  A    between atoms: C_22  and  N_23
REMARK    9  A    between atoms: C_32  and  C_35
REMARK   10  A    between atoms: C_35  and  C_38
REMARK   11  A    between atoms: N_40  and  C_42
REMARK                            x       y       z     vdW  Elec       q    Type
REMARK                         _______ _______ _______ _____ _____    ______ ____
ROOT
ATOM      1  F   UNL     1      -2.496  11.004  -1.783  0.00  0.00    +0.000 F 
ATOM      2  C   UNL     1      -4.560   9.608   0.855  0.00  0.00    +0.000 A 
ATOM      3  C   UNL     1      -3.576  10.355   0.207  0.00  0.00    +0.000 A 
ATOM      4  C   UNL     1      -5.428   8.812   0.103  0.00  0.00    +0.000 A 
ATOM      5  C   UNL     1      -3.470  10.306  -1.180  0.00  0.00    +0.000 A 
ATOM      6  C   UNL     1      -5.320   8.763  -1.286  0.00  0.00    +0.000 A 
ATOM      7  C   UNL     1      -4.353   9.531  -1.931  0.00  0.00    +0.000 A 
ENDROOT
BRANCH   2   8
ATOM      8  N   UNL     1      -4.723   9.610   2.253  0.00  0.00    +0.000 N 
ATOM      9  C   UNL     1      -4.799  10.739   3.051  0.00  0.00    +0.000 C 
ATOM     10  O   UNL     1      -4.711  11.900   2.673  0.00  0.00    +0.000 OA
ATOM     11  H   UNL     1      -4.745   8.703   2.711  0.00  0.00    +0.000 HD
BRANCH   9  12
ATOM     12  C   UNL     1      -4.949  10.456   4.517  0.00  0.00    +0.000 C 
ATOM     13  C   UNL     1      -4.636  11.531   5.452  0.00  0.00    +0.000 C 
ATOM     14  C   UNL     1      -3.729  10.362   5.312  0.00  0.00    +0.000 C 
BRANCH  12  15
ATOM     15  C   UNL     1      -6.093   9.552   4.868  0.00  0.00    +0.000 C 
ATOM     16  O   UNL     1      -7.182   9.746   4.340  0.00  0.00    +0.000 OA
ATOM     17  N   UNL     1      -5.777   8.527   5.743  0.00  0.00    +0.000 N 
ATOM     18  H   UNL     1      -4.815   8.453   6.061  0.00  0.00    +0.000 HD
BRANCH  17  19
ATOM     19  C   UNL     1      -6.671   7.547   6.209  0.00  0.00    +0.000 A 
ATOM     20  C   UNL     1      -7.482   7.873   7.299  0.00  0.00    +0.000 A 
ATOM     21  C   UNL     1      -8.388   6.945   7.807  0.00  0.00    +0.000 A 
ATOM     22  C   UNL     1      -8.478   5.689   7.216  0.00  0.00    +0.000 A 
ATOM     23  F   UNL     1      -9.350   4.795   7.701  0.00  0.00    +0.000 F 
ATOM     24  C   UNL     1      -7.681   5.348   6.130  0.00  0.00    +0.000 A 
ATOM     25  C   UNL     1      -6.777   6.281   5.629  0.00  0.00    +0.000 A 
ENDBRANCH  17  19
ENDBRANCH  12  15
ENDBRANCH   9  12
ENDBRANCH   2   8
BRANCH   7  26
ATOM     26  O   UNL     1      -4.251   9.393  -3.294  0.00  0.00    +0.000 OA
BRANCH  26  27
ATOM     27  C   UNL     1      -3.996   8.127  -3.783  0.00  0.00    +0.000 A 
ATOM     28  C   UNL     1      -4.969   7.525  -4.596  0.00  0.00    +0.000 A 
ATOM     29  C   UNL     1      -4.680   6.260  -5.137  0.00  0.00    +0.000 A 
ATOM     30  C   UNL     1      -6.203   8.135  -4.873  0.00  0.00    +0.000 A 
ATOM     31  N   UNL     1      -3.516   5.632  -4.910  0.00  0.00    +0.000 NA
ATOM     32  C   UNL     1      -5.640   5.657  -5.935  0.00  0.00    +0.000 A 
ATOM     33  C   UNL     1      -2.599   6.251  -4.132  0.00  0.00    +0.000 A 
ATOM     34  C   UNL     1      -2.781   7.492  -3.557  0.00  0.00    +0.000 A 
ATOM     35  C   UNL     1      -6.872   6.261  -6.217  0.00  0.00    +0.000 A 
ATOM     36  C   UNL     1      -7.159   7.516  -5.679  0.00  0.00    +0.000 A 
BRANCH  36  37
ATOM     37  O   UNL     1      -8.385   8.063  -5.979  0.00  0.00    +0.000 OA
ATOM     38  C   UNL     1      -8.371   9.102  -6.920  0.00  0.00    +0.000 C 
ENDBRANCH  36  37
BRANCH  35  39
ATOM     39  O   UNL     1      -7.837   5.675  -7.002  0.00  0.00    +0.000 OA
BRANCH  39  40
ATOM     40  C   UNL     1      -8.790   5.029  -6.334  0.00  0.00    +0.000 C 
ATOM     41  C   UNL     1      -9.896   4.301  -5.562  0.00  0.00    +0.000 C 
BRANCH  41  42
ATOM     42  C   UNL     1     -11.006   3.576  -4.794  0.00  0.00    +0.000 C 
BRANCH  42  43
ATOM     43  N   UNL     1     -12.060   2.887  -4.063  0.00  0.00    +0.000 N 
ATOM     44  C   UNL     1     -12.530   3.825  -2.998  0.00  0.00    +0.000 C 
ATOM     45  C   UNL     1     -13.893   4.583  -2.890  0.00  0.00    +0.000 C 
ATOM     46  O   UNL     1     -15.005   4.651  -3.654  0.00  0.00    +0.000 OA
ATOM     47  C   UNL     1     -14.580   3.810  -4.619  0.00  0.00    +0.000 C 
ATOM     48  C   UNL     1     -13.294   2.975  -4.901  0.00  0.00    +0.000 C 
ENDBRANCH  42  43
ENDBRANCH  41  42
ENDBRANCH  39  40
ENDBRANCH  35  39
ENDBRANCH  26  27
ENDBRANCH   7  26
TORSDOF 11
ENDMDL
MODEL 7
REMARK VINA RESULT:      -5.3     23.055     28.418
REMARK  Name = Foretinib.pdbqt.pdb
REMARK  11 active torsions:
REMARK  status: ('A' for Active; 'I' for Inactive)
REMARK    1  A    between atoms: C_2  and  N_31
REMARK    2  A    between atoms: C_7  and  O_8
REMARK    3  A    between atoms: O_8  and  C_9
REMARK    4  A    between atoms: C_17  and  O_19
REMARK    5  A    between atoms: C_18  and  O_29
REMARK    6  A    between atoms: O_19  and  C_20
REMARK    7  A    between atoms: C_21  and  C_22
REMARK    8  A    between atoms: C_22  and  N_23
REMARK    9  A    between atoms: C_32  and  C_35
REMARK   10  A    between atoms: C_35  and  C_38
REMARK   11  A    between atoms: N_40  and  C_42
REMARK                            x       y       z     vdW  Elec       q    Type
REMARK                         _______ _______ _______ _____ _____    ______ ____
ROOT
ATOM      1  F   UNL     1      -2.667 -23.948   4.753  0.00  0.00    +0.000 F 
ATOM      2  C   UNL     1      -4.355 -21.231   6.465  0.00  0.00    +0.000 A 
ATOM      3  C   UNL     1      -4.134 -22.452   5.828  0.00  0.00    +0.000 A 
ATOM      4  C   UNL     1      -3.288 -20.350   6.656  0.00  0.00    +0.000 A 
ATOM      5  C   UNL     1      -2.855 -22.785   5.394  0.00  0.00    +0.000 A 
ATOM      6  C   UNL     1      -2.008 -20.684   6.220  0.00  0.00    +0.000 A 
ATOM      7  C   UNL     1      -1.785 -21.915   5.608  0.00  0.00    +0.000 A 
ENDROOT
BRANCH   2   8
ATOM      8  N   UNL     1      -5.623 -20.831   6.928  0.00  0.00    +0.000 N 
ATOM      9  C   UNL     1      -6.265 -21.333   8.048  0.00  0.00    +0.000 C 
ATOM     10  O   UNL     1      -5.845 -22.213   8.789  0.00  0.00    +0.000 OA
ATOM     11  H   UNL     1      -6.119 -20.145   6.366  0.00  0.00    +0.000 HD
BRANCH   9  12
ATOM     12  C   UNL     1      -7.623 -20.747   8.303  0.00  0.00    +0.000 C 
ATOM     13  C   UNL     1      -8.349 -21.204   9.483  0.00  0.00    +0.000 C 
ATOM     14  C   UNL     1      -8.776 -21.621   8.122  0.00  0.00    +0.000 C 
BRANCH  12  15
ATOM     15  C   UNL     1      -7.763 -19.303   7.927  0.00  0.00    +0.000 C 
ATOM     16  O   UNL     1      -6.853 -18.529   8.203  0.00  0.00    +0.000 OA
ATOM     17  N   UNL     1      -8.923 -18.992   7.239  0.00  0.00    +0.000 N 
ATOM     18  H   UNL     1      -9.568 -19.748   7.028  0.00  0.00    +0.000 HD
BRANCH  17  19
ATOM     19  C   UNL     1      -9.276 -17.714   6.768  0.00  0.00    +0.000 A 
ATOM     20  C   UNL     1      -8.938 -17.390   5.452  0.00  0.00    +0.000 A 
ATOM     21  C   UNL     1      -9.260 -16.140   4.928  0.00  0.00    +0.000 A 
ATOM     22  C   UNL     1      -9.924 -15.218   5.729  0.00  0.00    +0.000 A 
ATOM     23  F   UNL     1     -10.237 -14.016   5.227  0.00  0.00    +0.000 F 
ATOM     24  C   UNL     1     -10.271 -15.523   7.040  0.00  0.00    +0.000 A 
ATOM     25  C   UNL     1      -9.944 -16.775   7.556  0.00  0.00    +0.000 A 
ENDBRANCH  17  19
ENDBRANCH  12  15
ENDBRANCH   9  12
ENDBRANCH   2   8
BRANCH   7  26
ATOM     26  O   UNL     1      -0.518 -22.163   5.141  0.00  0.00    +0.000 OA
BRANCH  26  27
ATOM     27  C   UNL     1      -0.056 -21.363   4.114  0.00  0.00    +0.000 A 
ATOM     28  C   UNL     1       1.017 -20.499   4.381  0.00  0.00    +0.000 A 
ATOM     29  C   UNL     1       1.519 -19.729   3.317  0.00  0.00    +0.000 A 
ATOM     30  C   UNL     1       1.589 -20.378   5.657  0.00  0.00    +0.000 A 
ATOM     31  N   UNL     1       1.016 -19.807   2.075  0.00  0.00    +0.000 NA
ATOM     32  C   UNL     1       2.575 -18.868   3.576  0.00  0.00    +0.000 A 
ATOM     33  C   UNL     1      -0.009 -20.661   1.856  0.00  0.00    +0.000 A 
ATOM     34  C   UNL     1      -0.573 -21.463   2.827  0.00  0.00    +0.000 A 
ATOM     35  C   UNL     1       3.151 -18.744   4.847  0.00  0.00    +0.000 A 
ATOM     36  C   UNL     1       2.652 -19.508   5.903  0.00  0.00    +0.000 A 
BRANCH  36  37
ATOM     37  O   UNL     1       3.246 -19.345   7.132  0.00  0.00    +0.000 OA
ATOM     38  C   UNL     1       2.471 -19.724   8.236  0.00  0.00    +0.000 C 
ENDBRANCH  36  37
BRANCH  35  39
ATOM     39  O   UNL     1       4.195 -17.892   5.121  0.00  0.00    +0.000 OA
BRANCH  39  40
ATOM     40  C   UNL     1       5.323 -18.156   4.468  0.00  0.00    +0.000 C 
ATOM     41  C   UNL     1       6.618 -18.476   3.713  0.00  0.00    +0.000 C 
BRANCH  41  42
ATOM     42  C   UNL     1       7.909 -18.800   2.953  0.00  0.00    +0.000 C 
BRANCH  42  43
ATOM     43  N   UNL     1       9.136 -19.106   2.231  0.00  0.00    +0.000 N 
ATOM     44  C   UNL     1       9.686 -17.804   1.744  0.00  0.00    +0.000 C 
ATOM     45  C   UNL     1      10.964 -17.041   2.218  0.00  0.00    +0.000 C 
ATOM     46  O   UNL     1      11.918 -17.270   3.147  0.00  0.00    +0.000 OA
ATOM     47  C   UNL     1      11.420 -18.442   3.592  0.00  0.00    +0.000 C 
ATOM     48  C   UNL     1      10.193 -19.345   3.259  0.00  0.00    +0.000 C 
ENDBRANCH  42  43
ENDBRANCH  41  42
ENDBRANCH  39  40
ENDBRANCH  35  39
ENDBRANCH  26  27
ENDBRANCH   7  26
TORSDOF 11
ENDMDL
MODEL 8
REMARK VINA RESULT:      -5.3     20.637     25.023
REMARK  Name = Foretinib.pdbqt.pdb
REMARK  11 active torsions:
REMARK  status: ('A' for Active; 'I' for Inactive)
REMARK    1  A    between atoms: C_2  and  N_31
REMARK    2  A    between atoms: C_7  and  O_8
REMARK    3  A    between atoms: O_8  and  C_9
REMARK    4  A    between atoms: C_17  and  O_19
REMARK    5  A    between atoms: C_18  and  O_29
REMARK    6  A    between atoms: O_19  and  C_20
REMARK    7  A    between atoms: C_21  and  C_22
REMARK    8  A    between atoms: C_22  and  N_23
REMARK    9  A    between atoms: C_32  and  C_35
REMARK   10  A    between atoms: C_35  and  C_38
REMARK   11  A    between atoms: N_40  and  C_42
REMARK                            x       y       z     vdW  Elec       q    Type
REMARK                         _______ _______ _______ _____ _____    ______ ____
ROOT
ATOM      1  F   UNL     1      -0.345  10.869   6.656  0.00  0.00    +0.000 F 
ATOM      2  C   UNL     1      -2.914   9.617   8.892  0.00  0.00    +0.000 A 
ATOM      3  C   UNL     1      -2.242   9.967   7.720  0.00  0.00    +0.000 A 
ATOM      4  C   UNL     1      -2.294   9.818  10.127  0.00  0.00    +0.000 A 
ATOM      5  C   UNL     1      -0.962  10.507   7.791  0.00  0.00    +0.000 A 
ATOM      6  C   UNL     1      -1.013  10.361  10.197  0.00  0.00    +0.000 A 
ATOM      7  C   UNL     1      -0.334  10.684   9.024  0.00  0.00    +0.000 A 
ENDROOT
BRANCH   2   8
ATOM      8  N   UNL     1      -4.210   9.068   8.893  0.00  0.00    +0.000 N 
ATOM      9  C   UNL     1      -5.387   9.785   8.754  0.00  0.00    +0.000 C 
ATOM     10  O   UNL     1      -5.484  11.000   8.635  0.00  0.00    +0.000 OA
ATOM     11  H   UNL     1      -4.281   8.067   9.050  0.00  0.00    +0.000 HD
BRANCH   9  12
ATOM     12  C   UNL     1      -6.634   8.953   8.815  0.00  0.00    +0.000 C 
ATOM     13  C   UNL     1      -7.878   9.620   9.184  0.00  0.00    +0.000 C 
ATOM     14  C   UNL     1      -7.205   8.694  10.132  0.00  0.00    +0.000 C 
BRANCH  12  15
ATOM     15  C   UNL     1      -6.716   7.869   7.782  0.00  0.00    +0.000 C 
ATOM     16  O   UNL     1      -6.246   6.768   8.043  0.00  0.00    +0.000 OA
ATOM     17  N   UNL     1      -7.383   8.223   6.621  0.00  0.00    +0.000 N 
ATOM     18  H   UNL     1      -7.772   9.159   6.563  0.00  0.00    +0.000 HD
BRANCH  17  19
ATOM     19  C   UNL     1      -7.602   7.380   5.517  0.00  0.00    +0.000 A 
ATOM     20  C   UNL     1      -6.761   7.526   4.411  0.00  0.00    +0.000 A 
ATOM     21  C   UNL     1      -6.927   6.721   3.287  0.00  0.00    +0.000 A 
ATOM     22  C   UNL     1      -7.939   5.768   3.277  0.00  0.00    +0.000 A 
ATOM     23  F   UNL     1      -8.100   4.991   2.198  0.00  0.00    +0.000 F 
ATOM     24  C   UNL     1      -8.784   5.606   4.369  0.00  0.00    +0.000 A 
ATOM     25  C   UNL     1      -8.611   6.416   5.488  0.00  0.00    +0.000 A 
ENDBRANCH  17  19
ENDBRANCH  12  15
ENDBRANCH   9  12
ENDBRANCH   2   8
BRANCH   7  26
ATOM     26  O   UNL     1       0.899  11.274   9.156  0.00  0.00    +0.000 OA
BRANCH  26  27
ATOM     27  C   UNL     1       1.977  10.440   9.379  0.00  0.00    +0.000 A 
ATOM     28  C   UNL     1       2.609  10.498  10.631  0.00  0.00    +0.000 A 
ATOM     29  C   UNL     1       3.669   9.607  10.871  0.00  0.00    +0.000 A 
ATOM     30  C   UNL     1       2.224  11.407  11.629  0.00  0.00    +0.000 A 
ATOM     31  N   UNL     1       4.077   8.713   9.957  0.00  0.00    +0.000 NA
ATOM     32  C   UNL     1       4.302   9.664  12.104  0.00  0.00    +0.000 A 
ATOM     33  C   UNL     1       3.434   8.680   8.768  0.00  0.00    +0.000 A 
ATOM     34  C   UNL     1       2.381   9.506   8.432  0.00  0.00    +0.000 A 
ATOM     35  C   UNL     1       3.921  10.568  13.104  0.00  0.00    +0.000 A 
ATOM     36  C   UNL     1       2.869  11.453  12.865  0.00  0.00    +0.000 A 
BRANCH  36  37
ATOM     37  O   UNL     1       2.539  12.325  13.875  0.00  0.00    +0.000 OA
ATOM     38  C   UNL     1       1.228  12.820  13.845  0.00  0.00    +0.000 C 
ENDBRANCH  36  37
BRANCH  35  39
ATOM     39  O   UNL     1       4.541  10.641  14.330  0.00  0.00    +0.000 OA
BRANCH  39  40
ATOM     40  C   UNL     1       4.978   9.479  14.810  0.00  0.00    +0.000 C 
ATOM     41  C   UNL     1       5.475   8.132  15.348  0.00  0.00    +0.000 C 
BRANCH  41  42
ATOM     42  C   UNL     1       5.974   6.785  15.880  0.00  0.00    +0.000 C 
BRANCH  42  43
ATOM     43  N   UNL     1       6.448   5.504  16.386  0.00  0.00    +0.000 N 
ATOM     44  C   UNL     1       5.584   5.157  17.555  0.00  0.00    +0.000 C 
ATOM     45  C   UNL     1       4.506   4.031  17.677  0.00  0.00    +0.000 C 
ATOM     46  O   UNL     1       4.026   3.081  16.845  0.00  0.00    +0.000 OA
ATOM     47  C   UNL     1       4.801   3.398  15.788  0.00  0.00    +0.000 C 
ATOM     48  C   UNL     1       5.904   4.453  15.474  0.00  0.00    +0.000 C 
ENDBRANCH  42  43
ENDBRANCH  41  42
ENDBRANCH  39  40
ENDBRANCH  35  39
ENDBRANCH  26  27
ENDBRANCH   7  26
TORSDOF 11
ENDMDL
MODEL 9
REMARK VINA RESULT:      -5.1     23.717     27.702
REMARK  Name = Foretinib.pdbqt.pdb
REMARK  11 active torsions:
REMARK  status: ('A' for Active; 'I' for Inactive)
REMARK    1  A    between atoms: C_2  and  N_31
REMARK    2  A    between atoms: C_7  and  O_8
REMARK    3  A    between atoms: O_8  and  C_9
REMARK    4  A    between atoms: C_17  and  O_19
REMARK    5  A    between atoms: C_18  and  O_29
REMARK    6  A    between atoms: O_19  and  C_20
REMARK    7  A    between atoms: C_21  and  C_22
REMARK    8  A    between atoms: C_22  and  N_23
REMARK    9  A    between atoms: C_32  and  C_35
REMARK   10  A    between atoms: C_35  and  C_38
REMARK   11  A    between atoms: N_40  and  C_42
REMARK                            x       y       z     vdW  Elec       q    Type
REMARK                         _______ _______ _______ _____ _____    ______ ____
ROOT
ATOM      1  F   UNL     1       2.766  11.457   4.713  0.00  0.00    +0.000 F 
ATOM      2  C   UNL     1       3.101   8.018   5.820  0.00  0.00    +0.000 A 
ATOM      3  C   UNL     1       3.366   9.227   5.178  0.00  0.00    +0.000 A 
ATOM      4  C   UNL     1       1.979   7.906   6.644  0.00  0.00    +0.000 A 
ATOM      5  C   UNL     1       2.515  10.312   5.365  0.00  0.00    +0.000 A 
ATOM      6  C   UNL     1       1.126   8.992   6.830  0.00  0.00    +0.000 A 
ATOM      7  C   UNL     1       1.408  10.206   6.208  0.00  0.00    +0.000 A 
ENDROOT
BRANCH   2   8
ATOM      8  N   UNL     1       3.919   6.882   5.674  0.00  0.00    +0.000 N 
ATOM      9  C   UNL     1       3.944   6.047   4.569  0.00  0.00    +0.000 C 
ATOM     10  O   UNL     1       3.248   6.150   3.567  0.00  0.00    +0.000 OA
ATOM     11  H   UNL     1       4.507   6.638   6.466  0.00  0.00    +0.000 HD
BRANCH   9  12
ATOM     12  C   UNL     1       4.894   4.890   4.684  0.00  0.00    +0.000 C 
ATOM     13  C   UNL     1       5.964   4.789   3.697  0.00  0.00    +0.000 C 
ATOM     14  C   UNL     1       4.813   3.850   3.665  0.00  0.00    +0.000 C 
BRANCH  12  15
ATOM     15  C   UNL     1       5.217   4.481   6.090  0.00  0.00    +0.000 C 
ATOM     16  O   UNL     1       4.303   4.121   6.825  0.00  0.00    +0.000 OA
ATOM     17  N   UNL     1       6.564   4.504   6.407  0.00  0.00    +0.000 N 
ATOM     18  H   UNL     1       7.219   4.771   5.679  0.00  0.00    +0.000 HD
BRANCH  17  19
ATOM     19  C   UNL     1       7.116   4.151   7.652  0.00  0.00    +0.000 A 
ATOM     20  C   UNL     1       7.449   5.184   8.531  0.00  0.00    +0.000 A 
ATOM     21  C   UNL     1       7.999   4.899   9.778  0.00  0.00    +0.000 A 
ATOM     22  C   UNL     1       8.212   3.574  10.141  0.00  0.00    +0.000 A 
ATOM     23  F   UNL     1       8.738   3.297  11.341  0.00  0.00    +0.000 F 
ATOM     24  C   UNL     1       7.884   2.533   9.281  0.00  0.00    +0.000 A 
ATOM     25  C   UNL     1       7.335   2.826   8.035  0.00  0.00    +0.000 A 
ENDBRANCH  17  19
ENDBRANCH  12  15
ENDBRANCH   9  12
ENDBRANCH   2   8
BRANCH   7  26
ATOM     26  O   UNL     1       0.499  11.222   6.375  0.00  0.00    +0.000 OA
BRANCH  26  27
ATOM     27  C   UNL     1      -0.747  11.055   5.803  0.00  0.00    +0.000 A 
ATOM     28  C   UNL     1      -1.832  10.782   6.649  0.00  0.00    +0.000 A 
ATOM     29  C   UNL     1      -3.106  10.670   6.066  0.00  0.00    +0.000 A 
ATOM     30  C   UNL     1      -1.684  10.614   8.035  0.00  0.00    +0.000 A 
ATOM     31  N   UNL     1      -3.309  10.826   4.748  0.00  0.00    +0.000 NA
ATOM     32  C   UNL     1      -4.181  10.392   6.897  0.00  0.00    +0.000 A 
ATOM     33  C   UNL     1      -2.239  11.102   3.969  0.00  0.00    +0.000 A 
ATOM     34  C   UNL     1      -0.949  11.236   4.439  0.00  0.00    +0.000 A 
ATOM     35  C   UNL     1      -4.040  10.225   8.280  0.00  0.00    +0.000 A 
ATOM     36  C   UNL     1      -2.775  10.335   8.859  0.00  0.00    +0.000 A 
BRANCH  36  37
ATOM     37  O   UNL     1      -2.688  10.155  10.219  0.00  0.00    +0.000 OA
ATOM     38  C   UNL     1      -1.391  10.015  10.731  0.00  0.00    +0.000 C 
ENDBRANCH  36  37
BRANCH  35  39
ATOM     39  O   UNL     1      -5.095   9.945   9.117  0.00  0.00    +0.000 OA
BRANCH  39  40
ATOM     40  C   UNL     1      -5.814   8.877   8.778  0.00  0.00    +0.000 C 
ATOM     41  C   UNL     1      -6.628   7.642   8.378  0.00  0.00    +0.000 C 
BRANCH  41  42
ATOM     42  C   UNL     1      -7.437   6.403   7.978  0.00  0.00    +0.000 C 
BRANCH  42  43
ATOM     43  N   UNL     1      -8.205   5.225   7.599  0.00  0.00    +0.000 N 
ATOM     44  C   UNL     1      -9.530   5.714   7.111  0.00  0.00    +0.000 C 
ATOM     45  C   UNL     1     -10.101   5.712   5.655  0.00  0.00    +0.000 C 
ATOM     46  O   UNL     1      -9.634   5.312   4.452  0.00  0.00    +0.000 OA
ATOM     47  C   UNL     1      -8.435   4.877   4.890  0.00  0.00    +0.000 C 
ATOM     48  C   UNL     1      -7.698   4.793   6.262  0.00  0.00    +0.000 C 
ENDBRANCH  42  43
ENDBRANCH  41  42
ENDBRANCH  39  40
ENDBRANCH  35  39
ENDBRANCH  26  27
ENDBRANCH   7  26
TORSDOF 11
ENDMDL
