MODEL 1
REMARK VINA RESULT:      -4.3      0.000      0.000
REMARK  Name = 
REMARK  7 active torsions:
REMARK  status: ('A' for Active; 'I' for Inactive)
REMARK    1  A    between atoms: S_1  and  O_3
REMARK    2  A    between atoms: S_1  and  O_6
REMARK    3  A    between atoms: O_3  and  C_9
REMARK    4  A    between atoms: O_4  and  C_10
REMARK    5  A    between atoms: O_5  and  C_11
REMARK    6  A    between atoms: C_12  and  C_14
REMARK    7  A    between atoms: C_13  and  C_15
REMARK                            x       y       z     vdW  Elec       q    Type
REMARK                         _______ _______ _______ _____ _____    ______ ____
ROOT
ATOM      1  O   UNL     1     -14.648   5.549  18.861  0.00  0.00    +0.000 OA
ATOM      2  C   UNL     1     -14.708   4.094  16.888  0.00  0.00    +0.000 C 
ATOM      3  C   UNL     1     -13.200   3.851  17.040  0.00  0.00    +0.000 C 
ATOM      4  C   UNL     1     -12.523   5.023  17.766  0.00  0.00    +0.000 C 
ATOM      5  C   UNL     1     -15.310   4.425  18.266  0.00  0.00    +0.000 C 
ATOM      6  C   UNL     1     -13.249   5.321  19.084  0.00  0.00    +0.000 C 
ATOM      7  C   UNL     1     -16.792   4.771  18.174  0.00  0.00    +0.000 C 
ATOM      8  C   UNL     1     -12.685   6.563  19.765  0.00  0.00    +0.000 C 
ENDROOT
BRANCH   3   9
ATOM      9  O   UNL     1     -12.530   3.669  15.783  0.00  0.00    +0.000 OA
ATOM     10  H   UNL     1     -12.263   2.730  15.696  0.00  0.00    +0.000 HD
ENDBRANCH   3   9
BRANCH   4  11
ATOM     11  O   UNL     1     -11.152   4.686  18.001  0.00  0.00    +0.000 OA
ATOM     12  H   UNL     1     -10.809   4.404  17.128  0.00  0.00    +0.000 HD
ENDBRANCH   4  11
BRANCH   2  13
ATOM     13  O   UNL     1     -14.928   5.187  15.994  0.00  0.00    +0.000 OA
BRANCH  13  14
ATOM     14  S   UNL     1     -15.648   4.892  14.573  0.00  0.00    +0.000 S 
ATOM     15  O   UNL     1     -16.383   3.654  14.687  0.00  0.00    +0.000 OA
ATOM     16  O   UNL     1     -16.253   6.115  14.091  0.00  0.00    +0.000 OA
BRANCH  14  17
ATOM     17  O   UNL     1     -14.389   4.559  13.629  0.00  0.00    +0.000 OA
ATOM     18  H   UNL     1     -13.940   5.410  13.440  0.00  0.00    +0.000 HD
ENDBRANCH  14  17
ENDBRANCH  13  14
ENDBRANCH   2  13
TORSDOF 5
ENDMDL
MODEL 2
REMARK VINA RESULT:      -4.3      2.074      4.360
REMARK  Name = 
REMARK  7 active torsions:
REMARK  status: ('A' for Active; 'I' for Inactive)
REMARK    1  A    between atoms: S_1  and  O_3
REMARK    2  A    between atoms: S_1  and  O_6
REMARK    3  A    between atoms: O_3  and  C_9
REMARK    4  A    between atoms: O_4  and  C_10
REMARK    5  A    between atoms: O_5  and  C_11
REMARK    6  A    between atoms: C_12  and  C_14
REMARK    7  A    between atoms: C_13  and  C_15
REMARK                            x       y       z     vdW  Elec       q    Type
REMARK                         _______ _______ _______ _____ _____    ______ ____
ROOT
ATOM      1  O   UNL     1     -16.391   5.123  17.625  0.00  0.00    +0.000 OA
ATOM      2  C   UNL     1     -14.118   5.386  16.746  0.00  0.00    +0.000 C 
ATOM      3  C   UNL     1     -14.638   5.046  15.342  0.00  0.00    +0.000 C 
ATOM      4  C   UNL     1     -15.906   4.184  15.416  0.00  0.00    +0.000 C 
ATOM      5  C   UNL     1     -15.260   6.002  17.574  0.00  0.00    +0.000 C 
ATOM      6  C   UNL     1     -16.945   4.848  16.330  0.00  0.00    +0.000 C 
ATOM      7  C   UNL     1     -14.838   6.277  19.013  0.00  0.00    +0.000 C 
ATOM      8  C   UNL     1     -18.164   3.954  16.532  0.00  0.00    +0.000 C 
ENDROOT
BRANCH   3   9
ATOM      9  O   UNL     1     -13.676   4.342  14.541  0.00  0.00    +0.000 OA
ATOM     10  H   UNL     1     -12.809   4.354  14.998  0.00  0.00    +0.000 HD
ENDBRANCH   3   9
BRANCH   4  11
ATOM     11  O   UNL     1     -16.422   4.012  14.093  0.00  0.00    +0.000 OA
ATOM     12  H   UNL     1     -17.275   4.493  14.092  0.00  0.00    +0.000 HD
ENDBRANCH   4  11
BRANCH   2  13
ATOM     13  O   UNL     1     -13.651   4.195  17.383  0.00  0.00    +0.000 OA
BRANCH  13  14
ATOM     14  S   UNL     1     -12.057   4.012  17.610  0.00  0.00    +0.000 S 
ATOM     15  O   UNL     1     -11.434   5.311  17.511  0.00  0.00    +0.000 OA
ATOM     16  O   UNL     1     -11.843   3.130  18.736  0.00  0.00    +0.000 OA
BRANCH  14  17
ATOM     17  O   UNL     1     -11.624   3.224  16.277  0.00  0.00    +0.000 OA
ATOM     18  H   UNL     1     -10.960   3.780  15.818  0.00  0.00    +0.000 HD
ENDBRANCH  14  17
ENDBRANCH  13  14
ENDBRANCH   2  13
TORSDOF 5
ENDMDL
MODEL 3
REMARK VINA RESULT:      -4.2      2.735      3.708
REMARK  Name = 
REMARK  7 active torsions:
REMARK  status: ('A' for Active; 'I' for Inactive)
REMARK    1  A    between atoms: S_1  and  O_3
REMARK    2  A    between atoms: S_1  and  O_6
REMARK    3  A    between atoms: O_3  and  C_9
REMARK    4  A    between atoms: O_4  and  C_10
REMARK    5  A    between atoms: O_5  and  C_11
REMARK    6  A    between atoms: C_12  and  C_14
REMARK    7  A    between atoms: C_13  and  C_15
REMARK                            x       y       z     vdW  Elec       q    Type
REMARK                         _______ _______ _______ _____ _____    ______ ____
ROOT
ATOM      1  O   UNL     1     -14.496   7.403  16.557  0.00  0.00    +0.000 OA
ATOM      2  C   UNL     1     -14.468   5.018  15.988  0.00  0.00    +0.000 C 
ATOM      3  C   UNL     1     -14.164   5.386  14.529  0.00  0.00    +0.000 C 
ATOM      4  C   UNL     1     -14.684   6.792  14.194  0.00  0.00    +0.000 C 
ATOM      5  C   UNL     1     -13.939   6.131  16.912  0.00  0.00    +0.000 C 
ATOM      6  C   UNL     1     -14.164   7.807  15.221  0.00  0.00    +0.000 C 
ATOM      7  C   UNL     1     -14.290   5.875  18.373  0.00  0.00    +0.000 C 
ATOM      8  C   UNL     1     -14.768   9.189  14.996  0.00  0.00    +0.000 C 
ENDROOT
BRANCH   3   9
ATOM      9  O   UNL     1     -14.742   4.470  13.587  0.00  0.00    +0.000 OA
ATOM     10  H   UNL     1     -15.086   3.689  14.068  0.00  0.00    +0.000 HD
ENDBRANCH   3   9
BRANCH   4  11
ATOM     11  O   UNL     1     -14.257   7.136  12.872  0.00  0.00    +0.000 OA
ATOM     12  H   UNL     1     -13.924   6.298  12.490  0.00  0.00    +0.000 HD
ENDBRANCH   4  11
BRANCH   2  13
ATOM     13  O   UNL     1     -15.880   4.882  16.162  0.00  0.00    +0.000 OA
BRANCH  13  14
ATOM     14  S   UNL     1     -16.498   3.394  16.330  0.00  0.00    +0.000 S 
ATOM     15  O   UNL     1     -17.519   3.440  17.350  0.00  0.00    +0.000 OA
ATOM     16  O   UNL     1     -16.735   2.834  15.017  0.00  0.00    +0.000 OA
BRANCH  14  17
ATOM     17  O   UNL     1     -15.266   2.598  16.990  0.00  0.00    +0.000 OA
ATOM     18  H   UNL     1     -15.587   1.697  17.202  0.00  0.00    +0.000 HD
ENDBRANCH  14  17
ENDBRANCH  13  14
ENDBRANCH   2  13
TORSDOF 5
ENDMDL
MODEL 4
REMARK VINA RESULT:      -4.0     12.291     13.613
REMARK  Name = 
REMARK  7 active torsions:
REMARK  status: ('A' for Active; 'I' for Inactive)
REMARK    1  A    between atoms: S_1  and  O_3
REMARK    2  A    between atoms: S_1  and  O_6
REMARK    3  A    between atoms: O_3  and  C_9
REMARK    4  A    between atoms: O_4  and  C_10
REMARK    5  A    between atoms: O_5  and  C_11
REMARK    6  A    between atoms: C_12  and  C_14
REMARK    7  A    between atoms: C_13  and  C_15
REMARK                            x       y       z     vdW  Elec       q    Type
REMARK                         _______ _______ _______ _____ _____    ______ ____
ROOT
ATOM      1  O   UNL     1      -8.705   7.780   6.736  0.00  0.00    +0.000 OA
ATOM      2  C   UNL     1      -9.066   6.519   4.664  0.00  0.00    +0.000 C 
ATOM      3  C   UNL     1      -8.584   5.246   5.373  0.00  0.00    +0.000 C 
ATOM      4  C   UNL     1      -7.639   5.585   6.535  0.00  0.00    +0.000 C 
ATOM      5  C   UNL     1      -9.658   7.486   5.707  0.00  0.00    +0.000 C 
ATOM      6  C   UNL     1      -8.293   6.615   7.466  0.00  0.00    +0.000 C 
ATOM      7  C   UNL     1     -10.071   8.814   5.083  0.00  0.00    +0.000 C 
ATOM      8  C   UNL     1      -7.331   7.073   8.556  0.00  0.00    +0.000 C 
ENDROOT
BRANCH   3   9
ATOM      9  O   UNL     1      -7.893   4.342   4.497  0.00  0.00    +0.000 OA
ATOM     10  H   UNL     1      -8.412   3.514   4.417  0.00  0.00    +0.000 HD
ENDBRANCH   3   9
BRANCH   4  11
ATOM     11  O   UNL     1      -7.331   4.379   7.242  0.00  0.00    +0.000 OA
ATOM     12  H   UNL     1      -7.717   3.663   6.697  0.00  0.00    +0.000 HD
ENDBRANCH   4  11
BRANCH   2  13
ATOM     13  O   UNL     1      -7.964   7.143   4.002  0.00  0.00    +0.000 OA
BRANCH  13  14
ATOM     14  S   UNL     1      -7.737   6.843   2.426  0.00  0.00    +0.000 S 
ATOM     15  O   UNL     1      -7.891   8.083   1.703  0.00  0.00    +0.000 OA
ATOM     16  O   UNL     1      -6.578   5.991   2.273  0.00  0.00    +0.000 OA
BRANCH  14  17
ATOM     17  O   UNL     1      -9.040   5.971   2.068  0.00  0.00    +0.000 OA
ATOM     18  H   UNL     1      -8.729   5.070   1.841  0.00  0.00    +0.000 HD
ENDBRANCH  14  17
ENDBRANCH  13  14
ENDBRANCH   2  13
TORSDOF 5
ENDMDL
MODEL 5
REMARK VINA RESULT:      -3.5      2.748      3.542
REMARK  Name = 
REMARK  7 active torsions:
REMARK  status: ('A' for Active; 'I' for Inactive)
REMARK    1  A    between atoms: S_1  and  O_3
REMARK    2  A    between atoms: S_1  and  O_6
REMARK    3  A    between atoms: O_3  and  C_9
REMARK    4  A    between atoms: O_4  and  C_10
REMARK    5  A    between atoms: O_5  and  C_11
REMARK    6  A    between atoms: C_12  and  C_14
REMARK    7  A    between atoms: C_13  and  C_15
REMARK                            x       y       z     vdW  Elec       q    Type
REMARK                         _______ _______ _______ _____ _____    ______ ____
ROOT
ATOM      1  O   UNL     1     -14.588   7.401  16.837  0.00  0.00    +0.000 OA
ATOM      2  C   UNL     1     -14.957   5.372  15.511  0.00  0.00    +0.000 C 
ATOM      3  C   UNL     1     -14.328   6.070  14.297  0.00  0.00    +0.000 C 
ATOM      4  C   UNL     1     -14.476   7.595  14.399  0.00  0.00    +0.000 C 
ATOM      5  C   UNL     1     -14.381   5.983  16.801  0.00  0.00    +0.000 C 
ATOM      6  C   UNL     1     -13.947   8.088  15.753  0.00  0.00    +0.000 C 
ATOM      7  C   UNL     1     -15.032   5.400  18.050  0.00  0.00    +0.000 C 
ATOM      8  C   UNL     1     -14.200   9.579  15.942  0.00  0.00    +0.000 C 
ENDROOT
BRANCH   3   9
ATOM      9  O   UNL     1     -14.907   5.657  13.049  0.00  0.00    +0.000 OA
ATOM     10  H   UNL     1     -15.417   4.832  13.190  0.00  0.00    +0.000 HD
ENDBRANCH   3   9
BRANCH   4  11
ATOM     11  O   UNL     1     -13.758   8.198  13.318  0.00  0.00    +0.000 OA
ATOM     12  H   UNL     1     -13.745   7.518  12.614  0.00  0.00    +0.000 HD
ENDBRANCH   4  11
BRANCH   2  13
ATOM     13  O   UNL     1     -16.374   5.554  15.485  0.00  0.00    +0.000 OA
BRANCH  13  14
ATOM     14  S   UNL     1     -17.299   4.349  14.920  0.00  0.00    +0.000 S 
ATOM     15  O   UNL     1     -16.437   3.251  14.552  0.00  0.00    +0.000 OA
ATOM     16  O   UNL     1     -18.440   4.184  15.794  0.00  0.00    +0.000 OA
BRANCH  14  17
ATOM     17  O   UNL     1     -17.827   4.966  13.531  0.00  0.00    +0.000 OA
ATOM     18  H   UNL     1     -17.072   5.437  13.121  0.00  0.00    +0.000 HD
ENDBRANCH  14  17
ENDBRANCH  13  14
ENDBRANCH   2  13
TORSDOF 5
ENDMDL
MODEL 6
REMARK VINA RESULT:      -3.3      9.658     11.926
REMARK  Name = 
REMARK  7 active torsions:
REMARK  status: ('A' for Active; 'I' for Inactive)
REMARK    1  A    between atoms: S_1  and  O_3
REMARK    2  A    between atoms: S_1  and  O_6
REMARK    3  A    between atoms: O_3  and  C_9
REMARK    4  A    between atoms: O_4  and  C_10
REMARK    5  A    between atoms: O_5  and  C_11
REMARK    6  A    between atoms: C_12  and  C_14
REMARK    7  A    between atoms: C_13  and  C_15
REMARK                            x       y       z     vdW  Elec       q    Type
REMARK                         _______ _______ _______ _____ _____    ______ ____
ROOT
ATOM      1  O   UNL     1      -4.102  10.162  15.803  0.00  0.00    +0.000 OA
ATOM      2  C   UNL     1      -3.076   8.185  16.829  0.00  0.00    +0.000 C 
ATOM      3  C   UNL     1      -4.133   7.303  16.150  0.00  0.00    +0.000 C 
ATOM      4  C   UNL     1      -5.417   8.097  15.869  0.00  0.00    +0.000 C 
ATOM      5  C   UNL     1      -2.866   9.460  15.991  0.00  0.00    +0.000 C 
ATOM      6  C   UNL     1      -5.085   9.386  15.103  0.00  0.00    +0.000 C 
ATOM      7  C   UNL     1      -1.896  10.428  16.658  0.00  0.00    +0.000 C 
ATOM      8  C   UNL     1      -6.319  10.262  14.924  0.00  0.00    +0.000 C 
ENDROOT
BRANCH   3   9
ATOM      9  O   UNL     1      -4.492   6.154  16.932  0.00  0.00    +0.000 OA
ATOM     10  H   UNL     1      -4.804   6.450  17.813  0.00  0.00    +0.000 HD
ENDBRANCH   3   9
BRANCH   4  11
ATOM     11  O   UNL     1      -6.312   7.271  15.118  0.00  0.00    +0.000 OA
ATOM     12  H   UNL     1      -7.114   7.199  15.674  0.00  0.00    +0.000 HD
ENDBRANCH   4  11
BRANCH   2  13
ATOM     13  O   UNL     1      -3.520   8.540  18.140  0.00  0.00    +0.000 OA
BRANCH  13  14
ATOM     14  S   UNL     1      -2.948   7.703  19.404  0.00  0.00    +0.000 S 
ATOM     15  O   UNL     1      -2.043   6.694  18.907  0.00  0.00    +0.000 OA
ATOM     16  O   UNL     1      -2.580   8.631  20.452  0.00  0.00    +0.000 OA
BRANCH  14  17
ATOM     17  O   UNL     1      -4.258   6.906  19.889  0.00  0.00    +0.000 OA
ATOM     18  H   UNL     1      -4.935   7.014  19.189  0.00  0.00    +0.000 HD
ENDBRANCH  14  17
ENDBRANCH  13  14
ENDBRANCH   2  13
TORSDOF 5
ENDMDL
MODEL 7
REMARK VINA RESULT:      -2.8      8.383      9.745
REMARK  Name = 
REMARK  7 active torsions:
REMARK  status: ('A' for Active; 'I' for Inactive)
REMARK    1  A    between atoms: S_1  and  O_3
REMARK    2  A    between atoms: S_1  and  O_6
REMARK    3  A    between atoms: O_3  and  C_9
REMARK    4  A    between atoms: O_4  and  C_10
REMARK    5  A    between atoms: O_5  and  C_11
REMARK    6  A    between atoms: C_12  and  C_14
REMARK    7  A    between atoms: C_13  and  C_15
REMARK                            x       y       z     vdW  Elec       q    Type
REMARK                         _______ _______ _______ _____ _____    ______ ____
ROOT
ATOM      1  O   UNL     1      -4.235   9.990  15.240  0.00  0.00    +0.000 OA
ATOM      2  C   UNL     1      -6.628   9.484  15.070  0.00  0.00    +0.000 C 
ATOM      3  C   UNL     1      -6.404   8.217  15.908  0.00  0.00    +0.000 C 
ATOM      4  C   UNL     1      -4.960   7.712  15.771  0.00  0.00    +0.000 C 
ATOM      5  C   UNL     1      -5.551  10.525  15.428  0.00  0.00    +0.000 C 
ATOM      6  C   UNL     1      -3.971   8.848  16.068  0.00  0.00    +0.000 C 
ATOM      7  C   UNL     1      -5.658  11.775  14.563  0.00  0.00    +0.000 C 
ATOM      8  C   UNL     1      -2.532   8.418  15.811  0.00  0.00    +0.000 C 
ENDROOT
BRANCH   3   9
ATOM      9  O   UNL     1      -7.280   7.140  15.544  0.00  0.00    +0.000 OA
ATOM     10  H   UNL     1      -7.082   6.362  16.106  0.00  0.00    +0.000 HD
ENDBRANCH   3   9
BRANCH   4  11
ATOM     11  O   UNL     1      -4.769   6.617  16.672  0.00  0.00    +0.000 OA
ATOM     12  H   UNL     1      -5.102   6.941  17.535  0.00  0.00    +0.000 HD
ENDBRANCH   4  11
BRANCH   2  13
ATOM     13  O   UNL     1      -6.539   9.159  13.681  0.00  0.00    +0.000 OA
BRANCH  13  14
ATOM     14  S   UNL     1      -7.900   9.142  12.802  0.00  0.00    +0.000 S 
ATOM     15  O   UNL     1      -8.617   7.925  13.102  0.00  0.00    +0.000 OA
ATOM     16  O   UNL     1      -8.519  10.448  12.871  0.00  0.00    +0.000 OA
BRANCH  14  17
ATOM     17  O   UNL     1      -7.326   8.947  11.313  0.00  0.00    +0.000 OA
ATOM     18  H   UNL     1      -8.044   9.192  10.693  0.00  0.00    +0.000 HD
ENDBRANCH  14  17
ENDBRANCH  13  14
ENDBRANCH   2  13
TORSDOF 5
ENDMDL
MODEL 8
REMARK VINA RESULT:      -2.8     27.130     28.845
REMARK  Name = 
REMARK  7 active torsions:
REMARK  status: ('A' for Active; 'I' for Inactive)
REMARK    1  A    between atoms: S_1  and  O_3
REMARK    2  A    between atoms: S_1  and  O_6
REMARK    3  A    between atoms: O_3  and  C_9
REMARK    4  A    between atoms: O_4  and  C_10
REMARK    5  A    between atoms: O_5  and  C_11
REMARK    6  A    between atoms: C_12  and  C_14
REMARK    7  A    between atoms: C_13  and  C_15
REMARK                            x       y       z     vdW  Elec       q    Type
REMARK                         _______ _______ _______ _____ _____    ______ ____
ROOT
ATOM      1  O   UNL     1       8.966  -0.922   3.020  0.00  0.00    +0.000 OA
ATOM      2  C   UNL     1      10.184  -3.039   2.807  0.00  0.00    +0.000 C 
ATOM      3  C   UNL     1       9.138  -3.521   1.791  0.00  0.00    +0.000 C 
ATOM      4  C   UNL     1       7.791  -2.818   2.011  0.00  0.00    +0.000 C 
ATOM      5  C   UNL     1      10.253  -1.501   2.772  0.00  0.00    +0.000 C 
ATOM      6  C   UNL     1       7.986  -1.296   2.040  0.00  0.00    +0.000 C 
ATOM      7  C   UNL     1      11.207  -0.949   3.825  0.00  0.00    +0.000 C 
ATOM      8  C   UNL     1       6.690  -0.572   2.389  0.00  0.00    +0.000 C 
ENDROOT
BRANCH   3   9
ATOM      9  O   UNL     1       8.907  -4.937   1.850  0.00  0.00    +0.000 OA
ATOM     10  H   UNL     1       9.672  -5.368   2.285  0.00  0.00    +0.000 HD
ENDBRANCH   3   9
BRANCH   4  11
ATOM     11  O   UNL     1       6.898  -3.199   0.959  0.00  0.00    +0.000 OA
ATOM     12  H   UNL     1       7.091  -4.145   0.796  0.00  0.00    +0.000 HD
ENDBRANCH   4  11
BRANCH   2  13
ATOM     13  O   UNL     1       9.812  -3.473   4.117  0.00  0.00    +0.000 OA
BRANCH  13  14
ATOM     14  S   UNL     1      10.740  -4.574   4.860  0.00  0.00    +0.000 S 
ATOM     15  O   UNL     1      12.103  -4.386   4.422  0.00  0.00    +0.000 OA
ATOM     16  O   UNL     1      10.372  -4.630   6.258  0.00  0.00    +0.000 OA
BRANCH  14  17
ATOM     17  O   UNL     1      10.250  -5.939   4.165  0.00  0.00    +0.000 OA
ATOM     18  H   UNL     1      10.957  -6.603   4.307  0.00  0.00    +0.000 HD
ENDBRANCH  14  17
ENDBRANCH  13  14
ENDBRANCH   2  13
TORSDOF 5
ENDMDL
MODEL 9
REMARK VINA RESULT:      -2.7     26.662     28.004
REMARK  Name = 
REMARK  7 active torsions:
REMARK  status: ('A' for Active; 'I' for Inactive)
REMARK    1  A    between atoms: S_1  and  O_3
REMARK    2  A    between atoms: S_1  and  O_6
REMARK    3  A    between atoms: O_3  and  C_9
REMARK    4  A    between atoms: O_4  and  C_10
REMARK    5  A    between atoms: O_5  and  C_11
REMARK    6  A    between atoms: C_12  and  C_14
REMARK    7  A    between atoms: C_13  and  C_15
REMARK                            x       y       z     vdW  Elec       q    Type
REMARK                         _______ _______ _______ _____ _____    ______ ____
ROOT
ATOM      1  O   UNL     1       8.441  -1.310   2.961  0.00  0.00    +0.000 OA
ATOM      2  C   UNL     1       6.866  -2.076   1.245  0.00  0.00    +0.000 C 
ATOM      3  C   UNL     1       7.395  -3.507   1.420  0.00  0.00    +0.000 C 
ATOM      4  C   UNL     1       8.838  -3.502   1.945  0.00  0.00    +0.000 C 
ATOM      5  C   UNL     1       7.066  -1.297   2.558  0.00  0.00    +0.000 C 
ATOM      6  C   UNL     1       8.940  -2.633   3.205  0.00  0.00    +0.000 C 
ATOM      7  C   UNL     1       6.648   0.163   2.425  0.00  0.00    +0.000 C 
ATOM      8  C   UNL     1      10.384  -2.498   3.675  0.00  0.00    +0.000 C 
ENDROOT
BRANCH   3   9
ATOM      9  O   UNL     1       7.374  -4.267   0.203  0.00  0.00    +0.000 OA
ATOM     10  H   UNL     1       7.420  -5.221   0.420  0.00  0.00    +0.000 HD
ENDBRANCH   3   9
BRANCH   4  11
ATOM     11  O   UNL     1       9.231  -4.850   2.219  0.00  0.00    +0.000 OA
ATOM     12  H   UNL     1       9.970  -4.772   2.855  0.00  0.00    +0.000 HD
ENDBRANCH   4  11
BRANCH   2  13
ATOM     13  O   UNL     1       7.582  -1.429   0.190  0.00  0.00    +0.000 OA
BRANCH  13  14
ATOM     14  S   UNL     1       6.807  -1.130  -1.201  0.00  0.00    +0.000 S 
ATOM     15  O   UNL     1       6.866  -2.321  -2.017  0.00  0.00    +0.000 OA
ATOM     16  O   UNL     1       5.565  -0.448  -0.909  0.00  0.00    +0.000 OA
BRANCH  14  17
ATOM     17  O   UNL     1       7.795  -0.076  -1.907  0.00  0.00    +0.000 OA
ATOM     18  H   UNL     1       8.707  -0.415  -1.791  0.00  0.00    +0.000 HD
ENDBRANCH  14  17
ENDBRANCH  13  14
ENDBRANCH   2  13
TORSDOF 5
ENDMDL
