MODEL 1
REMARK VINA RESULT:      -5.9      0.000      0.000
REMARK  Name = Fulvestrant.pdbqt.pdb
REMARK  12 active torsions:
REMARK  status: ('A' for Active; 'I' for Inactive)
REMARK    1  A    between atoms: C_6  and  O_40
REMARK    2  A    between atoms: C_8  and  C_19
REMARK    3  A    between atoms: C_18  and  O_42
REMARK    4  A    between atoms: C_20  and  C_21
REMARK    5  A    between atoms: C_22  and  C_23
REMARK    6  A    between atoms: C_23  and  C_24
REMARK    7  A    between atoms: C_25  and  C_26
REMARK    8  A    between atoms: C_27  and  S_28
REMARK    9  A    between atoms: S_28  and  C_30
REMARK   10  A    between atoms: C_30  and  C_31
REMARK   11  A    between atoms: C_32  and  C_33
REMARK   12  A    between atoms: C_33  and  C_36
REMARK                            x       y       z     vdW  Elec       q    Type
REMARK                         _______ _______ _______ _____ _____    ______ ____
ROOT
ATOM      1  C   UNL     1       9.233 -14.126  12.151  0.00  0.00    +0.000 C 
ATOM      2  C   UNL     1      10.792 -14.320  12.477  0.00  0.00    +0.000 C 
ATOM      3  C   UNL     1       8.610 -12.803  11.823  0.00  0.00    +0.000 A 
ATOM      4  C   UNL     1       9.466 -11.601  11.371  0.00  0.00    +0.000 A 
ATOM      5  C   UNL     1      11.463 -13.155  11.913  0.00  0.00    +0.000 C 
ATOM      6  C   UNL     1      11.134 -15.639  11.750  0.00  0.00    +0.000 C 
ATOM      7  C   UNL     1       8.811 -15.301  11.448  0.00  0.00    +0.000 C 
ATOM      8  C   UNL     1       7.141 -12.585  11.896  0.00  0.00    +0.000 A 
ATOM      9  C   UNL     1      10.853 -11.878  11.404  0.00  0.00    +0.000 C 
ATOM     10  C   UNL     1       9.972 -16.222  11.176  0.00  0.00    +0.000 C 
ATOM     11  C   UNL     1      10.964 -14.478  14.009  0.00  0.00    +0.000 C 
ATOM     12  C   UNL     1       8.893 -10.279  10.993  0.00  0.00    +0.000 A 
ATOM     13  C   UNL     1       6.799 -11.273  11.490  0.00  0.00    +0.000 A 
ATOM     14  C   UNL     1       7.489 -10.112  11.056  0.00  0.00    +0.000 A 
ATOM     15  C   UNL     1       9.677  -9.202  10.585  0.00  0.00    +0.000 A 
ATOM     16  C   UNL     1       6.872  -8.917  10.726  0.00  0.00    +0.000 A 
ATOM     17  C   UNL     1       9.070  -7.991  10.248  0.00  0.00    +0.000 A 
ATOM     18  C   UNL     1       7.682  -7.860  10.322  0.00  0.00    +0.000 A 
ENDROOT
BRANCH   8  19
ATOM     19  C   UNL     1       6.238 -13.509  12.475  0.00  0.00    +0.000 C 
ATOM     20  C   UNL     1       5.266 -14.502  13.121  0.00  0.00    +0.000 C 
BRANCH  20  21
ATOM     21  C   UNL     1       4.303 -15.484  13.793  0.00  0.00    +0.000 C 
ATOM     22  C   UNL     1       3.324 -16.442  14.479  0.00  0.00    +0.000 C 
BRANCH  22  23
ATOM     23  C   UNL     1       2.333 -17.373  15.184  0.00  0.00    +0.000 C 
BRANCH  23  24
ATOM     24  C   UNL     1       1.317 -18.278  15.888  0.00  0.00    +0.000 C 
ATOM     25  C   UNL     1       0.311 -19.168  16.623  0.00  0.00    +0.000 C 
BRANCH  25  26
ATOM     26  C   UNL     1      -0.683 -20.047  17.390  0.00  0.00    +0.000 C 
ATOM     27  C   UNL     1      -1.659 -20.956  18.145  0.00  0.00    +0.000 C 
BRANCH  27  28
ATOM     28  S   UNL     1      -2.765 -22.028  18.997  0.00  0.00    +0.000 S 
ATOM     29  O   UNL     1      -2.250 -21.588  20.336  0.00  0.00    +0.000 OA
BRANCH  28  30
ATOM     30  C   UNL     1      -4.065 -20.841  19.037  0.00  0.00    +0.000 C 
BRANCH  30  31
ATOM     31  C   UNL     1      -5.188 -19.800  19.094  0.00  0.00    +0.000 C 
ATOM     32  C   UNL     1      -6.324 -18.772  19.145  0.00  0.00    +0.000 C 
BRANCH  32  33
ATOM     33  C   UNL     1      -7.415 -17.795  19.189  0.00  0.00    +0.000 C 
ATOM     34  F   UNL     1      -8.073 -17.955  20.372  0.00  0.00    +0.000 F 
ATOM     35  F   UNL     1      -8.310 -18.126  18.217  0.00  0.00    +0.000 F 
BRANCH  33  36
ATOM     36  C   UNL     1      -6.941 -16.348  19.022  0.00  0.00    +0.000 C 
ATOM     37  F   UNL     1      -7.595 -15.498  19.855  0.00  0.00    +0.000 F 
ATOM     38  F   UNL     1      -7.133 -15.889  17.760  0.00  0.00    +0.000 F 
ATOM     39  F   UNL     1      -5.617 -16.217  19.290  0.00  0.00    +0.000 F 
ENDBRANCH  33  36
ENDBRANCH  32  33
ENDBRANCH  30  31
ENDBRANCH  28  30
ENDBRANCH  27  28
ENDBRANCH  25  26
ENDBRANCH  23  24
ENDBRANCH  22  23
ENDBRANCH  20  21
ENDBRANCH   8  19
BRANCH   6  40
ATOM     40  O   UNL     1      12.404 -15.936  11.301  0.00  0.00    +0.000 OA
ATOM     41  H   UNL     1      12.717 -15.287  10.645  0.00  0.00    +0.000 HD
ENDBRANCH   6  40
BRANCH  18  42
ATOM     42  O   UNL     1       7.132  -6.656   9.983  0.00  0.00    +0.000 OA
ATOM     43  H   UNL     1       7.823  -6.108   9.571  0.00  0.00    +0.000 HD
ENDBRANCH  18  42
TORSDOF 12
ENDMDL
MODEL 2
REMARK VINA RESULT:      -5.8      3.657      4.347
REMARK  Name = Fulvestrant.pdbqt.pdb
REMARK  12 active torsions:
REMARK  status: ('A' for Active; 'I' for Inactive)
REMARK    1  A    between atoms: C_6  and  O_40
REMARK    2  A    between atoms: C_8  and  C_19
REMARK    3  A    between atoms: C_18  and  O_42
REMARK    4  A    between atoms: C_20  and  C_21
REMARK    5  A    between atoms: C_22  and  C_23
REMARK    6  A    between atoms: C_23  and  C_24
REMARK    7  A    between atoms: C_25  and  C_26
REMARK    8  A    between atoms: C_27  and  S_28
REMARK    9  A    between atoms: S_28  and  C_30
REMARK   10  A    between atoms: C_30  and  C_31
REMARK   11  A    between atoms: C_32  and  C_33
REMARK   12  A    between atoms: C_33  and  C_36
REMARK                            x       y       z     vdW  Elec       q    Type
REMARK                         _______ _______ _______ _____ _____    ______ ____
ROOT
ATOM      1  C   UNL     1       6.253 -12.446  12.557  0.00  0.00    +0.000 C 
ATOM      2  C   UNL     1       7.590 -13.187  12.070  0.00  0.00    +0.000 C 
ATOM      3  C   UNL     1       6.055 -10.962  12.496  0.00  0.00    +0.000 A 
ATOM      4  C   UNL     1       6.935 -10.070  11.596  0.00  0.00    +0.000 A 
ATOM      5  C   UNL     1       8.254 -12.254  11.166  0.00  0.00    +0.000 C 
ATOM      6  C   UNL     1       7.046 -14.447  11.360  0.00  0.00    +0.000 C 
ATOM      7  C   UNL     1       5.162 -13.319  12.242  0.00  0.00    +0.000 C 
ATOM      8  C   UNL     1       4.995 -10.276  13.282  0.00  0.00    +0.000 A 
ATOM      9  C   UNL     1       7.962 -10.796  10.947  0.00  0.00    +0.000 C 
ATOM     10  C   UNL     1       5.633 -14.535  11.489  0.00  0.00    +0.000 C 
ATOM     11  C   UNL     1       8.425 -13.577  13.316  0.00  0.00    +0.000 C 
ATOM     12  C   UNL     1       6.753  -8.596  11.467  0.00  0.00    +0.000 A 
ATOM     13  C   UNL     1       4.980  -8.886  13.014  0.00  0.00    +0.000 A 
ATOM     14  C   UNL     1       5.722  -7.980  12.214  0.00  0.00    +0.000 A 
ATOM     15  C   UNL     1       7.553  -7.803  10.648  0.00  0.00    +0.000 A 
ATOM     16  C   UNL     1       5.483  -6.616  12.158  0.00  0.00    +0.000 A 
ATOM     17  C   UNL     1       7.324  -6.427  10.580  0.00  0.00    +0.000 A 
ATOM     18  C   UNL     1       6.299  -5.850  11.331  0.00  0.00    +0.000 A 
ENDROOT
BRANCH   8  19
ATOM     19  C   UNL     1       4.237 -10.908  14.296  0.00  0.00    +0.000 C 
ATOM     20  C   UNL     1       3.426 -11.612  15.389  0.00  0.00    +0.000 C 
BRANCH  20  21
ATOM     21  C   UNL     1       2.627 -12.340  16.473  0.00  0.00    +0.000 C 
ATOM     22  C   UNL     1       1.854 -13.084  17.566  0.00  0.00    +0.000 C 
BRANCH  22  23
ATOM     23  C   UNL     1       1.109 -13.846  18.667  0.00  0.00    +0.000 C 
BRANCH  23  24
ATOM     24  C   UNL     1       0.395 -14.622  19.779  0.00  0.00    +0.000 C 
ATOM     25  C   UNL     1      -0.348 -15.381  20.882  0.00  0.00    +0.000 C 
BRANCH  25  26
ATOM     26  C   UNL     1      -1.121 -16.121  21.979  0.00  0.00    +0.000 C 
ATOM     27  C   UNL     1      -1.883 -16.834  23.100  0.00  0.00    +0.000 C 
BRANCH  27  28
ATOM     28  S   UNL     1      -2.745 -17.631  24.412  0.00  0.00    +0.000 S 
ATOM     29  O   UNL     1      -2.820 -16.363  25.210  0.00  0.00    +0.000 OA
BRANCH  28  30
ATOM     30  C   UNL     1      -4.328 -17.348  23.696  0.00  0.00    +0.000 C 
BRANCH  30  31
ATOM     31  C   UNL     1      -5.701 -17.117  23.054  0.00  0.00    +0.000 C 
ATOM     32  C   UNL     1      -7.066 -16.891  22.395  0.00  0.00    +0.000 C 
BRANCH  32  33
ATOM     33  C   UNL     1      -8.368 -16.677  21.757  0.00  0.00    +0.000 C 
ATOM     34  F   UNL     1      -8.717 -17.829  21.119  0.00  0.00    +0.000 F 
ATOM     35  F   UNL     1      -8.203 -15.743  20.779  0.00  0.00    +0.000 F 
BRANCH  33  36
ATOM     36  C   UNL     1      -9.461 -16.246  22.740  0.00  0.00    +0.000 C 
ATOM     37  F   UNL     1     -10.062 -15.090  22.358  0.00  0.00    +0.000 F 
ATOM     38  F   UNL     1      -8.975 -16.044  23.990  0.00  0.00    +0.000 F 
ATOM     39  F   UNL     1     -10.441 -17.181  22.846  0.00  0.00    +0.000 F 
ENDBRANCH  33  36
ENDBRANCH  32  33
ENDBRANCH  30  31
ENDBRANCH  28  30
ENDBRANCH  27  28
ENDBRANCH  25  26
ENDBRANCH  23  24
ENDBRANCH  22  23
ENDBRANCH  20  21
ENDBRANCH   8  19
BRANCH   6  40
ATOM     40  O   UNL     1       7.735 -15.095  10.357  0.00  0.00    +0.000 OA
ATOM     41  H   UNL     1       7.457 -14.792   9.474  0.00  0.00    +0.000 HD
ENDBRANCH   6  40
BRANCH  18  42
ATOM     42  O   UNL     1       6.113  -4.500  11.233  0.00  0.00    +0.000 OA
ATOM     43  H   UNL     1       6.808  -4.056  11.750  0.00  0.00    +0.000 HD
ENDBRANCH  18  42
TORSDOF 12
ENDMDL
MODEL 3
REMARK VINA RESULT:      -5.7     18.537     21.586
REMARK  Name = Fulvestrant.pdbqt.pdb
REMARK  12 active torsions:
REMARK  status: ('A' for Active; 'I' for Inactive)
REMARK    1  A    between atoms: C_6  and  O_40
REMARK    2  A    between atoms: C_8  and  C_19
REMARK    3  A    between atoms: C_18  and  O_42
REMARK    4  A    between atoms: C_20  and  C_21
REMARK    5  A    between atoms: C_22  and  C_23
REMARK    6  A    between atoms: C_23  and  C_24
REMARK    7  A    between atoms: C_25  and  C_26
REMARK    8  A    between atoms: C_27  and  S_28
REMARK    9  A    between atoms: S_28  and  C_30
REMARK   10  A    between atoms: C_30  and  C_31
REMARK   11  A    between atoms: C_32  and  C_33
REMARK   12  A    between atoms: C_33  and  C_36
REMARK                            x       y       z     vdW  Elec       q    Type
REMARK                         _______ _______ _______ _____ _____    ______ ____
ROOT
ATOM      1  C   UNL     1     -13.474  -9.303   3.175  0.00  0.00    +0.000 C 
ATOM      2  C   UNL     1     -12.431  -8.097   2.998  0.00  0.00    +0.000 C 
ATOM      3  C   UNL     1     -14.839  -9.320   2.557  0.00  0.00    +0.000 A 
ATOM      4  C   UNL     1     -15.201  -8.388   1.382  0.00  0.00    +0.000 A 
ATOM      5  C   UNL     1     -12.859  -7.373   1.806  0.00  0.00    +0.000 C 
ATOM      6  C   UNL     1     -11.083  -8.830   2.821  0.00  0.00    +0.000 C 
ATOM      7  C   UNL     1     -12.702 -10.510   3.218  0.00  0.00    +0.000 C 
ATOM      8  C   UNL     1     -15.905 -10.244   3.029  0.00  0.00    +0.000 A 
ATOM      9  C   UNL     1     -14.154  -7.495   1.052  0.00  0.00    +0.000 C 
ATOM     10  C   UNL     1     -11.241 -10.233   2.979  0.00  0.00    +0.000 C 
ATOM     11  C   UNL     1     -12.428  -7.249   4.296  0.00  0.00    +0.000 C 
ATOM     12  C   UNL     1     -16.529  -8.394   0.706  0.00  0.00    +0.000 A 
ATOM     13  C   UNL     1     -17.082 -10.102   2.254  0.00  0.00    +0.000 A 
ATOM     14  C   UNL     1     -17.514  -9.299   1.168  0.00  0.00    +0.000 A 
ATOM     15  C   UNL     1     -16.843  -7.549  -0.356  0.00  0.00    +0.000 A 
ATOM     16  C   UNL     1     -18.776  -9.371   0.600  0.00  0.00    +0.000 A 
ATOM     17  C   UNL     1     -18.110  -7.610  -0.939  0.00  0.00    +0.000 A 
ATOM     18  C   UNL     1     -19.059  -8.514  -0.458  0.00  0.00    +0.000 A 
ENDROOT
BRANCH   8  19
ATOM     19  C   UNL     1     -15.807 -11.017   4.210  0.00  0.00    +0.000 C 
ATOM     20  C   UNL     1     -15.691 -11.837   5.499  0.00  0.00    +0.000 C 
BRANCH  20  21
ATOM     21  C   UNL     1     -15.558 -12.635   6.799  0.00  0.00    +0.000 C 
ATOM     22  C   UNL     1     -15.415 -13.407   8.114  0.00  0.00    +0.000 C 
BRANCH  22  23
ATOM     23  C   UNL     1     -15.256 -14.152   9.443  0.00  0.00    +0.000 C 
BRANCH  23  24
ATOM     24  C   UNL     1     -15.129 -14.915  10.766  0.00  0.00    +0.000 C 
ATOM     25  C   UNL     1     -15.035 -15.669  12.096  0.00  0.00    +0.000 C 
BRANCH  25  26
ATOM     26  C   UNL     1     -14.974 -16.412  13.435  0.00  0.00    +0.000 C 
ATOM     27  C   UNL     1     -14.933 -17.127  14.788  0.00  0.00    +0.000 C 
BRANCH  27  28
ATOM     28  S   UNL     1     -14.901 -17.922  16.359  0.00  0.00    +0.000 S 
ATOM     29  O   UNL     1     -13.476 -17.518  16.598  0.00  0.00    +0.000 OA
BRANCH  28  30
ATOM     30  C   UNL     1     -15.512 -16.509  17.214  0.00  0.00    +0.000 C 
BRANCH  30  31
ATOM     31  C   UNL     1     -16.051 -15.269  17.937  0.00  0.00    +0.000 C 
ATOM     32  C   UNL     1     -16.578 -14.019  18.650  0.00  0.00    +0.000 C 
BRANCH  32  33
ATOM     33  C   UNL     1     -17.075 -12.819  19.327  0.00  0.00    +0.000 C 
ATOM     34  F   UNL     1     -16.069 -11.899  19.344  0.00  0.00    +0.000 F 
ATOM     35  F   UNL     1     -17.308 -13.143  20.630  0.00  0.00    +0.000 F 
BRANCH  33  36
ATOM     36  C   UNL     1     -18.335 -12.235  18.680  0.00  0.00    +0.000 C 
ATOM     37  F   UNL     1     -18.696 -12.917  17.562  0.00  0.00    +0.000 F 
ATOM     38  F   UNL     1     -18.170 -10.940  18.314  0.00  0.00    +0.000 F 
ATOM     39  F   UNL     1     -19.399 -12.273  19.522  0.00  0.00    +0.000 F 
ENDBRANCH  33  36
ENDBRANCH  32  33
ENDBRANCH  30  31
ENDBRANCH  28  30
ENDBRANCH  27  28
ENDBRANCH  25  26
ENDBRANCH  23  24
ENDBRANCH  22  23
ENDBRANCH  20  21
ENDBRANCH   8  19
BRANCH   6  40
ATOM     40  O   UNL     1     -10.020  -8.282   2.135  0.00  0.00    +0.000 OA
ATOM     41  H   UNL     1      -9.914  -8.681   1.253  0.00  0.00    +0.000 HD
ENDBRANCH   6  40
BRANCH  18  42
ATOM     42  O   UNL     1     -20.285  -8.537  -1.060  0.00  0.00    +0.000 OA
ATOM     43  H   UNL     1     -20.262  -9.191  -1.780  0.00  0.00    +0.000 HD
ENDBRANCH  18  42
TORSDOF 12
ENDMDL
MODEL 4
REMARK VINA RESULT:      -5.5      5.137      6.632
REMARK  Name = Fulvestrant.pdbqt.pdb
REMARK  12 active torsions:
REMARK  status: ('A' for Active; 'I' for Inactive)
REMARK    1  A    between atoms: C_6  and  O_40
REMARK    2  A    between atoms: C_8  and  C_19
REMARK    3  A    between atoms: C_18  and  O_42
REMARK    4  A    between atoms: C_20  and  C_21
REMARK    5  A    between atoms: C_22  and  C_23
REMARK    6  A    between atoms: C_23  and  C_24
REMARK    7  A    between atoms: C_25  and  C_26
REMARK    8  A    between atoms: C_27  and  S_28
REMARK    9  A    between atoms: S_28  and  C_30
REMARK   10  A    between atoms: C_30  and  C_31
REMARK   11  A    between atoms: C_32  and  C_33
REMARK   12  A    between atoms: C_33  and  C_36
REMARK                            x       y       z     vdW  Elec       q    Type
REMARK                         _______ _______ _______ _____ _____    ______ ____
ROOT
ATOM      1  C   UNL     1      11.913 -17.637  10.536  0.00  0.00    +0.000 C 
ATOM      2  C   UNL     1      13.483 -17.418  10.781  0.00  0.00    +0.000 C 
ATOM      3  C   UNL     1      11.265 -17.580   9.185  0.00  0.00    +0.000 A 
ATOM      4  C   UNL     1      12.094 -17.714   7.890  0.00  0.00    +0.000 A 
ATOM      5  C   UNL     1      14.124 -17.666   9.494  0.00  0.00    +0.000 C 
ATOM      6  C   UNL     1      13.817 -18.483  11.849  0.00  0.00    +0.000 C 
ATOM      7  C   UNL     1      11.482 -18.619  11.485  0.00  0.00    +0.000 C 
ATOM      8  C   UNL     1       9.797 -17.411   9.023  0.00  0.00    +0.000 A 
ATOM      9  C   UNL     1      13.484 -17.794   8.139  0.00  0.00    +0.000 C 
ATOM     10  C   UNL     1      12.644 -19.161  12.277  0.00  0.00    +0.000 C 
ATOM     11  C   UNL     1      13.705 -15.991  11.342  0.00  0.00    +0.000 C 
ATOM     12  C   UNL     1      11.495 -17.706   6.526  0.00  0.00    +0.000 A 
ATOM     13  C   UNL     1       9.428 -17.438   7.656  0.00  0.00    +0.000 A 
ATOM     14  C   UNL     1      10.092 -17.562   6.409  0.00  0.00    +0.000 A 
ATOM     15  C   UNL     1      12.254 -17.830   5.365  0.00  0.00    +0.000 A 
ATOM     16  C   UNL     1       9.451 -17.541   5.181  0.00  0.00    +0.000 A 
ATOM     17  C   UNL     1      11.623 -17.811   4.119  0.00  0.00    +0.000 A 
ATOM     18  C   UNL     1      10.237 -17.667   4.039  0.00  0.00    +0.000 A 
ENDROOT
BRANCH   8  19
ATOM     19  C   UNL     1       8.923 -17.078  10.086  0.00  0.00    +0.000 C 
ATOM     20  C   UNL     1       7.994 -16.708  11.246  0.00  0.00    +0.000 C 
BRANCH  20  21
ATOM     21  C   UNL     1       7.088 -16.327  12.420  0.00  0.00    +0.000 C 
ATOM     22  C   UNL     1       6.158 -15.939  13.574  0.00  0.00    +0.000 C 
BRANCH  22  23
ATOM     23  C   UNL     1       5.204 -15.542  14.705  0.00  0.00    +0.000 C 
BRANCH  23  24
ATOM     24  C   UNL     1       4.231 -15.174  15.830  0.00  0.00    +0.000 C 
ATOM     25  C   UNL     1       3.247 -14.840  16.954  0.00  0.00    +0.000 C 
BRANCH  25  26
ATOM     26  C   UNL     1       2.249 -14.538  18.077  0.00  0.00    +0.000 C 
ATOM     27  C   UNL     1       1.230 -14.216  19.175  0.00  0.00    +0.000 C 
BRANCH  27  28
ATOM     28  S   UNL     1       0.045 -13.825  20.416  0.00  0.00    +0.000 S 
ATOM     29  O   UNL     1      -0.182 -12.454  19.848  0.00  0.00    +0.000 OA
BRANCH  28  30
ATOM     30  C   UNL     1      -1.303 -14.495  19.501  0.00  0.00    +0.000 C 
BRANCH  30  31
ATOM     31  C   UNL     1      -2.461 -15.097  18.699  0.00  0.00    +0.000 C 
ATOM     32  C   UNL     1      -3.615 -15.717  17.902  0.00  0.00    +0.000 C 
BRANCH  32  33
ATOM     33  C   UNL     1      -4.714 -16.319  17.142  0.00  0.00    +0.000 C 
ATOM     34  F   UNL     1      -4.252 -17.470  16.577  0.00  0.00    +0.000 F 
ATOM     35  F   UNL     1      -5.007 -15.486  16.105  0.00  0.00    +0.000 F 
BRANCH  33  36
ATOM     36  C   UNL     1      -5.960 -16.591  17.991  0.00  0.00    +0.000 C 
ATOM     37  F   UNL     1      -6.085 -17.906  18.305  0.00  0.00    +0.000 F 
ATOM     38  F   UNL     1      -7.101 -16.228  17.355  0.00  0.00    +0.000 F 
ATOM     39  F   UNL     1      -5.930 -15.908  19.164  0.00  0.00    +0.000 F 
ENDBRANCH  33  36
ENDBRANCH  32  33
ENDBRANCH  30  31
ENDBRANCH  28  30
ENDBRANCH  27  28
ENDBRANCH  25  26
ENDBRANCH  23  24
ENDBRANCH  22  23
ENDBRANCH  20  21
ENDBRANCH   8  19
BRANCH   6  40
ATOM     40  O   UNL     1      15.076 -19.030  11.990  0.00  0.00    +0.000 OA
ATOM     41  H   UNL     1      15.035 -19.973  12.228  0.00  0.00    +0.000 HD
ENDBRANCH   6  40
BRANCH  18  42
ATOM     42  O   UNL     1       9.663 -17.654   2.799  0.00  0.00    +0.000 OA
ATOM     43  H   UNL     1      10.236 -17.141   2.201  0.00  0.00    +0.000 HD
ENDBRANCH  18  42
TORSDOF 12
ENDMDL
MODEL 5
REMARK VINA RESULT:      -5.4     24.971     29.530
REMARK  Name = Fulvestrant.pdbqt.pdb
REMARK  12 active torsions:
REMARK  status: ('A' for Active; 'I' for Inactive)
REMARK    1  A    between atoms: C_6  and  O_40
REMARK    2  A    between atoms: C_8  and  C_19
REMARK    3  A    between atoms: C_18  and  O_42
REMARK    4  A    between atoms: C_20  and  C_21
REMARK    5  A    between atoms: C_22  and  C_23
REMARK    6  A    between atoms: C_23  and  C_24
REMARK    7  A    between atoms: C_25  and  C_26
REMARK    8  A    between atoms: C_27  and  S_28
REMARK    9  A    between atoms: S_28  and  C_30
REMARK   10  A    between atoms: C_30  and  C_31
REMARK   11  A    between atoms: C_32  and  C_33
REMARK   12  A    between atoms: C_33  and  C_36
REMARK                            x       y       z     vdW  Elec       q    Type
REMARK                         _______ _______ _______ _____ _____    ______ ____
ROOT
ATOM      1  C   UNL     1     -11.637   4.382  24.079  0.00  0.00    +0.000 C 
ATOM      2  C   UNL     1     -10.723   3.829  25.276  0.00  0.00    +0.000 C 
ATOM      3  C   UNL     1     -12.930   3.752  23.659  0.00  0.00    +0.000 A 
ATOM      4  C   UNL     1     -13.690   2.782  24.587  0.00  0.00    +0.000 A 
ATOM      5  C   UNL     1     -11.605   3.010  26.102  0.00  0.00    +0.000 C 
ATOM      6  C   UNL     1     -10.252   5.123  25.976  0.00  0.00    +0.000 C 
ATOM      7  C   UNL     1     -11.520   5.810  24.099  0.00  0.00    +0.000 C 
ATOM      8  C   UNL     1     -13.555   4.040  22.341  0.00  0.00    +0.000 A 
ATOM      9  C   UNL     1     -12.985   2.508  25.784  0.00  0.00    +0.000 C 
ATOM     10  C   UNL     1     -10.694   6.275  25.271  0.00  0.00    +0.000 C 
ATOM     11  C   UNL     1      -9.519   3.064  24.671  0.00  0.00    +0.000 C 
ATOM     12  C   UNL     1     -14.998   2.161  24.236  0.00  0.00    +0.000 A 
ATOM     13  C   UNL     1     -14.791   3.364  22.204  0.00  0.00    +0.000 A 
ATOM     14  C   UNL     1     -15.573   2.472  22.981  0.00  0.00    +0.000 A 
ATOM     15  C   UNL     1     -15.675   1.288  25.084  0.00  0.00    +0.000 A 
ATOM     16  C   UNL     1     -16.784   1.939  22.570  0.00  0.00    +0.000 A 
ATOM     17  C   UNL     1     -16.897   0.743  24.685  0.00  0.00    +0.000 A 
ATOM     18  C   UNL     1     -17.437   1.070  23.440  0.00  0.00    +0.000 A 
ENDROOT
BRANCH   8  19
ATOM     19  C   UNL     1     -12.902   4.743  21.300  0.00  0.00    +0.000 C 
ATOM     20  C   UNL     1     -12.194   5.486  20.163  0.00  0.00    +0.000 C 
BRANCH  20  21
ATOM     21  C   UNL     1     -11.481   6.203  19.013  0.00  0.00    +0.000 C 
ATOM     22  C   UNL     1     -10.752   6.893  17.856  0.00  0.00    +0.000 C 
BRANCH  22  23
ATOM     23  C   UNL     1     -10.003   7.555  16.695  0.00  0.00    +0.000 C 
BRANCH  23  24
ATOM     24  C   UNL     1      -9.223   8.205  15.548  0.00  0.00    +0.000 C 
ATOM     25  C   UNL     1      -8.444   8.825  14.383  0.00  0.00    +0.000 C 
BRANCH  25  26
ATOM     26  C   UNL     1      -7.664   9.412  13.203  0.00  0.00    +0.000 C 
ATOM     27  C   UNL     1      -6.856  10.010  12.046  0.00  0.00    +0.000 C 
BRANCH  27  28
ATOM     28  S   UNL     1      -5.905  10.708  10.740  0.00  0.00    +0.000 S 
ATOM     29  O   UNL     1      -4.633  10.121  11.276  0.00  0.00    +0.000 OA
BRANCH  28  30
ATOM     30  C   UNL     1      -6.160   9.335   9.667  0.00  0.00    +0.000 C 
BRANCH  30  31
ATOM     31  C   UNL     1      -6.399   8.131   8.749  0.00  0.00    +0.000 C 
ATOM     32  C   UNL     1      -6.632   6.939   7.815  0.00  0.00    +0.000 C 
BRANCH  32  33
ATOM     33  C   UNL     1      -6.854   5.804   6.914  0.00  0.00    +0.000 C 
ATOM     34  F   UNL     1      -6.186   4.729   7.422  0.00  0.00    +0.000 F 
ATOM     35  F   UNL     1      -6.250   6.091   5.727  0.00  0.00    +0.000 F 
BRANCH  33  36
ATOM     36  C   UNL     1      -8.335   5.476   6.706  0.00  0.00    +0.000 C 
ATOM     37  F   UNL     1      -8.540   4.733   5.588  0.00  0.00    +0.000 F 
ATOM     38  F   UNL     1      -9.095   6.592   6.581  0.00  0.00    +0.000 F 
ATOM     39  F   UNL     1      -8.846   4.767   7.746  0.00  0.00    +0.000 F 
ENDBRANCH  33  36
ENDBRANCH  32  33
ENDBRANCH  30  31
ENDBRANCH  28  30
ENDBRANCH  27  28
ENDBRANCH  25  26
ENDBRANCH  23  24
ENDBRANCH  22  23
ENDBRANCH  20  21
ENDBRANCH   8  19
BRANCH   6  40
ATOM     40  O   UNL     1      -9.905   5.166  27.310  0.00  0.00    +0.000 OA
ATOM     41  H   UNL     1     -10.617   4.825  27.880  0.00  0.00    +0.000 HD
ENDBRANCH   6  40
BRANCH  18  42
ATOM     42  O   UNL     1     -18.634   0.511  23.092  0.00  0.00    +0.000 OA
ATOM     43  H   UNL     1     -19.339   1.157  23.275  0.00  0.00    +0.000 HD
ENDBRANCH  18  42
TORSDOF 12
ENDMDL
MODEL 6
REMARK VINA RESULT:      -5.3      7.445     11.584
REMARK  Name = Fulvestrant.pdbqt.pdb
REMARK  12 active torsions:
REMARK  status: ('A' for Active; 'I' for Inactive)
REMARK    1  A    between atoms: C_6  and  O_40
REMARK    2  A    between atoms: C_8  and  C_19
REMARK    3  A    between atoms: C_18  and  O_42
REMARK    4  A    between atoms: C_20  and  C_21
REMARK    5  A    between atoms: C_22  and  C_23
REMARK    6  A    between atoms: C_23  and  C_24
REMARK    7  A    between atoms: C_25  and  C_26
REMARK    8  A    between atoms: C_27  and  S_28
REMARK    9  A    between atoms: S_28  and  C_30
REMARK   10  A    between atoms: C_30  and  C_31
REMARK   11  A    between atoms: C_32  and  C_33
REMARK   12  A    between atoms: C_33  and  C_36
REMARK                            x       y       z     vdW  Elec       q    Type
REMARK                         _______ _______ _______ _____ _____    ______ ____
ROOT
ATOM      1  C   UNL     1       9.200  -1.563   8.524  0.00  0.00    +0.000 C 
ATOM      2  C   UNL     1      10.717  -1.228   8.123  0.00  0.00    +0.000 C 
ATOM      3  C   UNL     1       8.220  -0.536   9.007  0.00  0.00    +0.000 A 
ATOM      4  C   UNL     1       8.454   0.971   8.772  0.00  0.00    +0.000 A 
ATOM      5  C   UNL     1      10.748   0.205   7.850  0.00  0.00    +0.000 C 
ATOM      6  C   UNL     1      10.941  -2.098   6.867  0.00  0.00    +0.000 C 
ATOM      7  C   UNL     1       8.760  -2.598   7.637  0.00  0.00    +0.000 C 
ATOM      8  C   UNL     1       6.969  -0.914   9.716  0.00  0.00    +0.000 A 
ATOM      9  C   UNL     1       9.701   1.239   8.159  0.00  0.00    +0.000 C 
ATOM     10  C   UNL     1       9.809  -2.916   6.604  0.00  0.00    +0.000 C 
ATOM     11  C   UNL     1      11.647  -1.680   9.277  0.00  0.00    +0.000 C 
ATOM     12  C   UNL     1       7.493   2.029   9.194  0.00  0.00    +0.000 A 
ATOM     13  C   UNL     1       6.191   0.229  10.022  0.00  0.00    +0.000 A 
ATOM     14  C   UNL     1       6.304   1.632   9.849  0.00  0.00    +0.000 A 
ATOM     15  C   UNL     1       7.716   3.386   8.973  0.00  0.00    +0.000 A 
ATOM     16  C   UNL     1       5.356   2.547  10.278  0.00  0.00    +0.000 A 
ATOM     17  C   UNL     1       6.770   4.320   9.399  0.00  0.00    +0.000 A 
ATOM     18  C   UNL     1       5.607   3.896  10.044  0.00  0.00    +0.000 A 
ENDROOT
BRANCH   8  19
ATOM     19  C   UNL     1       6.697  -2.222  10.184  0.00  0.00    +0.000 C 
ATOM     20  C   UNL     1       6.389  -3.640  10.674  0.00  0.00    +0.000 C 
BRANCH  20  21
ATOM     21  C   UNL     1       6.060  -5.060  11.142  0.00  0.00    +0.000 C 
ATOM     22  C   UNL     1       5.763  -6.485  11.620  0.00  0.00    +0.000 C 
BRANCH  22  23
ATOM     23  C   UNL     1       5.498  -7.913  12.106  0.00  0.00    +0.000 C 
BRANCH  23  24
ATOM     24  C   UNL     1       5.255  -9.355  12.566  0.00  0.00    +0.000 C 
ATOM     25  C   UNL     1       5.035 -10.790  13.053  0.00  0.00    +0.000 C 
BRANCH  25  26
ATOM     26  C   UNL     1       4.841 -12.221  13.564  0.00  0.00    +0.000 C 
ATOM     27  C   UNL     1       4.625 -13.659  14.046  0.00  0.00    +0.000 C 
BRANCH  27  28
ATOM     28  S   UNL     1       4.355 -15.317  14.573  0.00  0.00    +0.000 S 
ATOM     29  O   UNL     1       5.671 -15.363  15.292  0.00  0.00    +0.000 OA
BRANCH  28  30
ATOM     30  C   UNL     1       3.501 -14.834  16.036  0.00  0.00    +0.000 C 
BRANCH  30  31
ATOM     31  C   UNL     1       2.777 -14.398  17.314  0.00  0.00    +0.000 C 
ATOM     32  C   UNL     1       2.046 -13.948  18.583  0.00  0.00    +0.000 C 
BRANCH  32  33
ATOM     33  C   UNL     1       1.345 -13.508  19.793  0.00  0.00    +0.000 C 
ATOM     34  F   UNL     1       2.254 -12.902  20.608  0.00  0.00    +0.000 F 
ATOM     35  F   UNL     1       0.929 -14.621  20.460  0.00  0.00    +0.000 F 
BRANCH  33  36
ATOM     36  C   UNL     1       0.165 -12.575  19.504  0.00  0.00    +0.000 C 
ATOM     37  F   UNL     1      -0.959 -12.955  20.165  0.00  0.00    +0.000 F 
ATOM     38  F   UNL     1      -0.148 -12.538  18.185  0.00  0.00    +0.000 F 
ATOM     39  F   UNL     1       0.428 -11.297  19.881  0.00  0.00    +0.000 F 
ENDBRANCH  33  36
ENDBRANCH  32  33
ENDBRANCH  30  31
ENDBRANCH  28  30
ENDBRANCH  27  28
ENDBRANCH  25  26
ENDBRANCH  23  24
ENDBRANCH  22  23
ENDBRANCH  20  21
ENDBRANCH   8  19
BRANCH   6  40
ATOM     40  O   UNL     1      11.857  -1.774   5.888  0.00  0.00    +0.000 OA
ATOM     41  H   UNL     1      11.755  -0.853   5.588  0.00  0.00    +0.000 HD
ENDBRANCH   6  40
BRANCH  18  42
ATOM     42  O   UNL     1       4.711   4.847  10.443  0.00  0.00    +0.000 OA
ATOM     43  H   UNL     1       5.205   5.591  10.830  0.00  0.00    +0.000 HD
ENDBRANCH  18  42
TORSDOF 12
ENDMDL
MODEL 7
REMARK VINA RESULT:      -5.1     18.357     22.951
REMARK  Name = Fulvestrant.pdbqt.pdb
REMARK  12 active torsions:
REMARK  status: ('A' for Active; 'I' for Inactive)
REMARK    1  A    between atoms: C_6  and  O_40
REMARK    2  A    between atoms: C_8  and  C_19
REMARK    3  A    between atoms: C_18  and  O_42
REMARK    4  A    between atoms: C_20  and  C_21
REMARK    5  A    between atoms: C_22  and  C_23
REMARK    6  A    between atoms: C_23  and  C_24
REMARK    7  A    between atoms: C_25  and  C_26
REMARK    8  A    between atoms: C_27  and  S_28
REMARK    9  A    between atoms: S_28  and  C_30
REMARK   10  A    between atoms: C_30  and  C_31
REMARK   11  A    between atoms: C_32  and  C_33
REMARK   12  A    between atoms: C_33  and  C_36
REMARK                            x       y       z     vdW  Elec       q    Type
REMARK                         _______ _______ _______ _____ _____    ______ ____
ROOT
ATOM      1  C   UNL     1       6.590   3.747  16.664  0.00  0.00    +0.000 C 
ATOM      2  C   UNL     1       7.793   4.293  17.574  0.00  0.00    +0.000 C 
ATOM      3  C   UNL     1       5.814   2.501  16.970  0.00  0.00    +0.000 A 
ATOM      4  C   UNL     1       5.827   1.872  18.379  0.00  0.00    +0.000 A 
ATOM      5  C   UNL     1       7.610   3.678  18.884  0.00  0.00    +0.000 C 
ATOM      6  C   UNL     1       7.558   5.820  17.574  0.00  0.00    +0.000 C 
ATOM      7  C   UNL     1       5.907   4.897  16.151  0.00  0.00    +0.000 C 
ATOM      8  C   UNL     1       4.981   1.821  15.943  0.00  0.00    +0.000 A 
ATOM      9  C   UNL     1       6.704   2.541  19.266  0.00  0.00    +0.000 C 
ATOM     10  C   UNL     1       6.477   6.170  16.721  0.00  0.00    +0.000 C 
ATOM     11  C   UNL     1       9.136   3.945  16.884  0.00  0.00    +0.000 C 
ATOM     12  C   UNL     1       5.042   0.660  18.746  0.00  0.00    +0.000 A 
ATOM     13  C   UNL     1       4.311   0.700  16.491  0.00  0.00    +0.000 A 
ATOM     14  C   UNL     1       4.245   0.049  17.749  0.00  0.00    +0.000 A 
ATOM     15  C   UNL     1       5.061   0.103  20.023  0.00  0.00    +0.000 A 
ATOM     16  C   UNL     1       3.484  -1.082  18.002  0.00  0.00    +0.000 A 
ATOM     17  C   UNL     1       4.300  -1.036  20.293  0.00  0.00    +0.000 A 
ATOM     18  C   UNL     1       3.524  -1.614  19.287  0.00  0.00    +0.000 A 
ENDROOT
BRANCH   8  19
ATOM     19  C   UNL     1       5.011   2.146  14.566  0.00  0.00    +0.000 C 
ATOM     20  C   UNL     1       5.052   2.478  13.071  0.00  0.00    +0.000 C 
BRANCH  20  21
ATOM     21  C   UNL     1       5.104   2.783  11.572  0.00  0.00    +0.000 C 
ATOM     22  C   UNL     1       5.127   3.102  10.074  0.00  0.00    +0.000 C 
BRANCH  22  23
ATOM     23  C   UNL     1       5.117   3.433   8.578  0.00  0.00    +0.000 C 
BRANCH  23  24
ATOM     24  C   UNL     1       5.125   3.732   7.075  0.00  0.00    +0.000 C 
ATOM     25  C   UNL     1       5.161   4.051   5.578  0.00  0.00    +0.000 C 
BRANCH  25  26
ATOM     26  C   UNL     1       5.226   4.392   4.085  0.00  0.00    +0.000 C 
ATOM     27  C   UNL     1       5.327   4.733   2.595  0.00  0.00    +0.000 C 
BRANCH  27  28
ATOM     28  S   UNL     1       5.478   5.126   0.886  0.00  0.00    +0.000 S 
ATOM     29  O   UNL     1       6.961   4.899   0.906  0.00  0.00    +0.000 OA
BRANCH  28  30
ATOM     30  C   UNL     1       5.169   3.474   0.361  0.00  0.00    +0.000 C 
BRANCH  30  31
ATOM     31  C   UNL     1       4.917   2.038  -0.113  0.00  0.00    +0.000 C 
ATOM     32  C   UNL     1       4.647   0.608  -0.593  0.00  0.00    +0.000 C 
BRANCH  32  33
ATOM     33  C   UNL     1       4.380  -0.757  -1.053  0.00  0.00    +0.000 C 
ATOM     34  F   UNL     1       3.210  -1.169  -0.488  0.00  0.00    +0.000 F 
ATOM     35  F   UNL     1       5.348  -1.567  -0.539  0.00  0.00    +0.000 F 
BRANCH  33  36
ATOM     36  C   UNL     1       4.321  -0.882  -2.579  0.00  0.00    +0.000 C 
ATOM     37  F   UNL     1       4.619  -2.138  -2.999  0.00  0.00    +0.000 F 
ATOM     38  F   UNL     1       5.191  -0.044  -3.195  0.00  0.00    +0.000 F 
ATOM     39  F   UNL     1       3.086  -0.590  -3.061  0.00  0.00    +0.000 F 
ENDBRANCH  33  36
ENDBRANCH  32  33
ENDBRANCH  30  31
ENDBRANCH  28  30
ENDBRANCH  27  28
ENDBRANCH  25  26
ENDBRANCH  23  24
ENDBRANCH  22  23
ENDBRANCH  20  21
ENDBRANCH   8  19
BRANCH   6  40
ATOM     40  O   UNL     1       7.982   6.640  18.599  0.00  0.00    +0.000 OA
ATOM     41  H   UNL     1       7.782   7.576  18.419  0.00  0.00    +0.000 HD
ENDBRANCH   6  40
BRANCH  18  42
ATOM     42  O   UNL     1       2.797  -2.729  19.597  0.00  0.00    +0.000 OA
ATOM     43  H   UNL     1       2.117  -2.853  18.912  0.00  0.00    +0.000 HD
ENDBRANCH  18  42
TORSDOF 12
ENDMDL
MODEL 8
REMARK VINA RESULT:      -5.0     24.496     29.767
REMARK  Name = Fulvestrant.pdbqt.pdb
REMARK  12 active torsions:
REMARK  status: ('A' for Active; 'I' for Inactive)
REMARK    1  A    between atoms: C_6  and  O_40
REMARK    2  A    between atoms: C_8  and  C_19
REMARK    3  A    between atoms: C_18  and  O_42
REMARK    4  A    between atoms: C_20  and  C_21
REMARK    5  A    between atoms: C_22  and  C_23
REMARK    6  A    between atoms: C_23  and  C_24
REMARK    7  A    between atoms: C_25  and  C_26
REMARK    8  A    between atoms: C_27  and  S_28
REMARK    9  A    between atoms: S_28  and  C_30
REMARK   10  A    between atoms: C_30  and  C_31
REMARK   11  A    between atoms: C_32  and  C_33
REMARK   12  A    between atoms: C_33  and  C_36
REMARK                            x       y       z     vdW  Elec       q    Type
REMARK                         _______ _______ _______ _____ _____    ______ ____
ROOT
ATOM      1  C   UNL     1     -19.995  -2.525  -0.404  0.00  0.00    +0.000 C 
ATOM      2  C   UNL     1     -20.145  -0.930  -0.478  0.00  0.00    +0.000 C 
ATOM      3  C   UNL     1     -21.010  -3.428   0.229  0.00  0.00    +0.000 A 
ATOM      4  C   UNL     1     -22.455  -2.954   0.492  0.00  0.00    +0.000 A 
ATOM      5  C   UNL     1     -21.568  -0.657  -0.301  0.00  0.00    +0.000 C 
ATOM      6  C   UNL     1     -19.629  -0.601  -1.896  0.00  0.00    +0.000 C 
ATOM      7  C   UNL     1     -19.342  -2.933  -1.612  0.00  0.00    +0.000 C 
ATOM      8  C   UNL     1     -20.686  -4.827   0.617  0.00  0.00    +0.000 A 
ATOM      9  C   UNL     1     -22.650  -1.592   0.162  0.00  0.00    +0.000 C 
ATOM     10  C   UNL     1     -19.134  -1.766  -2.542  0.00  0.00    +0.000 C 
ATOM     11  C   UNL     1     -19.232  -0.294   0.600  0.00  0.00    +0.000 C 
ATOM     12  C   UNL     1     -23.512  -3.824   1.079  0.00  0.00    +0.000 A 
ATOM     13  C   UNL     1     -21.822  -5.486   1.145  0.00  0.00    +0.000 A 
ATOM     14  C   UNL     1     -23.174  -5.156   1.419  0.00  0.00    +0.000 A 
ATOM     15  C   UNL     1     -24.814  -3.384   1.309  0.00  0.00    +0.000 A 
ATOM     16  C   UNL     1     -24.093  -6.033   1.972  0.00  0.00    +0.000 A 
ATOM     17  C   UNL     1     -25.751  -4.257   1.865  0.00  0.00    +0.000 A 
ATOM     18  C   UNL     1     -25.385  -5.564   2.191  0.00  0.00    +0.000 A 
ENDROOT
BRANCH   8  19
ATOM     19  C   UNL     1     -19.372  -5.353   0.629  0.00  0.00    +0.000 C 
ATOM     20  C   UNL     1     -17.947  -5.915   0.661  0.00  0.00    +0.000 C 
BRANCH  20  21
ATOM     21  C   UNL     1     -16.519  -6.462   0.719  0.00  0.00    +0.000 C 
ATOM     22  C   UNL     1     -15.101  -7.039   0.785  0.00  0.00    +0.000 C 
BRANCH  22  23
ATOM     23  C   UNL     1     -13.696  -7.645   0.862  0.00  0.00    +0.000 C 
BRANCH  23  24
ATOM     24  C   UNL     1     -12.282  -8.231   0.911  0.00  0.00    +0.000 C 
ATOM     25  C   UNL     1     -10.855  -8.786   0.952  0.00  0.00    +0.000 C 
BRANCH  25  26
ATOM     26  C   UNL     1      -9.415  -9.309   0.982  0.00  0.00    +0.000 C 
ATOM     27  C   UNL     1      -7.963  -9.797   1.014  0.00  0.00    +0.000 C 
BRANCH  27  28
ATOM     28  S   UNL     1      -6.284 -10.324   1.050  0.00  0.00    +0.000 S 
ATOM     29  O   UNL     1      -6.407 -10.999  -0.284  0.00  0.00    +0.000 OA
BRANCH  28  30
ATOM     30  C   UNL     1      -5.683  -8.841   0.315  0.00  0.00    +0.000 C 
BRANCH  30  31
ATOM     31  C   UNL     1      -5.175  -7.554  -0.345  0.00  0.00    +0.000 C 
ATOM     32  C   UNL     1      -4.656  -6.263  -0.988  0.00  0.00    +0.000 C 
BRANCH  32  33
ATOM     33  C   UNL     1      -4.157  -5.026  -1.595  0.00  0.00    +0.000 C 
ATOM     34  F   UNL     1      -4.513  -5.031  -2.910  0.00  0.00    +0.000 F 
ATOM     35  F   UNL     1      -2.796  -5.074  -1.576  0.00  0.00    +0.000 F 
BRANCH  33  36
ATOM     36  C   UNL     1      -4.666  -3.761  -0.897  0.00  0.00    +0.000 C 
ATOM     37  F   UNL     1      -5.724  -4.018  -0.085  0.00  0.00    +0.000 F 
ATOM     38  F   UNL     1      -5.069  -2.815  -1.782  0.00  0.00    +0.000 F 
ATOM     39  F   UNL     1      -3.707  -3.191  -0.123  0.00  0.00    +0.000 F 
ENDBRANCH  33  36
ENDBRANCH  32  33
ENDBRANCH  30  31
ENDBRANCH  28  30
ENDBRANCH  27  28
ENDBRANCH  25  26
ENDBRANCH  23  24
ENDBRANCH  22  23
ENDBRANCH  20  21
ENDBRANCH   8  19
BRANCH   6  40
ATOM     40  O   UNL     1     -20.037   0.513  -2.600  0.00  0.00    +0.000 OA
ATOM     41  H   UNL     1     -20.950   0.767  -2.376  0.00  0.00    +0.000 HD
ENDBRANCH   6  40
BRANCH  18  42
ATOM     42  O   UNL     1     -26.336  -6.381   2.733  0.00  0.00    +0.000 OA
ATOM     43  H   UNL     1     -26.741  -6.900   2.016  0.00  0.00    +0.000 HD
ENDBRANCH  18  42
TORSDOF 12
ENDMDL
MODEL 9
REMARK VINA RESULT:      -5.0     19.988     22.809
REMARK  Name = Fulvestrant.pdbqt.pdb
REMARK  12 active torsions:
REMARK  status: ('A' for Active; 'I' for Inactive)
REMARK    1  A    between atoms: C_6  and  O_40
REMARK    2  A    between atoms: C_8  and  C_19
REMARK    3  A    between atoms: C_18  and  O_42
REMARK    4  A    between atoms: C_20  and  C_21
REMARK    5  A    between atoms: C_22  and  C_23
REMARK    6  A    between atoms: C_23  and  C_24
REMARK    7  A    between atoms: C_25  and  C_26
REMARK    8  A    between atoms: C_27  and  S_28
REMARK    9  A    between atoms: S_28  and  C_30
REMARK   10  A    between atoms: C_30  and  C_31
REMARK   11  A    between atoms: C_32  and  C_33
REMARK   12  A    between atoms: C_33  and  C_36
REMARK                            x       y       z     vdW  Elec       q    Type
REMARK                         _______ _______ _______ _____ _____    ______ ____
ROOT
ATOM      1  C   UNL     1      -8.434  -7.199  27.567  0.00  0.00    +0.000 C 
ATOM      2  C   UNL     1      -7.557  -6.116  26.771  0.00  0.00    +0.000 C 
ATOM      3  C   UNL     1      -7.864  -8.158  28.567  0.00  0.00    +0.000 A 
ATOM      4  C   UNL     1      -6.483  -7.919  29.214  0.00  0.00    +0.000 A 
ATOM      5  C   UNL     1      -6.338  -5.941  27.552  0.00  0.00    +0.000 C 
ATOM      6  C   UNL     1      -8.470  -4.869  26.767  0.00  0.00    +0.000 C 
ATOM      7  C   UNL     1      -9.708  -6.593  27.814  0.00  0.00    +0.000 C 
ATOM      8  C   UNL     1      -8.602  -9.373  29.002  0.00  0.00    +0.000 A 
ATOM      9  C   UNL     1      -5.824  -6.783  28.686  0.00  0.00    +0.000 C 
ATOM     10  C   UNL     1      -9.732  -5.160  27.350  0.00  0.00    +0.000 C 
ATOM     11  C   UNL     1      -7.325  -6.629  25.327  0.00  0.00    +0.000 C 
ATOM     12  C   UNL     1      -5.890  -8.818  30.243  0.00  0.00    +0.000 A 
ATOM     13  C   UNL     1      -7.876 -10.086  29.987  0.00  0.00    +0.000 A 
ATOM     14  C   UNL     1      -6.628  -9.955  30.647  0.00  0.00    +0.000 A 
ATOM     15  C   UNL     1      -4.643  -8.589  30.821  0.00  0.00    +0.000 A 
ATOM     16  C   UNL     1      -6.152 -10.846  31.596  0.00  0.00    +0.000 A 
ATOM     17  C   UNL     1      -4.150  -9.478  31.779  0.00  0.00    +0.000 A 
ATOM     18  C   UNL     1      -4.904 -10.591  32.154  0.00  0.00    +0.000 A 
ENDROOT
BRANCH   8  19
ATOM     19  C   UNL     1      -9.779  -9.844  28.371  0.00  0.00    +0.000 C 
ATOM     20  C   UNL     1     -11.061 -10.333  27.691  0.00  0.00    +0.000 C 
BRANCH  20  21
ATOM     21  C   UNL     1     -12.355 -10.796  27.017  0.00  0.00    +0.000 C 
ATOM     22  C   UNL     1     -13.667 -11.247  26.366  0.00  0.00    +0.000 C 
BRANCH  22  23
ATOM     23  C   UNL     1     -14.995 -11.686  25.743  0.00  0.00    +0.000 C 
BRANCH  23  24
ATOM     24  C   UNL     1     -16.314 -12.160  25.122  0.00  0.00    +0.000 C 
ATOM     25  C   UNL     1     -17.638 -12.600  24.491  0.00  0.00    +0.000 C 
BRANCH  25  26
ATOM     26  C   UNL     1     -18.970 -13.007  23.852  0.00  0.00    +0.000 C 
ATOM     27  C   UNL     1     -20.306 -13.378  23.200  0.00  0.00    +0.000 C 
BRANCH  27  28
ATOM     28  S   UNL     1     -21.845 -13.772  22.443  0.00  0.00    +0.000 S 
ATOM     29  O   UNL     1     -22.538 -13.872  23.769  0.00  0.00    +0.000 OA
BRANCH  28  30
ATOM     30  C   UNL     1     -22.314 -12.085  22.254  0.00  0.00    +0.000 C 
BRANCH  30  31
ATOM     31  C   UNL     1     -22.710 -10.611  22.111  0.00  0.00    +0.000 C 
ATOM     32  C   UNL     1     -23.097  -9.134  21.984  0.00  0.00    +0.000 C 
BRANCH  32  33
ATOM     33  C   UNL     1     -23.463  -7.719  21.872  0.00  0.00    +0.000 C 
ATOM     34  F   UNL     1     -24.807  -7.616  22.076  0.00  0.00    +0.000 F 
ATOM     35  F   UNL     1     -23.251  -7.336  20.582  0.00  0.00    +0.000 F 
BRANCH  33  36
ATOM     36  C   UNL     1     -22.695  -6.815  22.841  0.00  0.00    +0.000 C 
ATOM     37  F   UNL     1     -23.182  -5.547  22.849  0.00  0.00    +0.000 F 
ATOM     38  F   UNL     1     -21.378  -6.729  22.526  0.00  0.00    +0.000 F 
ATOM     39  F   UNL     1     -22.765  -7.270  24.118  0.00  0.00    +0.000 F 
ENDBRANCH  33  36
ENDBRANCH  32  33
ENDBRANCH  30  31
ENDBRANCH  28  30
ENDBRANCH  27  28
ENDBRANCH  25  26
ENDBRANCH  23  24
ENDBRANCH  22  23
ENDBRANCH  20  21
ENDBRANCH   8  19
BRANCH   6  40
ATOM     40  O   UNL     1      -7.977  -3.584  26.683  0.00  0.00    +0.000 OA
ATOM     41  H   UNL     1      -8.041  -3.231  25.777  0.00  0.00    +0.000 HD
ENDBRANCH   6  40
BRANCH  18  42
ATOM     42  O   UNL     1      -4.380 -11.433  33.094  0.00  0.00    +0.000 OA
ATOM     43  H   UNL     1      -3.410 -11.356  33.070  0.00  0.00    +0.000 HD
ENDBRANCH  18  42
TORSDOF 12
ENDMDL
