MODEL 1
REMARK VINA RESULT:      -5.5      0.000      0.000
REMARK  Name = Gefitinib.pdbqt.pdb
REMARK  6 active torsions:
REMARK  status: ('A' for Active; 'I' for Inactive)
REMARK    1  A    between atoms: C_3  and  O_11
REMARK    2  A    between atoms: C_6  and  O_21
REMARK    3  A    between atoms: O_11  and  C_12
REMARK    4  A    between atoms: C_13  and  C_14
REMARK    5  A    between atoms: C_14  and  N_15
REMARK    6  A    between atoms: N_23  and  C_25
REMARK                            x       y       z     vdW  Elec       q    Type
REMARK                         _______ _______ _______ _____ _____    ______ ____
ROOT
ATOM      1  N   UNL     1     -16.058 -14.298   9.221  0.00  0.00    +0.000 NA
ATOM      2  N   UNL     1     -13.831 -15.142   9.291  0.00  0.00    +0.000 NA
ATOM      3  C   UNL     1     -16.427 -14.688  13.346  0.00  0.00    +0.000 A 
ATOM      4  C   UNL     1     -15.083 -14.912  11.316  0.00  0.00    +0.000 A 
ATOM      5  C   UNL     1     -15.237 -15.039  12.708  0.00  0.00    +0.000 A 
ATOM      6  C   UNL     1     -17.483 -14.195  12.579  0.00  0.00    +0.000 A 
ATOM      7  C   UNL     1     -16.142 -14.428  10.545  0.00  0.00    +0.000 A 
ATOM      8  C   UNL     1     -17.319 -14.078  11.194  0.00  0.00    +0.000 A 
ATOM      9  C   UNL     1     -13.912 -15.256  10.626  0.00  0.00    +0.000 A 
ATOM     10  C   UNL     1     -14.905 -14.667   8.649  0.00  0.00    +0.000 A 
ATOM     11  N   UNL     1     -12.811 -15.773  11.355  0.00  0.00    +0.000 N 
ATOM     12  H   UNL     1     -12.628 -15.217  12.185  0.00  0.00    +0.000 HD
ENDROOT
BRANCH  11  13
ATOM     13  C   UNL     1     -11.632 -16.361  10.846  0.00  0.00    +0.000 A 
ATOM     14  C   UNL     1     -11.615 -17.740  10.600  0.00  0.00    +0.000 A 
ATOM     15  C   UNL     1     -10.514 -18.347  10.001  0.00  0.00    +0.000 A 
ATOM     16 CL   UNL     1     -10.538 -20.047   9.755  0.00  0.00    +0.000 Cl
ATOM     17  C   UNL     1      -9.425 -17.575   9.612  0.00  0.00    +0.000 A 
ATOM     18  F   UNL     1      -8.356 -18.141   9.034  0.00  0.00    +0.000 F 
ATOM     19  C   UNL     1      -9.433 -16.200   9.809  0.00  0.00    +0.000 A 
ATOM     20  C   UNL     1     -10.541 -15.603  10.407  0.00  0.00    +0.000 A 
ENDBRANCH  11  13
BRANCH   6  21
ATOM     21  O   UNL     1     -18.638 -13.862  13.247  0.00  0.00    +0.000 OA
ATOM     22  C   UNL     1     -19.823 -13.992  12.513  0.00  0.00    +0.000 C 
ENDBRANCH   6  21
BRANCH   3  23
ATOM     23  O   UNL     1     -16.616 -14.797  14.702  0.00  0.00    +0.000 OA
BRANCH  23  24
ATOM     24  C   UNL     1     -15.719 -15.554  15.330  0.00  0.00    +0.000 C 
ATOM     25  C   UNL     1     -14.686 -16.414  16.066  0.00  0.00    +0.000 C 
BRANCH  25  26
ATOM     26  C   UNL     1     -13.658 -17.254  16.831  0.00  0.00    +0.000 C 
BRANCH  26  27
ATOM     27  N   UNL     1     -12.683 -18.044  17.571  0.00  0.00    +0.000 N 
ATOM     28  C   UNL     1     -13.427 -19.200  18.158  0.00  0.00    +0.000 C 
ATOM     29  C   UNL     1     -13.352 -20.713  17.771  0.00  0.00    +0.000 C 
ATOM     30  O   UNL     1     -12.661 -21.425  16.854  0.00  0.00    +0.000 OA
ATOM     31  C   UNL     1     -11.990 -20.383  16.323  0.00  0.00    +0.000 C 
ATOM     32  C   UNL     1     -11.926 -18.844  16.562  0.00  0.00    +0.000 C 
ENDBRANCH  26  27
ENDBRANCH  25  26
ENDBRANCH  23  24
ENDBRANCH   3  23
TORSDOF 6
ENDMDL
MODEL 2
REMARK VINA RESULT:      -5.4     18.447     21.815
REMARK  Name = Gefitinib.pdbqt.pdb
REMARK  6 active torsions:
REMARK  status: ('A' for Active; 'I' for Inactive)
REMARK    1  A    between atoms: C_3  and  O_11
REMARK    2  A    between atoms: C_6  and  O_21
REMARK    3  A    between atoms: O_11  and  C_12
REMARK    4  A    between atoms: C_13  and  C_14
REMARK    5  A    between atoms: C_14  and  N_15
REMARK    6  A    between atoms: N_23  and  C_25
REMARK                            x       y       z     vdW  Elec       q    Type
REMARK                         _______ _______ _______ _____ _____    ______ ____
ROOT
ATOM      1  N   UNL     1      10.380 -11.102  11.399  0.00  0.00    +0.000 NA
ATOM      2  N   UNL     1       9.131  -9.085  11.169  0.00  0.00    +0.000 NA
ATOM      3  C   UNL     1       6.900 -13.375  11.234  0.00  0.00    +0.000 A 
ATOM      4  C   UNL     1       8.000 -11.193  11.179  0.00  0.00    +0.000 A 
ATOM      5  C   UNL     1       6.840 -11.985  11.133  0.00  0.00    +0.000 A 
ATOM      6  C   UNL     1       8.145 -13.988  11.380  0.00  0.00    +0.000 A 
ATOM      7  C   UNL     1       9.247 -11.802  11.336  0.00  0.00    +0.000 A 
ATOM      8  C   UNL     1       9.293 -13.187  11.429  0.00  0.00    +0.000 A 
ATOM      9  C   UNL     1       7.994  -9.794  11.089  0.00  0.00    +0.000 A 
ATOM     10  C   UNL     1      10.271  -9.770  11.318  0.00  0.00    +0.000 A 
ATOM     11  N   UNL     1       6.754  -9.119  10.951  0.00  0.00    +0.000 N 
ATOM     12  H   UNL     1       6.174  -9.561  10.244  0.00  0.00    +0.000 HD
ENDROOT
BRANCH  11  13
ATOM     13  C   UNL     1       6.506  -7.732  11.045  0.00  0.00    +0.000 A 
ATOM     14  C   UNL     1       6.116  -7.035   9.895  0.00  0.00    +0.000 A 
ATOM     15  C   UNL     1       5.760  -5.690   9.959  0.00  0.00    +0.000 A 
ATOM     16 CL   UNL     1       5.322  -4.879   8.510  0.00  0.00    +0.000 Cl
ATOM     17  C   UNL     1       5.763  -5.031  11.184  0.00  0.00    +0.000 A 
ATOM     18  F   UNL     1       5.424  -3.736  11.266  0.00  0.00    +0.000 F 
ATOM     19  C   UNL     1       6.109  -5.710  12.345  0.00  0.00    +0.000 A 
ATOM     20  C   UNL     1       6.460  -7.056  12.270  0.00  0.00    +0.000 A 
ENDBRANCH  11  13
BRANCH   6  21
ATOM     21  O   UNL     1       8.160 -15.359  11.477  0.00  0.00    +0.000 OA
ATOM     22  C   UNL     1       9.423 -15.959  11.412  0.00  0.00    +0.000 C 
ENDBRANCH   6  21
BRANCH   3  23
ATOM     23  O   UNL     1       5.789 -14.184  11.193  0.00  0.00    +0.000 OA
BRANCH  23  24
ATOM     24  C   UNL     1       4.968 -14.054  12.232  0.00  0.00    +0.000 C 
ATOM     25  C   UNL     1       4.036 -13.909  13.440  0.00  0.00    +0.000 C 
BRANCH  25  26
ATOM     26  C   UNL     1       3.131 -13.771  14.669  0.00  0.00    +0.000 C 
BRANCH  26  27
ATOM     27  N   UNL     1       2.269 -13.654  15.836  0.00  0.00    +0.000 N 
ATOM     28  C   UNL     1       3.087 -14.071  17.015  0.00  0.00    +0.000 C 
ATOM     29  C   UNL     1       3.647 -13.191  18.181  0.00  0.00    +0.000 C 
ATOM     30  O   UNL     1       3.593 -11.877  18.488  0.00  0.00    +0.000 OA
ATOM     31  C   UNL     1       2.855 -11.500  17.425  0.00  0.00    +0.000 C 
ATOM     32  C   UNL     1       2.218 -12.203  16.188  0.00  0.00    +0.000 C 
ENDBRANCH  26  27
ENDBRANCH  25  26
ENDBRANCH  23  24
ENDBRANCH   3  23
TORSDOF 6
ENDMDL
MODEL 3
REMARK VINA RESULT:      -5.3      5.155      9.348
REMARK  Name = Gefitinib.pdbqt.pdb
REMARK  6 active torsions:
REMARK  status: ('A' for Active; 'I' for Inactive)
REMARK    1  A    between atoms: C_3  and  O_11
REMARK    2  A    between atoms: C_6  and  O_21
REMARK    3  A    between atoms: O_11  and  C_12
REMARK    4  A    between atoms: C_13  and  C_14
REMARK    5  A    between atoms: C_14  and  N_15
REMARK    6  A    between atoms: N_23  and  C_25
REMARK                            x       y       z     vdW  Elec       q    Type
REMARK                         _______ _______ _______ _____ _____    ______ ____
ROOT
ATOM      1  N   UNL     1     -10.578 -16.250  10.414  0.00  0.00    +0.000 NA
ATOM      2  N   UNL     1      -9.457 -15.988   8.328  0.00  0.00    +0.000 NA
ATOM      3  C   UNL     1     -14.223 -15.246   8.678  0.00  0.00    +0.000 A 
ATOM      4  C   UNL     1     -11.819 -15.632   8.465  0.00  0.00    +0.000 A 
ATOM      5  C   UNL     1     -13.062 -15.290   7.906  0.00  0.00    +0.000 A 
ATOM      6  C   UNL     1     -14.141 -15.555  10.037  0.00  0.00    +0.000 A 
ATOM      7  C   UNL     1     -11.732 -15.931   9.827  0.00  0.00    +0.000 A 
ATOM      8  C   UNL     1     -12.896 -15.889  10.582  0.00  0.00    +0.000 A 
ATOM      9  C   UNL     1     -10.623 -15.684   7.735  0.00  0.00    +0.000 A 
ATOM     10  C   UNL     1      -9.487 -16.259   9.638  0.00  0.00    +0.000 A 
ATOM     11  N   UNL     1     -10.647 -15.367   6.353  0.00  0.00    +0.000 N 
ATOM     12  H   UNL     1     -11.414 -15.838   5.883  0.00  0.00    +0.000 HD
ENDROOT
BRANCH  11  13
ATOM     13  C   UNL     1      -9.547 -15.164   5.490  0.00  0.00    +0.000 A 
ATOM     14  C   UNL     1      -8.999 -16.264   4.820  0.00  0.00    +0.000 A 
ATOM     15  C   UNL     1      -7.983 -16.098   3.882  0.00  0.00    +0.000 A 
ATOM     16 CL   UNL     1      -7.328 -17.489   3.116  0.00  0.00    +0.000 Cl
ATOM     17  C   UNL     1      -7.521 -14.822   3.581  0.00  0.00    +0.000 A 
ATOM     18  F   UNL     1      -6.544 -14.642   2.680  0.00  0.00    +0.000 F 
ATOM     19  C   UNL     1      -8.074 -13.710   4.203  0.00  0.00    +0.000 A 
ATOM     20  C   UNL     1      -9.092 -13.888   5.138  0.00  0.00    +0.000 A 
ENDBRANCH  11  13
BRANCH   6  21
ATOM     21  O   UNL     1     -15.309 -15.499  10.761  0.00  0.00    +0.000 OA
ATOM     22  C   UNL     1     -15.488 -14.345  11.534  0.00  0.00    +0.000 C 
ENDBRANCH   6  21
BRANCH   3  23
ATOM     23  O   UNL     1     -15.456 -14.917   8.169  0.00  0.00    +0.000 OA
BRANCH  23  24
ATOM     24  C   UNL     1     -15.459 -13.861   7.358  0.00  0.00    +0.000 C 
ATOM     25  C   UNL     1     -15.480 -12.646   6.424  0.00  0.00    +0.000 C 
BRANCH  25  26
ATOM     26  C   UNL     1     -15.536 -11.428   5.496  0.00  0.00    +0.000 C 
BRANCH  26  27
ATOM     27  N   UNL     1     -15.587 -10.262   4.625  0.00  0.00    +0.000 N 
ATOM     28  C   UNL     1     -15.480  -9.063   5.511  0.00  0.00    +0.000 C 
ATOM     29  C   UNL     1     -14.292  -8.057   5.660  0.00  0.00    +0.000 C 
ATOM     30  O   UNL     1     -13.069  -7.943   5.098  0.00  0.00    +0.000 OA
ATOM     31  C   UNL     1     -13.164  -9.025   4.300  0.00  0.00    +0.000 C 
ATOM     32  C   UNL     1     -14.232 -10.124   4.013  0.00  0.00    +0.000 C 
ENDBRANCH  26  27
ENDBRANCH  25  26
ENDBRANCH  23  24
ENDBRANCH   3  23
TORSDOF 6
ENDMDL
MODEL 4
REMARK VINA RESULT:      -5.3     17.729     20.329
REMARK  Name = Gefitinib.pdbqt.pdb
REMARK  6 active torsions:
REMARK  status: ('A' for Active; 'I' for Inactive)
REMARK    1  A    between atoms: C_3  and  O_11
REMARK    2  A    between atoms: C_6  and  O_21
REMARK    3  A    between atoms: O_11  and  C_12
REMARK    4  A    between atoms: C_13  and  C_14
REMARK    5  A    between atoms: C_14  and  N_15
REMARK    6  A    between atoms: N_23  and  C_25
REMARK                            x       y       z     vdW  Elec       q    Type
REMARK                         _______ _______ _______ _____ _____    ______ ____
ROOT
ATOM      1  N   UNL     1      -9.372  -9.021  27.174  0.00  0.00    +0.000 NA
ATOM      2  N   UNL     1      -8.532  -6.820  26.820  0.00  0.00    +0.000 NA
ATOM      3  C   UNL     1     -13.182  -7.537  27.938  0.00  0.00    +0.000 A 
ATOM      4  C   UNL     1     -10.841  -7.143  27.353  0.00  0.00    +0.000 A 
ATOM      5  C   UNL     1     -12.137  -6.668  27.622  0.00  0.00    +0.000 A 
ATOM      6  C   UNL     1     -12.930  -8.908  27.981  0.00  0.00    +0.000 A 
ATOM      7  C   UNL     1     -10.583  -8.515  27.407  0.00  0.00    +0.000 A 
ATOM      8  C   UNL     1     -11.634  -9.368  27.717  0.00  0.00    +0.000 A 
ATOM      9  C   UNL     1      -9.756  -6.313  27.038  0.00  0.00    +0.000 A 
ATOM     10  C   UNL     1      -8.395  -8.149  26.895  0.00  0.00    +0.000 A 
ATOM     11  N   UNL     1      -9.954  -4.909  26.992  0.00  0.00    +0.000 N 
ATOM     12  H   UNL     1     -10.792  -4.676  26.468  0.00  0.00    +0.000 HD
ENDROOT
BRANCH  11  13
ATOM     13  C   UNL     1      -8.973  -3.898  26.896  0.00  0.00    +0.000 A 
ATOM     14  C   UNL     1      -8.552  -3.251  28.064  0.00  0.00    +0.000 A 
ATOM     15  C   UNL     1      -7.514  -2.322  28.033  0.00  0.00    +0.000 A 
ATOM     16 CL   UNL     1      -7.063  -1.536  29.492  0.00  0.00    +0.000 Cl
ATOM     17  C   UNL     1      -6.865  -2.050  26.834  0.00  0.00    +0.000 A 
ATOM     18  F   UNL     1      -5.864  -1.159  26.785  0.00  0.00    +0.000 F 
ATOM     19  C   UNL     1      -7.238  -2.706  25.669  0.00  0.00    +0.000 A 
ATOM     20  C   UNL     1      -8.275  -3.636  25.712  0.00  0.00    +0.000 A 
ENDBRANCH  11  13
BRANCH   6  21
ATOM     21  O   UNL     1     -13.987  -9.728  28.297  0.00  0.00    +0.000 OA
ATOM     22  C   UNL     1     -13.913 -11.034  27.797  0.00  0.00    +0.000 C 
ENDBRANCH   6  21
BRANCH   3  23
ATOM     23  O   UNL     1     -14.461  -7.112  28.206  0.00  0.00    +0.000 OA
BRANCH  23  24
ATOM     24  C   UNL     1     -14.601  -5.791  28.296  0.00  0.00    +0.000 C 
ATOM     25  C   UNL     1     -14.765  -4.270  28.381  0.00  0.00    +0.000 C 
BRANCH  25  26
ATOM     26  C   UNL     1     -14.940  -2.748  28.432  0.00  0.00    +0.000 C 
BRANCH  26  27
ATOM     27  N   UNL     1     -15.121  -1.304  28.483  0.00  0.00    +0.000 N 
ATOM     28  C   UNL     1     -14.091  -0.777  29.430  0.00  0.00    +0.000 C 
ATOM     29  C   UNL     1     -12.816   0.073  29.118  0.00  0.00    +0.000 C 
ATOM     30  O   UNL     1     -12.259   0.570  27.992  0.00  0.00    +0.000 OA
ATOM     31  C   UNL     1     -13.187   0.094  27.138  0.00  0.00    +0.000 C 
ATOM     32  C   UNL     1     -14.493  -0.749  27.247  0.00  0.00    +0.000 C 
ENDBRANCH  26  27
ENDBRANCH  25  26
ENDBRANCH  23  24
ENDBRANCH   3  23
TORSDOF 6
ENDMDL
MODEL 5
REMARK VINA RESULT:      -5.2     17.116     19.970
REMARK  Name = Gefitinib.pdbqt.pdb
REMARK  6 active torsions:
REMARK  status: ('A' for Active; 'I' for Inactive)
REMARK    1  A    between atoms: C_3  and  O_11
REMARK    2  A    between atoms: C_6  and  O_21
REMARK    3  A    between atoms: O_11  and  C_12
REMARK    4  A    between atoms: C_13  and  C_14
REMARK    5  A    between atoms: C_14  and  N_15
REMARK    6  A    between atoms: N_23  and  C_25
REMARK                            x       y       z     vdW  Elec       q    Type
REMARK                         _______ _______ _______ _____ _____    ______ ____
ROOT
ATOM      1  N   UNL     1     -10.694 -10.818  27.177  0.00  0.00    +0.000 NA
ATOM      2  N   UNL     1     -10.151  -8.554  26.668  0.00  0.00    +0.000 NA
ATOM      3  C   UNL     1      -7.951 -10.863  30.304  0.00  0.00    +0.000 A 
ATOM      4  C   UNL     1      -9.058  -9.663  28.485  0.00  0.00    +0.000 A 
ATOM      5  C   UNL     1      -8.134  -9.708  29.543  0.00  0.00    +0.000 A 
ATOM      6  C   UNL     1      -8.710 -11.995  30.005  0.00  0.00    +0.000 A 
ATOM      7  C   UNL     1      -9.812 -10.798  28.177  0.00  0.00    +0.000 A 
ATOM      8  C   UNL     1      -9.624 -11.939  28.946  0.00  0.00    +0.000 A 
ATOM      9  C   UNL     1      -9.276  -8.532  27.686  0.00  0.00    +0.000 A 
ATOM     10  C   UNL     1     -10.821  -9.694  26.461  0.00  0.00    +0.000 A 
ATOM     11  N   UNL     1      -8.522  -7.357  27.939  0.00  0.00    +0.000 N 
ATOM     12  H   UNL     1      -8.505  -7.140  28.931  0.00  0.00    +0.000 HD
ENDROOT
BRANCH  11  13
ATOM     13  C   UNL     1      -8.438  -6.193  27.143  0.00  0.00    +0.000 A 
ATOM     14  C   UNL     1      -9.101  -5.035  27.565  0.00  0.00    +0.000 A 
ATOM     15  C   UNL     1      -8.962  -3.836  26.870  0.00  0.00    +0.000 A 
ATOM     16 CL   UNL     1      -9.827  -2.456  27.417  0.00  0.00    +0.000 Cl
ATOM     17  C   UNL     1      -8.131  -3.774  25.757  0.00  0.00    +0.000 A 
ATOM     18  F   UNL     1      -7.984  -2.629  25.075  0.00  0.00    +0.000 F 
ATOM     19  C   UNL     1      -7.431  -4.899  25.341  0.00  0.00    +0.000 A 
ATOM     20  C   UNL     1      -7.576  -6.092  26.045  0.00  0.00    +0.000 A 
ENDBRANCH  11  13
BRANCH   6  21
ATOM     21  O   UNL     1      -8.498 -13.112  30.779  0.00  0.00    +0.000 OA
ATOM     22  C   UNL     1      -8.597 -14.340  30.113  0.00  0.00    +0.000 C 
ENDBRANCH   6  21
BRANCH   3  23
ATOM     23  O   UNL     1      -7.059 -10.947  31.346  0.00  0.00    +0.000 OA
BRANCH  23  24
ATOM     24  C   UNL     1      -5.881 -10.371  31.116  0.00  0.00    +0.000 C 
ATOM     25  C   UNL     1      -4.523  -9.718  30.836  0.00  0.00    +0.000 C 
BRANCH  25  26
ATOM     26  C   UNL     1      -3.165  -9.079  30.525  0.00  0.00    +0.000 C 
BRANCH  26  27
ATOM     27  N   UNL     1      -1.881  -8.463  30.220  0.00  0.00    +0.000 N 
ATOM     28  C   UNL     1      -1.392  -9.096  28.958  0.00  0.00    +0.000 C 
ATOM     29  C   UNL     1      -1.267  -8.467  27.531  0.00  0.00    +0.000 C 
ATOM     30  O   UNL     1      -1.539  -7.255  27.001  0.00  0.00    +0.000 OA
ATOM     31  C   UNL     1      -1.981  -6.684  28.139  0.00  0.00    +0.000 C 
ATOM     32  C   UNL     1      -2.178  -7.128  29.620  0.00  0.00    +0.000 C 
ENDBRANCH  26  27
ENDBRANCH  25  26
ENDBRANCH  23  24
ENDBRANCH   3  23
TORSDOF 6
ENDMDL
MODEL 6
REMARK VINA RESULT:      -5.1     18.315     21.683
REMARK  Name = Gefitinib.pdbqt.pdb
REMARK  6 active torsions:
REMARK  status: ('A' for Active; 'I' for Inactive)
REMARK    1  A    between atoms: C_3  and  O_11
REMARK    2  A    between atoms: C_6  and  O_21
REMARK    3  A    between atoms: O_11  and  C_12
REMARK    4  A    between atoms: C_13  and  C_14
REMARK    5  A    between atoms: C_14  and  N_15
REMARK    6  A    between atoms: N_23  and  C_25
REMARK                            x       y       z     vdW  Elec       q    Type
REMARK                         _______ _______ _______ _____ _____    ______ ____
ROOT
ATOM      1  N   UNL     1      10.406 -11.064  11.987  0.00  0.00    +0.000 NA
ATOM      2  N   UNL     1       9.137  -9.079  11.631  0.00  0.00    +0.000 NA
ATOM      3  C   UNL     1       7.125 -13.436  11.030  0.00  0.00    +0.000 A 
ATOM      4  C   UNL     1       8.118 -11.219  11.308  0.00  0.00    +0.000 A 
ATOM      5  C   UNL     1       7.024 -12.045  10.995  0.00  0.00    +0.000 A 
ATOM      6  C   UNL     1       8.345 -14.015  11.380  0.00  0.00    +0.000 A 
ATOM      7  C   UNL     1       9.338 -11.796  11.669  0.00  0.00    +0.000 A 
ATOM      8  C   UNL     1       9.426 -13.182  11.694  0.00  0.00    +0.000 A 
ATOM      9  C   UNL     1       8.068  -9.819  11.294  0.00  0.00    +0.000 A 
ATOM     10  C   UNL     1      10.256  -9.734  11.959  0.00  0.00    +0.000 A 
ATOM     11  N   UNL     1       6.848  -9.178  10.957  0.00  0.00    +0.000 N 
ATOM     12  H   UNL     1       6.433  -9.593  10.128  0.00  0.00    +0.000 HD
ENDROOT
BRANCH  11  13
ATOM     13  C   UNL     1       6.527  -7.808  11.076  0.00  0.00    +0.000 A 
ATOM     14  C   UNL     1       6.289  -7.064   9.914  0.00  0.00    +0.000 A 
ATOM     15  C   UNL     1       5.867  -5.739   9.985  0.00  0.00    +0.000 A 
ATOM     16 CL   UNL     1       5.624  -4.868   8.524  0.00  0.00    +0.000 Cl
ATOM     17  C   UNL     1       5.650  -5.148  11.224  0.00  0.00    +0.000 A 
ATOM     18  F   UNL     1       5.244  -3.873  11.313  0.00  0.00    +0.000 F 
ATOM     19  C   UNL     1       5.841  -5.875  12.392  0.00  0.00    +0.000 A 
ATOM     20  C   UNL     1       6.260  -7.201  12.309  0.00  0.00    +0.000 A 
ENDBRANCH  11  13
BRANCH   6  21
ATOM     21  O   UNL     1       8.401 -15.389  11.403  0.00  0.00    +0.000 OA
ATOM     22  C   UNL     1       8.974 -15.954  12.549  0.00  0.00    +0.000 C 
ENDBRANCH   6  21
BRANCH   3  23
ATOM     23  O   UNL     1       6.079 -14.276  10.732  0.00  0.00    +0.000 OA
BRANCH  23  24
ATOM     24  C   UNL     1       5.265 -14.535  11.752  0.00  0.00    +0.000 C 
ATOM     25  C   UNL     1       4.341 -14.838  12.937  0.00  0.00    +0.000 C 
BRANCH  25  26
ATOM     26  C   UNL     1       3.446 -15.148  14.142  0.00  0.00    +0.000 C 
BRANCH  26  27
ATOM     27  N   UNL     1       2.598 -15.456  15.285  0.00  0.00    +0.000 N 
ATOM     28  C   UNL     1       2.130 -16.863  15.102  0.00  0.00    +0.000 C 
ATOM     29  C   UNL     1       2.526 -18.141  15.911  0.00  0.00    +0.000 C 
ATOM     30  O   UNL     1       3.355 -18.389  16.949  0.00  0.00    +0.000 OA
ATOM     31  C   UNL     1       3.779 -17.119  17.114  0.00  0.00    +0.000 C 
ATOM     32  C   UNL     1       3.511 -15.744  16.431  0.00  0.00    +0.000 C 
ENDBRANCH  26  27
ENDBRANCH  25  26
ENDBRANCH  23  24
ENDBRANCH   3  23
TORSDOF 6
ENDMDL
MODEL 7
REMARK VINA RESULT:      -5.0     21.174     25.163
REMARK  Name = Gefitinib.pdbqt.pdb
REMARK  6 active torsions:
REMARK  status: ('A' for Active; 'I' for Inactive)
REMARK    1  A    between atoms: C_3  and  O_11
REMARK    2  A    between atoms: C_6  and  O_21
REMARK    3  A    between atoms: O_11  and  C_12
REMARK    4  A    between atoms: C_13  and  C_14
REMARK    5  A    between atoms: C_14  and  N_15
REMARK    6  A    between atoms: N_23  and  C_25
REMARK                            x       y       z     vdW  Elec       q    Type
REMARK                         _______ _______ _______ _____ _____    ______ ____
ROOT
ATOM      1  N   UNL     1      12.963 -12.873  11.986  0.00  0.00    +0.000 NA
ATOM      2  N   UNL     1      10.674 -13.515  12.148  0.00  0.00    +0.000 NA
ATOM      3  C   UNL     1      11.898  -9.128  10.520  0.00  0.00    +0.000 A 
ATOM      4  C   UNL     1      11.246 -11.331  11.356  0.00  0.00    +0.000 A 
ATOM      5  C   UNL     1      10.915 -10.061  10.853  0.00  0.00    +0.000 A 
ATOM      6  C   UNL     1      13.239  -9.469  10.698  0.00  0.00    +0.000 A 
ATOM      7  C   UNL     1      12.589 -11.679  11.525  0.00  0.00    +0.000 A 
ATOM      8  C   UNL     1      13.556 -10.739  11.195  0.00  0.00    +0.000 A 
ATOM      9  C   UNL     1      10.299 -12.306  11.700  0.00  0.00    +0.000 A 
ATOM     10  C   UNL     1      11.986 -13.743  12.273  0.00  0.00    +0.000 A 
ATOM     11  N   UNL     1       8.921 -12.016  11.528  0.00  0.00    +0.000 N 
ATOM     12  H   UNL     1       8.692 -11.098  11.898  0.00  0.00    +0.000 HD
ENDROOT
BRANCH  11  13
ATOM     13  C   UNL     1       7.830 -12.908  11.618  0.00  0.00    +0.000 A 
ATOM     14  C   UNL     1       6.544 -12.388  11.806  0.00  0.00    +0.000 A 
ATOM     15  C   UNL     1       5.426 -13.219  11.796  0.00  0.00    +0.000 A 
ATOM     16 CL   UNL     1       3.877 -12.527  12.066  0.00  0.00    +0.000 Cl
ATOM     17  C   UNL     1       5.580 -14.582  11.567  0.00  0.00    +0.000 A 
ATOM     18  F   UNL     1       4.516 -15.398  11.553  0.00  0.00    +0.000 F 
ATOM     19  C   UNL     1       6.840 -15.117  11.339  0.00  0.00    +0.000 A 
ATOM     20  C   UNL     1       7.951 -14.276  11.348  0.00  0.00    +0.000 A 
ENDBRANCH  11  13
BRANCH   6  21
ATOM     21  O   UNL     1      14.175  -8.521  10.356  0.00  0.00    +0.000 OA
ATOM     22  C   UNL     1      14.827  -7.898  11.428  0.00  0.00    +0.000 C 
ENDBRANCH   6  21
BRANCH   3  23
ATOM     23  O   UNL     1      11.614  -7.877  10.027  0.00  0.00    +0.000 OA
BRANCH  23  24
ATOM     24  C   UNL     1      10.325  -7.548  10.054  0.00  0.00    +0.000 C 
ATOM     25  C   UNL     1       8.841  -7.167  10.102  0.00  0.00    +0.000 C 
BRANCH  25  26
ATOM     26  C   UNL     1       7.361  -6.779  10.186  0.00  0.00    +0.000 C 
BRANCH  26  27
ATOM     27  N   UNL     1       5.958  -6.396  10.266  0.00  0.00    +0.000 N 
ATOM     28  C   UNL     1       5.899  -5.165  11.111  0.00  0.00    +0.000 C 
ATOM     29  C   UNL     1       5.575  -3.696  10.682  0.00  0.00    +0.000 C 
ATOM     30  O   UNL     1       5.274  -3.094   9.511  0.00  0.00    +0.000 OA
ATOM     31  C   UNL     1       5.328  -4.204   8.748  0.00  0.00    +0.000 C 
ATOM     32  C   UNL     1       5.625  -5.717   8.978  0.00  0.00    +0.000 C 
ENDBRANCH  26  27
ENDBRANCH  25  26
ENDBRANCH  23  24
ENDBRANCH   3  23
TORSDOF 6
ENDMDL
MODEL 8
REMARK VINA RESULT:      -5.0     26.779     29.656
REMARK  Name = Gefitinib.pdbqt.pdb
REMARK  6 active torsions:
REMARK  status: ('A' for Active; 'I' for Inactive)
REMARK    1  A    between atoms: C_3  and  O_11
REMARK    2  A    between atoms: C_6  and  O_21
REMARK    3  A    between atoms: O_11  and  C_12
REMARK    4  A    between atoms: C_13  and  C_14
REMARK    5  A    between atoms: C_14  and  N_15
REMARK    6  A    between atoms: N_23  and  C_25
REMARK                            x       y       z     vdW  Elec       q    Type
REMARK                         _______ _______ _______ _____ _____    ______ ____
ROOT
ATOM      1  N   UNL     1      -4.161  10.537   2.917  0.00  0.00    +0.000 NA
ATOM      2  N   UNL     1      -5.760   9.105   3.950  0.00  0.00    +0.000 NA
ATOM      3  C   UNL     1      -5.051   8.969  -0.832  0.00  0.00    +0.000 A 
ATOM      4  C   UNL     1      -5.446   9.027   1.580  0.00  0.00    +0.000 A 
ATOM      5  C   UNL     1      -5.722   8.510   0.303  0.00  0.00    +0.000 A 
ATOM      6  C   UNL     1      -4.087   9.967  -0.687  0.00  0.00    +0.000 A 
ATOM      7  C   UNL     1      -4.474  10.019   1.729  0.00  0.00    +0.000 A 
ATOM      8  C   UNL     1      -3.818  10.470   0.591  0.00  0.00    +0.000 A 
ATOM      9  C   UNL     1      -6.086   8.597   2.751  0.00  0.00    +0.000 A 
ATOM     10  C   UNL     1      -4.816  10.053   3.979  0.00  0.00    +0.000 A 
ATOM     11  N   UNL     1      -7.066   7.576   2.663  0.00  0.00    +0.000 N 
ATOM     12  H   UNL     1      -7.716   7.757   1.905  0.00  0.00    +0.000 HD
ENDROOT
BRANCH  11  13
ATOM     13  C   UNL     1      -7.676   6.866   3.721  0.00  0.00    +0.000 A 
ATOM     14  C   UNL     1      -6.866   6.310   4.719  0.00  0.00    +0.000 A 
ATOM     15  C   UNL     1      -7.426   5.692   5.834  0.00  0.00    +0.000 A 
ATOM     16 CL   UNL     1      -6.382   4.999   7.009  0.00  0.00    +0.000 Cl
ATOM     17  C   UNL     1      -8.808   5.649   5.980  0.00  0.00    +0.000 A 
ATOM     18  F   UNL     1      -9.366   5.059   7.047  0.00  0.00    +0.000 F 
ATOM     19  C   UNL     1      -9.633   6.227   5.024  0.00  0.00    +0.000 A 
ATOM     20  C   UNL     1      -9.062   6.845   3.914  0.00  0.00    +0.000 A 
ENDBRANCH  11  13
BRANCH   6  21
ATOM     21  O   UNL     1      -3.449  10.389  -1.830  0.00  0.00    +0.000 OA
ATOM     22  C   UNL     1      -3.719  11.705  -2.225  0.00  0.00    +0.000 C 
ENDBRANCH   6  21
BRANCH   3  23
ATOM     23  O   UNL     1      -5.293   8.489  -2.097  0.00  0.00    +0.000 OA
BRANCH  23  24
ATOM     24  C   UNL     1      -4.392   7.616  -2.542  0.00  0.00    +0.000 C 
ATOM     25  C   UNL     1      -3.351   6.622  -3.067  0.00  0.00    +0.000 C 
BRANCH  25  26
ATOM     26  C   UNL     1      -2.298   5.653  -3.616  0.00  0.00    +0.000 C 
BRANCH  26  27
ATOM     27  N   UNL     1      -1.287   4.739  -4.130  0.00  0.00    +0.000 N 
ATOM     28  C   UNL     1      -0.819   5.307  -5.431  0.00  0.00    +0.000 C 
ATOM     29  C   UNL     1       0.561   5.955  -5.778  0.00  0.00    +0.000 C 
ATOM     30  O   UNL     1       1.693   6.205  -5.084  0.00  0.00    +0.000 OA
ATOM     31  C   UNL     1       1.271   5.694  -3.911  0.00  0.00    +0.000 C 
ATOM     32  C   UNL     1      -0.030   5.023  -3.375  0.00  0.00    +0.000 C 
ENDBRANCH  26  27
ENDBRANCH  25  26
ENDBRANCH  23  24
ENDBRANCH   3  23
TORSDOF 6
ENDMDL
MODEL 9
REMARK VINA RESULT:      -4.9     16.482     18.674
REMARK  Name = Gefitinib.pdbqt.pdb
REMARK  6 active torsions:
REMARK  status: ('A' for Active; 'I' for Inactive)
REMARK    1  A    between atoms: C_3  and  O_11
REMARK    2  A    between atoms: C_6  and  O_21
REMARK    3  A    between atoms: O_11  and  C_12
REMARK    4  A    between atoms: C_13  and  C_14
REMARK    5  A    between atoms: C_14  and  N_15
REMARK    6  A    between atoms: N_23  and  C_25
REMARK                            x       y       z     vdW  Elec       q    Type
REMARK                         _______ _______ _______ _____ _____    ______ ____
ROOT
ATOM      1  N   UNL     1       6.161 -11.095  14.648  0.00  0.00    +0.000 NA
ATOM      2  N   UNL     1       4.302 -11.156  16.137  0.00  0.00    +0.000 NA
ATOM      3  C   UNL     1       4.400 -13.956  12.195  0.00  0.00    +0.000 A 
ATOM      4  C   UNL     1       4.312 -12.539  14.185  0.00  0.00    +0.000 A 
ATOM      5  C   UNL     1       3.743 -13.509  13.342  0.00  0.00    +0.000 A 
ATOM      6  C   UNL     1       5.649 -13.419  11.881  0.00  0.00    +0.000 A 
ATOM      7  C   UNL     1       5.567 -12.008  13.879  0.00  0.00    +0.000 A 
ATOM      8  C   UNL     1       6.207 -12.457  12.731  0.00  0.00    +0.000 A 
ATOM      9  C   UNL     1       3.698 -12.062  15.351  0.00  0.00    +0.000 A 
ATOM     10  C   UNL     1       5.503 -10.712  15.749  0.00  0.00    +0.000 A 
ATOM     11  N   UNL     1       2.432 -12.583  15.725  0.00  0.00    +0.000 N 
ATOM     12  H   UNL     1       1.800 -12.610  14.931  0.00  0.00    +0.000 HD
ENDROOT
BRANCH  11  13
ATOM     13  C   UNL     1       1.742 -12.395  16.942  0.00  0.00    +0.000 A 
ATOM     14  C   UNL     1       1.971 -13.288  17.996  0.00  0.00    +0.000 A 
ATOM     15  C   UNL     1       1.395 -13.083  19.247  0.00  0.00    +0.000 A 
ATOM     16 CL   UNL     1       1.686 -14.231  20.491  0.00  0.00    +0.000 Cl
ATOM     17  C   UNL     1       0.602 -11.963  19.468  0.00  0.00    +0.000 A 
ATOM     18  F   UNL     1       0.038 -11.748  20.666  0.00  0.00    +0.000 F 
ATOM     19  C   UNL     1       0.390 -11.041  18.451  0.00  0.00    +0.000 A 
ATOM     20  C   UNL     1       0.974 -11.254  17.205  0.00  0.00    +0.000 A 
ENDBRANCH  11  13
BRANCH   6  21
ATOM     21  O   UNL     1       6.261 -13.887  10.742  0.00  0.00    +0.000 OA
ATOM     22  C   UNL     1       7.320 -14.781  10.946  0.00  0.00    +0.000 C 
ENDBRANCH   6  21
BRANCH   3  23
ATOM     23  O   UNL     1       3.877 -14.902  11.346  0.00  0.00    +0.000 OA
BRANCH  23  24
ATOM     24  C   UNL     1       3.300 -15.936  11.954  0.00  0.00    +0.000 C 
ATOM     25  C   UNL     1       2.637 -17.118  12.669  0.00  0.00    +0.000 C 
BRANCH  25  26
ATOM     26  C   UNL     1       1.972 -18.281  13.414  0.00  0.00    +0.000 C 
BRANCH  26  27
ATOM     27  N   UNL     1       1.335 -19.390  14.109  0.00  0.00    +0.000 N 
ATOM     28  C   UNL     1       2.382 -20.443  14.284  0.00  0.00    +0.000 C 
ATOM     29  C   UNL     1       3.090 -20.912  15.597  0.00  0.00    +0.000 C 
ATOM     30  O   UNL     1       3.011 -20.555  16.898  0.00  0.00    +0.000 OA
ATOM     31  C   UNL     1       2.067 -19.606  16.740  0.00  0.00    +0.000 C 
ATOM     32  C   UNL     1       1.259 -19.006  15.550  0.00  0.00    +0.000 C 
ENDBRANCH  26  27
ENDBRANCH  25  26
ENDBRANCH  23  24
ENDBRANCH   3  23
TORSDOF 6
ENDMDL
