MODEL 1
REMARK VINA RESULT:      -5.9      0.000      0.000
REMARK  Name = Genistein.pdbqt.pdb
REMARK  4 active torsions:
REMARK  status: ('A' for Active; 'I' for Inactive)
REMARK    1  A    between atoms: C_4  and  C_12
REMARK    2  A    between atoms: C_7  and  O_20
REMARK    3  A    between atoms: C_11  and  O_22
REMARK    4  A    between atoms: C_17  and  O_18
REMARK                            x       y       z     vdW  Elec       q    Type
REMARK                         _______ _______ _______ _____ _____    ______ ____
ROOT
ATOM      1  O   UNL     1       9.047  -8.990  10.442  0.00  0.00    +0.000 OA
ATOM      2  O   UNL     1       4.919  -9.014  11.124  0.00  0.00    +0.000 OA
ATOM      3  C   UNL     1       6.980 -10.199  11.098  0.00  0.00    +0.000 A 
ATOM      4  C   UNL     1       6.864  -7.740  10.470  0.00  0.00    +0.000 A 
ATOM      5  C   UNL     1       8.385 -10.145  10.854  0.00  0.00    +0.000 A 
ATOM      6  C   UNL     1       6.125  -8.967  10.914  0.00  0.00    +0.000 A 
ATOM      7  C   UNL     1       6.404 -11.404  11.510  0.00  0.00    +0.000 A 
ATOM      8  C   UNL     1       8.114  -8.058  10.349  0.00  0.00    +0.000 A 
ATOM      9  C   UNL     1       9.172 -11.280  11.024  0.00  0.00    +0.000 A 
ATOM     10  C   UNL     1       7.199 -12.536  11.678  0.00  0.00    +0.000 A 
ATOM     11  C   UNL     1       8.570 -12.465  11.435  0.00  0.00    +0.000 A 
ENDROOT
BRANCH   4  12
ATOM     12  C   UNL     1       6.294  -6.419  10.215  0.00  0.00    +0.000 A 
ATOM     13  C   UNL     1       6.225  -5.454  11.224  0.00  0.00    +0.000 A 
ATOM     14  C   UNL     1       5.804  -6.088   8.946  0.00  0.00    +0.000 A 
ATOM     15  C   UNL     1       5.682  -4.194  10.981  0.00  0.00    +0.000 A 
ATOM     16  C   UNL     1       5.258  -4.831   8.689  0.00  0.00    +0.000 A 
ATOM     17  C   UNL     1       5.203  -3.894   9.711  0.00  0.00    +0.000 A 
BRANCH  17  18
ATOM     18  O   UNL     1       4.666  -2.669   9.441  0.00  0.00    +0.000 OA
ATOM     19  H   UNL     1       4.398  -2.654   8.504  0.00  0.00    +0.000 HD
ENDBRANCH  17  18
ENDBRANCH   4  12
BRANCH   7  20
ATOM     20  O   UNL     1       5.068 -11.550  11.768  0.00  0.00    +0.000 OA
ATOM     21  H   UNL     1       4.658 -12.056  11.030  0.00  0.00    +0.000 HD
ENDBRANCH   7  20
BRANCH  11  22
ATOM     22  O   UNL     1       9.358 -13.567  11.596  0.00  0.00    +0.000 OA
ATOM     23  H   UNL     1      10.277 -13.316  11.392  0.00  0.00    +0.000 HD
ENDBRANCH  11  22
TORSDOF 4
ENDMDL
MODEL 2
REMARK VINA RESULT:      -5.9     15.168     17.214
REMARK  Name = Genistein.pdbqt.pdb
REMARK  4 active torsions:
REMARK  status: ('A' for Active; 'I' for Inactive)
REMARK    1  A    between atoms: C_4  and  C_12
REMARK    2  A    between atoms: C_7  and  O_20
REMARK    3  A    between atoms: C_11  and  O_22
REMARK    4  A    between atoms: C_17  and  O_18
REMARK                            x       y       z     vdW  Elec       q    Type
REMARK                         _______ _______ _______ _____ _____    ______ ____
ROOT
ATOM      1  O   UNL     1      -2.291  -3.254  -2.247  0.00  0.00    +0.000 OA
ATOM      2  O   UNL     1      -3.953  -6.801  -0.775  0.00  0.00    +0.000 OA
ATOM      3  C   UNL     1      -3.980  -4.424  -0.853  0.00  0.00    +0.000 A 
ATOM      4  C   UNL     1      -2.267  -5.768  -2.163  0.00  0.00    +0.000 A 
ATOM      5  C   UNL     1      -3.381  -3.241  -1.379  0.00  0.00    +0.000 A 
ATOM      6  C   UNL     1      -3.439  -5.785  -1.228  0.00  0.00    +0.000 A 
ATOM      7  C   UNL     1      -5.072  -4.312   0.012  0.00  0.00    +0.000 A 
ATOM      8  C   UNL     1      -1.996  -4.530  -2.429  0.00  0.00    +0.000 A 
ATOM      9  C   UNL     1      -3.879  -1.988  -1.033  0.00  0.00    +0.000 A 
ATOM     10  C   UNL     1      -5.564  -3.054   0.353  0.00  0.00    +0.000 A 
ATOM     11  C   UNL     1      -4.967  -1.908  -0.170  0.00  0.00    +0.000 A 
ENDROOT
BRANCH   4  12
ATOM     12  C   UNL     1      -1.547  -6.928  -2.686  0.00  0.00    +0.000 A 
ATOM     13  C   UNL     1      -1.780  -7.397  -3.982  0.00  0.00    +0.000 A 
ATOM     14  C   UNL     1      -0.604  -7.596  -1.897  0.00  0.00    +0.000 A 
ATOM     15  C   UNL     1      -1.094  -8.502  -4.482  0.00  0.00    +0.000 A 
ATOM     16  C   UNL     1       0.089  -8.703  -2.385  0.00  0.00    +0.000 A 
ATOM     17  C   UNL     1      -0.163  -9.147  -3.676  0.00  0.00    +0.000 A 
BRANCH  17  18
ATOM     18  O   UNL     1       0.525 -10.231  -4.136  0.00  0.00    +0.000 OA
ATOM     19  H   UNL     1       0.086 -10.551  -4.944  0.00  0.00    +0.000 HD
ENDBRANCH  17  18
ENDBRANCH   4  12
BRANCH   7  20
ATOM     20  O   UNL     1      -5.709  -5.390   0.564  0.00  0.00    +0.000 OA
ATOM     21  H   UNL     1      -6.225  -5.085   1.345  0.00  0.00    +0.000 HD
ENDBRANCH   7  20
BRANCH  11  22
ATOM     22  O   UNL     1      -5.442  -0.671   0.157  0.00  0.00    +0.000 OA
ATOM     23  H   UNL     1      -4.883  -0.006  -0.283  0.00  0.00    +0.000 HD
ENDBRANCH  11  22
TORSDOF 4
ENDMDL
MODEL 3
REMARK VINA RESULT:      -5.2     23.045     24.608
REMARK  Name = Genistein.pdbqt.pdb
REMARK  4 active torsions:
REMARK  status: ('A' for Active; 'I' for Inactive)
REMARK    1  A    between atoms: C_4  and  C_12
REMARK    2  A    between atoms: C_7  and  O_20
REMARK    3  A    between atoms: C_11  and  O_22
REMARK    4  A    between atoms: C_17  and  O_18
REMARK                            x       y       z     vdW  Elec       q    Type
REMARK                         _______ _______ _______ _____ _____    ______ ____
ROOT
ATOM      1  O   UNL     1     -11.083  -5.500  27.931  0.00  0.00    +0.000 OA
ATOM      2  O   UNL     1      -9.597  -8.829  25.878  0.00  0.00    +0.000 OA
ATOM      3  C   UNL     1      -9.246  -6.625  26.699  0.00  0.00    +0.000 A 
ATOM      4  C   UNL     1     -11.452  -7.831  27.062  0.00  0.00    +0.000 A 
ATOM      5  C   UNL     1      -9.793  -5.513  27.405  0.00  0.00    +0.000 A 
ATOM      6  C   UNL     1     -10.068  -7.874  26.485  0.00  0.00    +0.000 A 
ATOM      7  C   UNL     1      -7.940  -6.546  26.207  0.00  0.00    +0.000 A 
ATOM      8  C   UNL     1     -11.604  -6.676  27.627  0.00  0.00    +0.000 A 
ATOM      9  C   UNL     1      -9.035  -4.362  27.601  0.00  0.00    +0.000 A 
ATOM     10  C   UNL     1      -7.187  -5.390  26.408  0.00  0.00    +0.000 A 
ATOM     11  C   UNL     1      -7.738  -4.314  27.100  0.00  0.00    +0.000 A 
ENDROOT
BRANCH   4  12
ATOM     12  C   UNL     1     -12.458  -8.890  27.005  0.00  0.00    +0.000 A 
ATOM     13  C   UNL     1     -13.071  -9.367  28.166  0.00  0.00    +0.000 A 
ATOM     14  C   UNL     1     -12.832  -9.450  25.777  0.00  0.00    +0.000 A 
ATOM     15  C   UNL     1     -14.031 -10.376  28.112  0.00  0.00    +0.000 A 
ATOM     16  C   UNL     1     -13.791 -10.460  25.709  0.00  0.00    +0.000 A 
ATOM     17  C   UNL     1     -14.383 -10.914  26.880  0.00  0.00    +0.000 A 
BRANCH  17  18
ATOM     18  O   UNL     1     -15.319 -11.903  26.792  0.00  0.00    +0.000 OA
ATOM     19  H   UNL     1     -15.026 -12.649  27.345  0.00  0.00    +0.000 HD
ENDBRANCH  17  18
ENDBRANCH   4  12
BRANCH   7  20
ATOM     20  O   UNL     1      -7.332  -7.561  25.519  0.00  0.00    +0.000 OA
ATOM     21  H   UNL     1      -7.175  -8.311  26.137  0.00  0.00    +0.000 HD
ENDBRANCH   7  20
BRANCH  11  22
ATOM     22  O   UNL     1      -7.011  -3.177  27.303  0.00  0.00    +0.000 OA
ATOM     23  H   UNL     1      -7.127  -2.903  28.230  0.00  0.00    +0.000 HD
ENDBRANCH  11  22
TORSDOF 4
ENDMDL
MODEL 4
REMARK VINA RESULT:      -5.1     16.348     17.223
REMARK  Name = Genistein.pdbqt.pdb
REMARK  4 active torsions:
REMARK  status: ('A' for Active; 'I' for Inactive)
REMARK    1  A    between atoms: C_4  and  C_12
REMARK    2  A    between atoms: C_7  and  O_20
REMARK    3  A    between atoms: C_11  and  O_22
REMARK    4  A    between atoms: C_17  and  O_18
REMARK                            x       y       z     vdW  Elec       q    Type
REMARK                         _______ _______ _______ _____ _____    ______ ____
ROOT
ATOM      1  O   UNL     1      -3.467  -6.690  -4.546  0.00  0.00    +0.000 OA
ATOM      2  O   UNL     1      -4.542  -7.279  -0.546  0.00  0.00    +0.000 OA
ATOM      3  C   UNL     1      -3.861  -8.211  -2.625  0.00  0.00    +0.000 A 
ATOM      4  C   UNL     1      -4.188  -5.707  -2.346  0.00  0.00    +0.000 A 
ATOM      5  C   UNL     1      -3.501  -7.964  -3.982  0.00  0.00    +0.000 A 
ATOM      6  C   UNL     1      -4.233  -7.066  -1.712  0.00  0.00    +0.000 A 
ATOM      7  C   UNL     1      -3.866  -9.525  -2.147  0.00  0.00    +0.000 A 
ATOM      8  C   UNL     1      -3.824  -5.863  -3.579  0.00  0.00    +0.000 A 
ATOM      9  C   UNL     1      -3.159  -9.020  -4.823  0.00  0.00    +0.000 A 
ATOM     10  C   UNL     1      -3.522 -10.577  -2.995  0.00  0.00    +0.000 A 
ATOM     11  C   UNL     1      -3.173 -10.316  -4.318  0.00  0.00    +0.000 A 
ENDROOT
BRANCH   4  12
ATOM     12  C   UNL     1      -4.496  -4.431  -1.705  0.00  0.00    +0.000 A 
ATOM     13  C   UNL     1      -5.818  -4.028  -1.497  0.00  0.00    +0.000 A 
ATOM     14  C   UNL     1      -3.468  -3.581  -1.280  0.00  0.00    +0.000 A 
ATOM     15  C   UNL     1      -6.114  -2.811  -0.886  0.00  0.00    +0.000 A 
ATOM     16  C   UNL     1      -3.750  -2.360  -0.667  0.00  0.00    +0.000 A 
ATOM     17  C   UNL     1      -5.073  -1.986  -0.475  0.00  0.00    +0.000 A 
BRANCH  17  18
ATOM     18  O   UNL     1      -5.328  -0.789   0.127  0.00  0.00    +0.000 OA
ATOM     19  H   UNL     1      -5.774  -0.212  -0.519  0.00  0.00    +0.000 HD
ENDBRANCH  17  18
ENDBRANCH   4  12
BRANCH   7  20
ATOM     20  O   UNL     1      -4.197  -9.857  -0.861  0.00  0.00    +0.000 OA
ATOM     21  H   UNL     1      -5.175  -9.953  -0.802  0.00  0.00    +0.000 HD
ENDBRANCH   7  20
BRANCH  11  22
ATOM     22  O   UNL     1      -2.834 -11.338  -5.157  0.00  0.00    +0.000 OA
ATOM     23  H   UNL     1      -2.267 -10.978  -5.861  0.00  0.00    +0.000 HD
ENDBRANCH  11  22
TORSDOF 4
ENDMDL
MODEL 5
REMARK VINA RESULT:      -5.1      4.355      8.604
REMARK  Name = Genistein.pdbqt.pdb
REMARK  4 active torsions:
REMARK  status: ('A' for Active; 'I' for Inactive)
REMARK    1  A    between atoms: C_4  and  C_12
REMARK    2  A    between atoms: C_7  and  O_20
REMARK    3  A    between atoms: C_11  and  O_22
REMARK    4  A    between atoms: C_17  and  O_18
REMARK                            x       y       z     vdW  Elec       q    Type
REMARK                         _______ _______ _______ _____ _____    ______ ____
ROOT
ATOM      1  O   UNL     1       6.475 -13.945  10.957  0.00  0.00    +0.000 OA
ATOM      2  O   UNL     1       3.119 -12.665  13.104  0.00  0.00    +0.000 OA
ATOM      3  C   UNL     1       5.110 -12.112  11.926  0.00  0.00    +0.000 A 
ATOM      4  C   UNL     1       4.368 -14.526  12.203  0.00  0.00    +0.000 A 
ATOM      5  C   UNL     1       6.239 -12.593  11.200  0.00  0.00    +0.000 A 
ATOM      6  C   UNL     1       4.089 -13.079  12.480  0.00  0.00    +0.000 A 
ATOM      7  C   UNL     1       4.957 -10.736  12.119  0.00  0.00    +0.000 A 
ATOM      8  C   UNL     1       5.470 -14.589  11.525  0.00  0.00    +0.000 A 
ATOM      9  C   UNL     1       7.179 -11.702  10.690  0.00  0.00    +0.000 A 
ATOM     10  C   UNL     1       5.903  -9.850  11.606  0.00  0.00    +0.000 A 
ATOM     11  C   UNL     1       6.999 -10.338  10.899  0.00  0.00    +0.000 A 
ENDROOT
BRANCH   4  12
ATOM     12  C   UNL     1       3.557 -15.669  12.617  0.00  0.00    +0.000 A 
ATOM     13  C   UNL     1       3.516 -16.079  13.952  0.00  0.00    +0.000 A 
ATOM     14  C   UNL     1       2.800 -16.381  11.679  0.00  0.00    +0.000 A 
ATOM     15  C   UNL     1       2.742 -17.169  14.348  0.00  0.00    +0.000 A 
ATOM     16  C   UNL     1       2.022 -17.473  12.061  0.00  0.00    +0.000 A 
ATOM     17  C   UNL     1       2.000 -17.858  13.396  0.00  0.00    +0.000 A 
BRANCH  17  18
ATOM     18  O   UNL     1       1.233 -18.928  13.750  0.00  0.00    +0.000 OA
ATOM     19  H   UNL     1       1.321 -19.062  14.710  0.00  0.00    +0.000 HD
ENDBRANCH  17  18
ENDBRANCH   4  12
BRANCH   7  20
ATOM     20  O   UNL     1       3.907 -10.183  12.802  0.00  0.00    +0.000 OA
ATOM     21  H   UNL     1       4.214  -9.354  13.235  0.00  0.00    +0.000 HD
ENDBRANCH   7  20
BRANCH  11  22
ATOM     22  O   UNL     1       7.932  -9.480  10.391  0.00  0.00    +0.000 OA
ATOM     23  H   UNL     1       8.354  -9.016  11.135  0.00  0.00    +0.000 HD
ENDBRANCH  11  22
TORSDOF 4
ENDMDL
MODEL 6
REMARK VINA RESULT:      -5.1     12.128     14.217
REMARK  Name = Genistein.pdbqt.pdb
REMARK  4 active torsions:
REMARK  status: ('A' for Active; 'I' for Inactive)
REMARK    1  A    between atoms: C_4  and  C_12
REMARK    2  A    between atoms: C_7  and  O_20
REMARK    3  A    between atoms: C_11  and  O_22
REMARK    4  A    between atoms: C_17  and  O_18
REMARK                            x       y       z     vdW  Elec       q    Type
REMARK                         _______ _______ _______ _____ _____    ______ ____
ROOT
ATOM      1  O   UNL     1      -1.902 -16.408  20.755  0.00  0.00    +0.000 OA
ATOM      2  O   UNL     1      -2.913 -13.816  17.630  0.00  0.00    +0.000 OA
ATOM      3  C   UNL     1      -3.334 -15.837  18.810  0.00  0.00    +0.000 A 
ATOM      4  C   UNL     1      -1.459 -14.270  19.505  0.00  0.00    +0.000 A 
ATOM      5  C   UNL     1      -2.954 -16.691  19.887  0.00  0.00    +0.000 A 
ATOM      6  C   UNL     1      -2.587 -14.549  18.556  0.00  0.00    +0.000 A 
ATOM      7  C   UNL     1      -4.406 -16.205  17.991  0.00  0.00    +0.000 A 
ATOM      8  C   UNL     1      -1.405 -15.253  20.347  0.00  0.00    +0.000 A 
ATOM      9  C   UNL     1      -3.643 -17.879  20.120  0.00  0.00    +0.000 A 
ATOM     10  C   UNL     1      -5.090 -17.395  18.230  0.00  0.00    +0.000 A 
ATOM     11  C   UNL     1      -4.706 -18.217  19.288  0.00  0.00    +0.000 A 
ENDROOT
BRANCH   4  12
ATOM     12  C   UNL     1      -0.573 -13.108  19.495  0.00  0.00    +0.000 A 
ATOM     13  C   UNL     1      -0.180 -12.490  20.685  0.00  0.00    +0.000 A 
ATOM     14  C   UNL     1      -0.095 -12.588  18.287  0.00  0.00    +0.000 A 
ATOM     15  C   UNL     1       0.666 -11.382  20.677  0.00  0.00    +0.000 A 
ATOM     16  C   UNL     1       0.751 -11.480  18.264  0.00  0.00    +0.000 A 
ATOM     17  C   UNL     1       1.125 -10.886  19.462  0.00  0.00    +0.000 A 
BRANCH  17  18
ATOM     18  O   UNL     1       1.954  -9.804  19.419  0.00  0.00    +0.000 OA
ATOM     19  H   UNL     1       1.404  -9.001  19.384  0.00  0.00    +0.000 HD
ENDBRANCH  17  18
ENDBRANCH   4  12
BRANCH   7  20
ATOM     20  O   UNL     1      -4.841 -15.450  16.936  0.00  0.00    +0.000 OA
ATOM     21  H   UNL     1      -4.257 -15.623  16.162  0.00  0.00    +0.000 HD
ENDBRANCH   7  20
BRANCH  11  22
ATOM     22  O   UNL     1      -5.369 -19.385  19.532  0.00  0.00    +0.000 OA
ATOM     23  H   UNL     1      -5.775 -19.324  20.415  0.00  0.00    +0.000 HD
ENDBRANCH  11  22
TORSDOF 4
ENDMDL
MODEL 7
REMARK VINA RESULT:      -5.0     20.192     22.005
REMARK  Name = Genistein.pdbqt.pdb
REMARK  4 active torsions:
REMARK  status: ('A' for Active; 'I' for Inactive)
REMARK    1  A    between atoms: C_4  and  C_12
REMARK    2  A    between atoms: C_7  and  O_20
REMARK    3  A    between atoms: C_11  and  O_22
REMARK    4  A    between atoms: C_17  and  O_18
REMARK                            x       y       z     vdW  Elec       q    Type
REMARK                         _______ _______ _______ _____ _____    ______ ____
ROOT
ATOM      1  O   UNL     1     -12.650 -18.438  13.738  0.00  0.00    +0.000 OA
ATOM      2  O   UNL     1     -14.178 -14.791  12.370  0.00  0.00    +0.000 OA
ATOM      3  C   UNL     1     -14.220 -16.532  13.990  0.00  0.00    +0.000 A 
ATOM      4  C   UNL     1     -12.609 -16.594  12.026  0.00  0.00    +0.000 A 
ATOM      5  C   UNL     1     -13.670 -17.775  14.419  0.00  0.00    +0.000 A 
ATOM      6  C   UNL     1     -13.705 -15.859  12.739  0.00  0.00    +0.000 A 
ATOM      7  C   UNL     1     -15.242 -15.941  14.739  0.00  0.00    +0.000 A 
ATOM      8  C   UNL     1     -12.366 -17.677  12.695  0.00  0.00    +0.000 A 
ATOM      9  C   UNL     1     -14.145 -18.395  15.571  0.00  0.00    +0.000 A 
ATOM     10  C   UNL     1     -15.713 -16.568  15.892  0.00  0.00    +0.000 A 
ATOM     11  C   UNL     1     -15.162 -17.782  16.296  0.00  0.00    +0.000 A 
ENDROOT
BRANCH   4  12
ATOM     12  C   UNL     1     -11.929 -16.181  10.801  0.00  0.00    +0.000 A 
ATOM     13  C   UNL     1     -12.629 -16.035   9.600  0.00  0.00    +0.000 A 
ATOM     14  C   UNL     1     -10.554 -15.918  10.803  0.00  0.00    +0.000 A 
ATOM     15  C   UNL     1     -11.982 -15.640   8.431  0.00  0.00    +0.000 A 
ATOM     16  C   UNL     1      -9.894 -15.523   9.641  0.00  0.00    +0.000 A 
ATOM     17  C   UNL     1     -10.616 -15.387   8.463  0.00  0.00    +0.000 A 
BRANCH  17  18
ATOM     18  O   UNL     1      -9.952 -14.998   7.336  0.00  0.00    +0.000 OA
ATOM     19  H   UNL     1     -10.153 -14.060   7.172  0.00  0.00    +0.000 HD
ENDBRANCH  17  18
ENDBRANCH   4  12
BRANCH   7  20
ATOM     20  O   UNL     1     -15.829 -14.751  14.405  0.00  0.00    +0.000 OA
ATOM     21  H   UNL     1     -16.807 -14.861  14.439  0.00  0.00    +0.000 HD
ENDBRANCH   7  20
BRANCH  11  22
ATOM     22  O   UNL     1     -15.615 -18.405  17.423  0.00  0.00    +0.000 OA
ATOM     23  H   UNL     1     -15.465 -19.362  17.324  0.00  0.00    +0.000 HD
ENDBRANCH  11  22
TORSDOF 4
ENDMDL
MODEL 8
REMARK VINA RESULT:      -4.6     14.671     17.221
REMARK  Name = Genistein.pdbqt.pdb
REMARK  4 active torsions:
REMARK  status: ('A' for Active; 'I' for Inactive)
REMARK    1  A    between atoms: C_4  and  C_12
REMARK    2  A    between atoms: C_7  and  O_20
REMARK    3  A    between atoms: C_11  and  O_22
REMARK    4  A    between atoms: C_17  and  O_18
REMARK                            x       y       z     vdW  Elec       q    Type
REMARK                         _______ _______ _______ _____ _____    ______ ____
ROOT
ATOM      1  O   UNL     1      -2.262  -4.599  -3.748  0.00  0.00    +0.000 OA
ATOM      2  O   UNL     1      -2.767  -7.606  -0.883  0.00  0.00    +0.000 OA
ATOM      3  C   UNL     1      -3.430  -5.493  -1.749  0.00  0.00    +0.000 A 
ATOM      4  C   UNL     1      -1.563  -6.835  -2.830  0.00  0.00    +0.000 A 
ATOM      5  C   UNL     1      -3.223  -4.494  -2.745  0.00  0.00    +0.000 A 
ATOM      6  C   UNL     1      -2.589  -6.748  -1.739  0.00  0.00    +0.000 A 
ATOM      7  C   UNL     1      -4.420  -5.299  -0.781  0.00  0.00    +0.000 A 
ATOM      8  C   UNL     1      -1.659  -5.757  -3.543  0.00  0.00    +0.000 A 
ATOM      9  C   UNL     1      -3.998  -3.337  -2.753  0.00  0.00    +0.000 A 
ATOM     10  C   UNL     1      -5.192  -4.139  -0.796  0.00  0.00    +0.000 A 
ATOM     11  C   UNL     1      -4.976  -3.173  -1.777  0.00  0.00    +0.000 A 
ENDROOT
BRANCH   4  12
ATOM     12  C   UNL     1      -0.619  -7.926  -3.060  0.00  0.00    +0.000 A 
ATOM     13  C   UNL     1       0.366  -8.239  -2.120  0.00  0.00    +0.000 A 
ATOM     14  C   UNL     1      -0.682  -8.686  -4.234  0.00  0.00    +0.000 A 
ATOM     15  C   UNL     1       1.266  -9.280  -2.338  0.00  0.00    +0.000 A 
ATOM     16  C   UNL     1       0.213  -9.730  -4.465  0.00  0.00    +0.000 A 
ATOM     17  C   UNL     1       1.181 -10.018  -3.512  0.00  0.00    +0.000 A 
BRANCH  17  18
ATOM     18  O   UNL     1       2.047 -11.044  -3.757  0.00  0.00    +0.000 OA
ATOM     19  H   UNL     1       2.776 -10.986  -3.113  0.00  0.00    +0.000 HD
ENDBRANCH  17  18
ENDBRANCH   4  12
BRANCH   7  20
ATOM     20  O   UNL     1      -4.690  -6.202   0.212  0.00  0.00    +0.000 OA
ATOM     21  H   UNL     1      -4.025  -6.927   0.168  0.00  0.00    +0.000 HD
ENDBRANCH   7  20
BRANCH  11  22
ATOM     22  O   UNL     1      -5.726  -2.033  -1.801  0.00  0.00    +0.000 OA
ATOM     23  H   UNL     1      -5.163  -1.293  -1.513  0.00  0.00    +0.000 HD
ENDBRANCH  11  22
TORSDOF 4
ENDMDL
MODEL 9
REMARK VINA RESULT:      -4.4     18.354     19.143
REMARK  Name = Genistein.pdbqt.pdb
REMARK  4 active torsions:
REMARK  status: ('A' for Active; 'I' for Inactive)
REMARK    1  A    between atoms: C_4  and  C_12
REMARK    2  A    between atoms: C_7  and  O_20
REMARK    3  A    between atoms: C_11  and  O_22
REMARK    4  A    between atoms: C_17  and  O_18
REMARK                            x       y       z     vdW  Elec       q    Type
REMARK                         _______ _______ _______ _____ _____    ______ ____
ROOT
ATOM      1  O   UNL     1      -8.402 -18.219   5.428  0.00  0.00    +0.000 OA
ATOM      2  O   UNL     1      -9.830 -14.295   5.682  0.00  0.00    +0.000 OA
ATOM      3  C   UNL     1      -8.678 -15.961   4.436  0.00  0.00    +0.000 A 
ATOM      4  C   UNL     1      -9.621 -16.455   6.743  0.00  0.00    +0.000 A 
ATOM      5  C   UNL     1      -8.209 -17.307   4.393  0.00  0.00    +0.000 A 
ATOM      6  C   UNL     1      -9.428 -15.452   5.645  0.00  0.00    +0.000 A 
ATOM      7  C   UNL     1      -8.437 -15.117   3.348  0.00  0.00    +0.000 A 
ATOM      8  C   UNL     1      -9.068 -17.563   6.362  0.00  0.00    +0.000 A 
ATOM      9  C   UNL     1      -7.518 -17.775   3.278  0.00  0.00    +0.000 A 
ATOM     10  C   UNL     1      -7.745 -15.594   2.236  0.00  0.00    +0.000 A 
ATOM     11  C   UNL     1      -7.294 -16.912   2.211  0.00  0.00    +0.000 A 
ENDROOT
BRANCH   4  12
ATOM     12  C   UNL     1     -10.303 -16.239   8.017  0.00  0.00    +0.000 A 
ATOM     13  C   UNL     1      -9.594 -16.217   9.221  0.00  0.00    +0.000 A 
ATOM     14  C   UNL     1     -11.689 -16.046   8.059  0.00  0.00    +0.000 A 
ATOM     15  C   UNL     1     -10.244 -16.011  10.437  0.00  0.00    +0.000 A 
ATOM     16  C   UNL     1     -12.352 -15.839   9.268  0.00  0.00    +0.000 A 
ATOM     17  C   UNL     1     -11.621 -15.823  10.448  0.00  0.00    +0.000 A 
BRANCH  17  18
ATOM     18  O   UNL     1     -12.287 -15.618  11.621  0.00  0.00    +0.000 OA
ATOM     19  H   UNL     1     -11.891 -16.192  12.301  0.00  0.00    +0.000 HD
ENDBRANCH  17  18
ENDBRANCH   4  12
BRANCH   7  20
ATOM     20  O   UNL     1      -8.849 -13.813   3.300  0.00  0.00    +0.000 OA
ATOM     21  H   UNL     1      -9.731 -13.776   2.865  0.00  0.00    +0.000 HD
ENDBRANCH   7  20
BRANCH  11  22
ATOM     22  O   UNL     1      -6.615 -17.390   1.127  0.00  0.00    +0.000 OA
ATOM     23  H   UNL     1      -5.666 -17.225   1.267  0.00  0.00    +0.000 HD
ENDBRANCH  11  22
TORSDOF 4
ENDMDL
