REMARK  Name = Genistein.pdbqt.pdb
REMARK  4 active torsions:
REMARK  status: ('A' for Active; 'I' for Inactive)
REMARK    1  A    between atoms: C_4  and  C_12
REMARK    2  A    between atoms: C_7  and  O_20
REMARK    3  A    between atoms: C_11  and  O_22
REMARK    4  A    between atoms: C_17  and  O_18
REMARK                            x       y       z     vdW  Elec       q    Type
REMARK                         _______ _______ _______ _____ _____    ______ ____
ROOT
ATOM      1  O   UNL     1       1.182   1.967   0.555  0.00  0.00    +0.000 OA
ATOM      2  O   UNL     1      -0.029  -1.894  -0.509  0.00  0.00    +0.000 OA
ATOM      3  C   UNL     1       1.742  -0.371  -0.063  0.00  0.00    +0.000 A 
ATOM      4  C   UNL     1      -0.689   0.353   0.083  0.00  0.00    +0.000 A 
ATOM      5  C   UNL     1       2.109   0.958   0.302  0.00  0.00    +0.000 A 
ATOM      6  C   UNL     1       0.286  -0.752  -0.195  0.00  0.00    +0.000 A 
ATOM      7  C   UNL     1       2.744  -1.317  -0.297  0.00  0.00    +0.000 A 
ATOM      8  C   UNL     1      -0.005   1.412   0.381  0.00  0.00    +0.000 A 
ATOM      9  C   UNL     1       3.451   1.309   0.423  0.00  0.00    +0.000 A 
ATOM     10  C   UNL     1       4.085  -0.958  -0.174  0.00  0.00    +0.000 A 
ATOM     11  C   UNL     1       4.425   0.345   0.184  0.00  0.00    +0.000 A 
ENDROOT
BRANCH   4  12
ATOM     12  C   UNL     1      -2.147   0.269   0.030  0.00  0.00    +0.000 A 
ATOM     13  C   UNL     1      -2.790  -0.926  -0.304  0.00  0.00    +0.000 A 
ATOM     14  C   UNL     1      -2.935   1.390   0.316  0.00  0.00    +0.000 A 
ATOM     15  C   UNL     1      -4.180  -1.007  -0.354  0.00  0.00    +0.000 A 
ATOM     16  C   UNL     1      -4.327   1.323   0.269  0.00  0.00    +0.000 A 
ATOM     17  C   UNL     1      -4.938   0.122  -0.066  0.00  0.00    +0.000 A 
BRANCH  17  18
ATOM     18  O   UNL     1      -6.301   0.076  -0.106  0.00  0.00    +0.000 OA
ATOM     19  H   UNL     1      -6.568  -0.827  -0.354  0.00  0.00    +0.000 HD
ENDBRANCH  17  18
ENDBRANCH   4  12
BRANCH   7  20
ATOM     20  O   UNL     1       2.487  -2.614  -0.651  0.00  0.00    +0.000 OA
ATOM     21  H   UNL     1       1.512  -2.739  -0.705  0.00  0.00    +0.000 HD
ENDBRANCH   7  20
BRANCH  11  22
ATOM     22  O   UNL     1       5.735   0.708   0.308  0.00  0.00    +0.000 OA
ATOM     23  H   UNL     1       6.286  -0.070   0.110  0.00  0.00    +0.000 HD
ENDBRANCH  11  22
TORSDOF 4
