MODEL 1
REMARK VINA RESULT:      -5.0      0.000      0.000
REMARK  Name = Hyoscyamine.pdbqt.pdb
REMARK  6 active torsions:
REMARK  status: ('A' for Active; 'I' for Inactive)
REMARK    1  A    between atoms: C_2  and  O_3
REMARK    2  A    between atoms: C_2  and  C_13
REMARK    3  A    between atoms: O_3  and  C_4
REMARK    4  A    between atoms: C_13  and  C_14
REMARK    5  A    between atoms: C_13  and  C_20
REMARK    6  A    between atoms: C_20  and  O_21
REMARK                            x       y       z     vdW  Elec       q    Type
REMARK                         _______ _______ _______ _____ _____    ______ ____
ROOT
ATOM      1  O   UNL     1      -8.297  -8.134  28.607  0.00  0.00    +0.000 OA
ATOM      2  C   UNL     1      -8.057  -7.557  27.553  0.00  0.00    +0.000 C 
ENDROOT
BRANCH   2   3
ATOM      3  O   UNL     1      -8.420  -7.958  26.300  0.00  0.00    +0.000 OA
BRANCH   3   4
ATOM      4  C   UNL     1      -9.787  -8.210  26.183  0.00  0.00    +0.000 C 
ATOM      5  C   UNL     1     -10.755  -7.433  26.938  0.00  0.00    +0.000 C 
ATOM      6  C   UNL     1     -11.961  -7.940  27.606  0.00  0.00    +0.000 C 
ATOM      7  N   UNL     1     -11.510  -9.263  28.238  0.00  0.00    +0.000 NA
ATOM      8  C   UNL     1     -13.007  -8.328  26.676  0.00  0.00    +0.000 C 
ATOM      9  C   UNL     1     -11.448 -10.080  26.938  0.00  0.00    +0.000 C 
ATOM     10  C   UNL     1     -12.528  -9.794  29.157  0.00  0.00    +0.000 C 
ATOM     11  C   UNL     1     -12.677  -9.753  26.228  0.00  0.00    +0.000 C 
ATOM     12  C   UNL     1     -10.239  -9.585  26.260  0.00  0.00    +0.000 C 
ENDBRANCH   3   4
ENDBRANCH   2   3
BRANCH   2  13
ATOM     13  C   UNL     1      -7.261  -6.296  27.483  0.00  0.00    +0.000 C 
BRANCH  13  14
ATOM     14  C   UNL     1      -7.763  -5.042  26.889  0.00  0.00    +0.000 A 
ATOM     15  C   UNL     1      -7.196  -4.544  25.710  0.00  0.00    +0.000 A 
ATOM     16  C   UNL     1      -7.635  -3.342  25.157  0.00  0.00    +0.000 A 
ATOM     17  C   UNL     1      -8.643  -2.617  25.782  0.00  0.00    +0.000 A 
ATOM     18  C   UNL     1      -9.210  -3.093  26.960  0.00  0.00    +0.000 A 
ATOM     19  C   UNL     1      -8.767  -4.295  27.509  0.00  0.00    +0.000 A 
ENDBRANCH  13  14
BRANCH  13  20
ATOM     20  C   UNL     1      -5.968  -6.312  28.094  0.00  0.00    +0.000 C 
BRANCH  20  21
ATOM     21  O   UNL     1      -4.766  -6.328  28.661  0.00  0.00    +0.000 OA
ATOM     22  H   UNL     1      -4.547  -5.451  29.022  0.00  0.00    +0.000 HD
ENDBRANCH  20  21
ENDBRANCH  13  20
ENDBRANCH   2  13
TORSDOF 6
ENDMDL
MODEL 2
REMARK VINA RESULT:      -4.7     26.854     28.571
REMARK  Name = Hyoscyamine.pdbqt.pdb
REMARK  6 active torsions:
REMARK  status: ('A' for Active; 'I' for Inactive)
REMARK    1  A    between atoms: C_2  and  O_3
REMARK    2  A    between atoms: C_2  and  C_13
REMARK    3  A    between atoms: O_3  and  C_4
REMARK    4  A    between atoms: C_13  and  C_14
REMARK    5  A    between atoms: C_13  and  C_20
REMARK    6  A    between atoms: C_20  and  O_21
REMARK                            x       y       z     vdW  Elec       q    Type
REMARK                         _______ _______ _______ _____ _____    ______ ____
ROOT
ATOM      1  O   UNL     1      -4.855  -7.102  -3.663  0.00  0.00    +0.000 OA
ATOM      2  C   UNL     1      -4.642  -6.152  -2.920  0.00  0.00    +0.000 C 
ENDROOT
BRANCH   2   3
ATOM      3  O   UNL     1      -4.139  -6.202  -1.652  0.00  0.00    +0.000 OA
BRANCH   3   4
ATOM      4  C   UNL     1      -5.020  -6.782  -0.739  0.00  0.00    +0.000 C 
ATOM      5  C   UNL     1      -5.455  -6.056   0.441  0.00  0.00    +0.000 C 
ATOM      6  C   UNL     1      -5.623  -6.598   1.795  0.00  0.00    +0.000 C 
ATOM      7  N   UNL     1      -4.418  -7.531   1.977  0.00  0.00    +0.000 NA
ATOM      8  C   UNL     1      -6.774  -7.477   1.919  0.00  0.00    +0.000 C 
ATOM      9  C   UNL     1      -4.921  -8.664   1.069  0.00  0.00    +0.000 C 
ATOM     10  C   UNL     1      -4.289  -7.977   3.372  0.00  0.00    +0.000 C 
ATOM     11  C   UNL     1      -6.316  -8.856   1.442  0.00  0.00    +0.000 C 
ATOM     12  C   UNL     1      -4.754  -8.135  -0.293  0.00  0.00    +0.000 C 
ENDBRANCH   3   4
ENDBRANCH   2   3
BRANCH   2  13
ATOM     13  C   UNL     1      -4.953  -4.742  -3.298  0.00  0.00    +0.000 C 
BRANCH  13  14
ATOM     14  C   UNL     1      -5.095  -3.644  -2.324  0.00  0.00    +0.000 A 
ATOM     15  C   UNL     1      -4.003  -2.825  -2.017  0.00  0.00    +0.000 A 
ATOM     16  C   UNL     1      -4.113  -1.807  -1.071  0.00  0.00    +0.000 A 
ATOM     17  C   UNL     1      -5.320  -1.601  -0.411  0.00  0.00    +0.000 A 
ATOM     18  C   UNL     1      -6.413  -2.412  -0.696  0.00  0.00    +0.000 A 
ATOM     19  C   UNL     1      -6.296  -3.428  -1.643  0.00  0.00    +0.000 A 
ENDBRANCH  13  14
BRANCH  13  20
ATOM     20  C   UNL     1      -5.048  -4.454  -4.696  0.00  0.00    +0.000 C 
BRANCH  20  21
ATOM     21  O   UNL     1      -5.136  -4.186  -5.995  0.00  0.00    +0.000 OA
ATOM     22  H   UNL     1      -4.503  -4.729  -6.499  0.00  0.00    +0.000 HD
ENDBRANCH  20  21
ENDBRANCH  13  20
ENDBRANCH   2  13
TORSDOF 6
ENDMDL
MODEL 3
REMARK VINA RESULT:      -4.6     12.477     14.413
REMARK  Name = Hyoscyamine.pdbqt.pdb
REMARK  6 active torsions:
REMARK  status: ('A' for Active; 'I' for Inactive)
REMARK    1  A    between atoms: C_2  and  O_3
REMARK    2  A    between atoms: C_2  and  C_13
REMARK    3  A    between atoms: O_3  and  C_4
REMARK    4  A    between atoms: C_13  and  C_14
REMARK    5  A    between atoms: C_13  and  C_20
REMARK    6  A    between atoms: C_20  and  O_21
REMARK                            x       y       z     vdW  Elec       q    Type
REMARK                         _______ _______ _______ _____ _____    ______ ____
ROOT
ATOM      1  O   UNL     1     -21.715  -2.418  18.293  0.00  0.00    +0.000 OA
ATOM      2  C   UNL     1     -20.543  -2.599  18.599  0.00  0.00    +0.000 C 
ENDROOT
BRANCH   2   3
ATOM      3  O   UNL     1     -19.551  -1.662  18.629  0.00  0.00    +0.000 OA
BRANCH   3   4
ATOM      4  C   UNL     1     -19.528  -0.931  19.817  0.00  0.00    +0.000 C 
ATOM      5  C   UNL     1     -18.795  -1.412  20.974  0.00  0.00    +0.000 C 
ATOM      6  C   UNL     1     -19.227  -1.354  22.377  0.00  0.00    +0.000 C 
ATOM      7  N   UNL     1     -20.720  -1.706  22.323  0.00  0.00    +0.000 NA
ATOM      8  C   UNL     1     -19.199  -0.009  22.926  0.00  0.00    +0.000 C 
ATOM      9  C   UNL     1     -21.206  -0.371  21.739  0.00  0.00    +0.000 C 
ATOM     10  C   UNL     1     -21.267  -1.935  23.669  0.00  0.00    +0.000 C 
ATOM     11  C   UNL     1     -20.514   0.652  22.511  0.00  0.00    +0.000 C 
ATOM     12  C   UNL     1     -20.782  -0.418  20.331  0.00  0.00    +0.000 C 
ENDBRANCH   3   4
ENDBRANCH   2   3
BRANCH   2  13
ATOM     13  C   UNL     1     -19.999  -3.941  18.963  0.00  0.00    +0.000 C 
BRANCH  13  14
ATOM     14  C   UNL     1     -20.510  -4.757  20.080  0.00  0.00    +0.000 A 
ATOM     15  C   UNL     1     -21.759  -5.380  19.986  0.00  0.00    +0.000 A 
ATOM     16  C   UNL     1     -22.271  -6.124  21.048  0.00  0.00    +0.000 A 
ATOM     17  C   UNL     1     -21.540  -6.248  22.225  0.00  0.00    +0.000 A 
ATOM     18  C   UNL     1     -20.301  -5.626  22.339  0.00  0.00    +0.000 A 
ATOM     19  C   UNL     1     -19.795  -4.883  21.274  0.00  0.00    +0.000 A 
ENDBRANCH  13  14
BRANCH  13  20
ATOM     20  C   UNL     1     -18.968  -4.469  18.124  0.00  0.00    +0.000 C 
BRANCH  20  21
ATOM     21  O   UNL     1     -18.011  -4.960  17.344  0.00  0.00    +0.000 OA
ATOM     22  H   UNL     1     -18.217  -4.797  16.407  0.00  0.00    +0.000 HD
ENDBRANCH  20  21
ENDBRANCH  13  20
ENDBRANCH   2  13
TORSDOF 6
ENDMDL
MODEL 4
REMARK VINA RESULT:      -4.4     28.673     30.246
REMARK  Name = Hyoscyamine.pdbqt.pdb
REMARK  6 active torsions:
REMARK  status: ('A' for Active; 'I' for Inactive)
REMARK    1  A    between atoms: C_2  and  O_3
REMARK    2  A    between atoms: C_2  and  C_13
REMARK    3  A    between atoms: O_3  and  C_4
REMARK    4  A    between atoms: C_13  and  C_14
REMARK    5  A    between atoms: C_13  and  C_20
REMARK    6  A    between atoms: C_20  and  O_21
REMARK                            x       y       z     vdW  Elec       q    Type
REMARK                         _______ _______ _______ _____ _____    ______ ____
ROOT
ATOM      1  O   UNL     1     -15.514   3.965  -2.978  0.00  0.00    +0.000 OA
ATOM      2  C   UNL     1     -15.218   2.825  -2.643  0.00  0.00    +0.000 C 
ENDROOT
BRANCH   2   3
ATOM      3  O   UNL     1     -16.057   1.752  -2.556  0.00  0.00    +0.000 OA
BRANCH   3   4
ATOM      4  C   UNL     1     -16.904   1.813  -1.449  0.00  0.00    +0.000 C 
ATOM      5  C   UNL     1     -16.748   0.890  -0.339  0.00  0.00    +0.000 C 
ATOM      6  C   UNL     1     -17.821   0.224   0.410  0.00  0.00    +0.000 C 
ATOM      7  N   UNL     1     -18.838  -0.176  -0.667  0.00  0.00    +0.000 NA
ATOM      8  C   UNL     1     -18.558   1.129   1.275  0.00  0.00    +0.000 C 
ATOM      9  C   UNL     1     -19.397   1.232  -0.927  0.00  0.00    +0.000 C 
ATOM     10  C   UNL     1     -19.870  -1.073  -0.127  0.00  0.00    +0.000 C 
ATOM     11  C   UNL     1     -19.612   1.802   0.395  0.00  0.00    +0.000 C 
ATOM     12  C   UNL     1     -18.332   1.909  -1.683  0.00  0.00    +0.000 C 
ENDBRANCH   3   4
ENDBRANCH   2   3
BRANCH   2  13
ATOM     13  C   UNL     1     -13.838   2.437  -2.225  0.00  0.00    +0.000 C 
BRANCH  13  14
ATOM     14  C   UNL     1     -13.152   2.994  -1.044  0.00  0.00    +0.000 A 
ATOM     15  C   UNL     1     -13.297   2.388   0.209  0.00  0.00    +0.000 A 
ATOM     16  C   UNL     1     -12.685   2.925   1.340  0.00  0.00    +0.000 A 
ATOM     17  C   UNL     1     -11.924   4.085   1.233  0.00  0.00    +0.000 A 
ATOM     18  C   UNL     1     -11.778   4.706  -0.002  0.00  0.00    +0.000 A 
ATOM     19  C   UNL     1     -12.393   4.164  -1.130  0.00  0.00    +0.000 A 
ENDBRANCH  13  14
BRANCH  13  20
ATOM     20  C   UNL     1     -13.192   1.417  -2.993  0.00  0.00    +0.000 C 
BRANCH  20  21
ATOM     21  O   UNL     1     -12.593   0.469  -3.706  0.00  0.00    +0.000 OA
ATOM     22  H   UNL     1     -13.148   0.208  -4.461  0.00  0.00    +0.000 HD
ENDBRANCH  20  21
ENDBRANCH  13  20
ENDBRANCH   2  13
TORSDOF 6
ENDMDL
MODEL 5
REMARK VINA RESULT:      -4.2     29.003     30.988
REMARK  Name = Hyoscyamine.pdbqt.pdb
REMARK  6 active torsions:
REMARK  status: ('A' for Active; 'I' for Inactive)
REMARK    1  A    between atoms: C_2  and  O_3
REMARK    2  A    between atoms: C_2  and  C_13
REMARK    3  A    between atoms: O_3  and  C_4
REMARK    4  A    between atoms: C_13  and  C_14
REMARK    5  A    between atoms: C_13  and  C_20
REMARK    6  A    between atoms: C_20  and  O_21
REMARK                            x       y       z     vdW  Elec       q    Type
REMARK                         _______ _______ _______ _____ _____    ______ ____
ROOT
ATOM      1  O   UNL     1      -4.232  -5.994  -5.376  0.00  0.00    +0.000 OA
ATOM      2  C   UNL     1      -4.168  -5.413  -4.299  0.00  0.00    +0.000 C 
ENDROOT
BRANCH   2   3
ATOM      3  O   UNL     1      -3.698  -5.919  -3.122  0.00  0.00    +0.000 OA
BRANCH   3   4
ATOM      4  C   UNL     1      -2.517  -6.645  -3.275  0.00  0.00    +0.000 C 
ATOM      5  C   UNL     1      -2.406  -8.004  -2.774  0.00  0.00    +0.000 C 
ATOM      6  C   UNL     1      -1.248  -8.600  -2.097  0.00  0.00    +0.000 C 
ATOM      7  N   UNL     1      -0.744  -7.489  -1.166  0.00  0.00    +0.000 NA
ATOM      8  C   UNL     1      -0.130  -8.847  -2.992  0.00  0.00    +0.000 C 
ATOM      9  C   UNL     1      -0.113  -6.606  -2.254  0.00  0.00    +0.000 C 
ATOM     10  C   UNL     1       0.269  -7.991  -0.227  0.00  0.00    +0.000 C 
ATOM     11  C   UNL     1       0.634  -7.526  -3.100  0.00  0.00    +0.000 C 
ATOM     12  C   UNL     1      -1.265  -5.998  -2.937  0.00  0.00    +0.000 C 
ENDBRANCH   3   4
ENDBRANCH   2   3
BRANCH   2  13
ATOM     13  C   UNL     1      -4.653  -4.014  -4.104  0.00  0.00    +0.000 C 
BRANCH  13  14
ATOM     14  C   UNL     1      -4.726  -3.348  -2.790  0.00  0.00    +0.000 A 
ATOM     15  C   UNL     1      -5.920  -3.354  -2.061  0.00  0.00    +0.000 A 
ATOM     16  C   UNL     1      -6.013  -2.697  -0.835  0.00  0.00    +0.000 A 
ATOM     17  C   UNL     1      -4.912  -2.016  -0.326  0.00  0.00    +0.000 A 
ATOM     18  C   UNL     1      -3.721  -1.991  -1.043  0.00  0.00    +0.000 A 
ATOM     19  C   UNL     1      -3.634  -2.650  -2.269  0.00  0.00    +0.000 A 
ENDBRANCH  13  14
BRANCH  13  20
ATOM     20  C   UNL     1      -4.999  -3.280  -5.282  0.00  0.00    +0.000 C 
BRANCH  20  21
ATOM     21  O   UNL     1      -5.320  -2.598  -6.376  0.00  0.00    +0.000 OA
ATOM     22  H   UNL     1      -6.280  -2.638  -6.534  0.00  0.00    +0.000 HD
ENDBRANCH  20  21
ENDBRANCH  13  20
ENDBRANCH   2  13
TORSDOF 6
ENDMDL
MODEL 6
REMARK VINA RESULT:      -4.1     13.763     16.106
REMARK  Name = Hyoscyamine.pdbqt.pdb
REMARK  6 active torsions:
REMARK  status: ('A' for Active; 'I' for Inactive)
REMARK    1  A    between atoms: C_2  and  O_3
REMARK    2  A    between atoms: C_2  and  C_13
REMARK    3  A    between atoms: O_3  and  C_4
REMARK    4  A    between atoms: C_13  and  C_14
REMARK    5  A    between atoms: C_13  and  C_20
REMARK    6  A    between atoms: C_20  and  O_21
REMARK                            x       y       z     vdW  Elec       q    Type
REMARK                         _______ _______ _______ _____ _____    ______ ____
ROOT
ATOM      1  O   UNL     1     -22.468  -3.943  17.629  0.00  0.00    +0.000 OA
ATOM      2  C   UNL     1     -21.478  -4.600  17.329  0.00  0.00    +0.000 C 
ENDROOT
BRANCH   2   3
ATOM      3  O   UNL     1     -21.233  -5.212  16.134  0.00  0.00    +0.000 OA
BRANCH   3   4
ATOM      4  C   UNL     1     -22.081  -6.293  15.892  0.00  0.00    +0.000 C 
ATOM      5  C   UNL     1     -21.639  -7.655  16.132  0.00  0.00    +0.000 C 
ATOM      6  C   UNL     1     -21.907  -8.829  15.290  0.00  0.00    +0.000 C 
ATOM      7  N   UNL     1     -21.748  -8.305  13.856  0.00  0.00    +0.000 NA
ATOM      8  C   UNL     1     -23.289  -9.272  15.354  0.00  0.00    +0.000 C 
ATOM      9  C   UNL     1     -23.063  -7.511  13.800  0.00  0.00    +0.000 C 
ATOM     10  C   UNL     1     -21.741  -9.404  12.879  0.00  0.00    +0.000 C 
ATOM     11  C   UNL     1     -24.066  -8.404  14.363  0.00  0.00    +0.000 C 
ATOM     12  C   UNL     1     -22.806  -6.329  14.638  0.00  0.00    +0.000 C 
ENDBRANCH   3   4
ENDBRANCH   2   3
BRANCH   2  13
ATOM     13  C   UNL     1     -20.364  -4.869  18.286  0.00  0.00    +0.000 C 
BRANCH  13  14
ATOM     14  C   UNL     1     -20.567  -5.164  19.717  0.00  0.00    +0.000 A 
ATOM     15  C   UNL     1     -21.727  -5.818  20.146  0.00  0.00    +0.000 A 
ATOM     16  C   UNL     1     -21.949  -6.071  21.499  0.00  0.00    +0.000 A 
ATOM     17  C   UNL     1     -21.013  -5.664  22.444  0.00  0.00    +0.000 A 
ATOM     18  C   UNL     1     -19.859  -5.004  22.035  0.00  0.00    +0.000 A 
ATOM     19  C   UNL     1     -19.643  -4.753  20.681  0.00  0.00    +0.000 A 
ENDBRANCH  13  14
BRANCH  13  20
ATOM     20  C   UNL     1     -19.040  -4.901  17.745  0.00  0.00    +0.000 C 
BRANCH  20  21
ATOM     21  O   UNL     1     -17.811  -4.931  17.242  0.00  0.00    +0.000 OA
ATOM     22  H   UNL     1     -17.403  -5.803  17.388  0.00  0.00    +0.000 HD
ENDBRANCH  20  21
ENDBRANCH  13  20
ENDBRANCH   2  13
TORSDOF 6
ENDMDL
MODEL 7
REMARK VINA RESULT:      -4.0     12.089     13.836
REMARK  Name = Hyoscyamine.pdbqt.pdb
REMARK  6 active torsions:
REMARK  status: ('A' for Active; 'I' for Inactive)
REMARK    1  A    between atoms: C_2  and  O_3
REMARK    2  A    between atoms: C_2  and  C_13
REMARK    3  A    between atoms: O_3  and  C_4
REMARK    4  A    between atoms: C_13  and  C_14
REMARK    5  A    between atoms: C_13  and  C_20
REMARK    6  A    between atoms: C_20  and  O_21
REMARK                            x       y       z     vdW  Elec       q    Type
REMARK                         _______ _______ _______ _____ _____    ______ ____
ROOT
ATOM      1  O   UNL     1     -21.904  -1.651  21.315  0.00  0.00    +0.000 OA
ATOM      2  C   UNL     1     -21.088  -2.563  21.365  0.00  0.00    +0.000 C 
ENDROOT
BRANCH   2   3
ATOM      3  O   UNL     1     -21.326  -3.888  21.142  0.00  0.00    +0.000 OA
BRANCH   3   4
ATOM      4  C   UNL     1     -21.811  -4.145  19.859  0.00  0.00    +0.000 C 
ATOM      5  C   UNL     1     -22.338  -5.453  19.510  0.00  0.00    +0.000 C 
ATOM      6  C   UNL     1     -22.127  -6.179  18.251  0.00  0.00    +0.000 C 
ATOM      7  N   UNL     1     -20.649  -5.931  17.919  0.00  0.00    +0.000 NA
ATOM      8  C   UNL     1     -22.845  -5.597  17.131  0.00  0.00    +0.000 C 
ATOM      9  C   UNL     1     -20.801  -4.469  17.472  0.00  0.00    +0.000 C 
ATOM     10  C   UNL     1     -20.195  -6.787  16.813  0.00  0.00    +0.000 C 
ATOM     11  C   UNL     1     -21.969  -4.460  16.602  0.00  0.00    +0.000 C 
ATOM     12  C   UNL     1     -21.009  -3.728  18.726  0.00  0.00    +0.000 C 
ENDBRANCH   3   4
ENDBRANCH   2   3
BRANCH   2  13
ATOM     13  C   UNL     1     -19.656  -2.348  21.731  0.00  0.00    +0.000 C 
BRANCH  13  14
ATOM     14  C   UNL     1     -19.118  -1.065  22.219  0.00  0.00    +0.000 A 
ATOM     15  C   UNL     1     -18.404  -0.225  21.357  0.00  0.00    +0.000 A 
ATOM     16  C   UNL     1     -17.859   0.974  21.814  0.00  0.00    +0.000 A 
ATOM     17  C   UNL     1     -18.013   1.344  23.146  0.00  0.00    +0.000 A 
ATOM     18  C   UNL     1     -18.710   0.516  24.018  0.00  0.00    +0.000 A 
ATOM     19  C   UNL     1     -19.254  -0.682  23.556  0.00  0.00    +0.000 A 
ENDBRANCH  13  14
BRANCH  13  20
ATOM     20  C   UNL     1     -18.793  -3.487  21.657  0.00  0.00    +0.000 C 
BRANCH  20  21
ATOM     21  O   UNL     1     -17.991  -4.545  21.589  0.00  0.00    +0.000 OA
ATOM     22  H   UNL     1     -17.429  -4.496  20.796  0.00  0.00    +0.000 HD
ENDBRANCH  20  21
ENDBRANCH  13  20
ENDBRANCH   2  13
TORSDOF 6
ENDMDL
MODEL 8
REMARK VINA RESULT:      -4.0      2.253      3.988
REMARK  Name = Hyoscyamine.pdbqt.pdb
REMARK  6 active torsions:
REMARK  status: ('A' for Active; 'I' for Inactive)
REMARK    1  A    between atoms: C_2  and  O_3
REMARK    2  A    between atoms: C_2  and  C_13
REMARK    3  A    between atoms: O_3  and  C_4
REMARK    4  A    between atoms: C_13  and  C_14
REMARK    5  A    between atoms: C_13  and  C_20
REMARK    6  A    between atoms: C_20  and  O_21
REMARK                            x       y       z     vdW  Elec       q    Type
REMARK                         _______ _______ _______ _____ _____    ______ ____
ROOT
ATOM      1  O   UNL     1      -9.925  -6.269  29.055  0.00  0.00    +0.000 OA
ATOM      2  C   UNL     1      -9.481  -6.611  27.966  0.00  0.00    +0.000 C 
ENDROOT
BRANCH   2   3
ATOM      3  O   UNL     1     -10.083  -6.458  26.752  0.00  0.00    +0.000 OA
BRANCH   3   4
ATOM      4  C   UNL     1     -11.108  -7.378  26.532  0.00  0.00    +0.000 C 
ATOM      5  C   UNL     1     -12.306  -7.369  27.352  0.00  0.00    +0.000 C 
ATOM      6  C   UNL     1     -13.024  -8.540  27.874  0.00  0.00    +0.000 C 
ATOM      7  N   UNL     1     -11.909  -9.500  28.309  0.00  0.00    +0.000 NA
ATOM      8  C   UNL     1     -13.742  -9.273  26.845  0.00  0.00    +0.000 C 
ATOM      9  C   UNL     1     -11.479  -9.937  26.901  0.00  0.00    +0.000 C 
ATOM     10  C   UNL     1     -12.444 -10.630  29.083  0.00  0.00    +0.000 C 
ATOM     11  C   UNL     1     -12.722 -10.209  26.194  0.00  0.00    +0.000 C 
ATOM     12  C   UNL     1     -10.753  -8.774  26.368  0.00  0.00    +0.000 C 
ENDBRANCH   3   4
ENDBRANCH   2   3
BRANCH   2  13
ATOM     13  C   UNL     1      -8.172  -7.314  27.810  0.00  0.00    +0.000 C 
BRANCH  13  14
ATOM     14  C   UNL     1      -7.622  -8.252  28.806  0.00  0.00    +0.000 A 
ATOM     15  C   UNL     1      -8.379  -9.346  29.239  0.00  0.00    +0.000 A 
ATOM     16  C   UNL     1      -7.885 -10.221  30.206  0.00  0.00    +0.000 A 
ATOM     17  C   UNL     1      -6.628 -10.005  30.761  0.00  0.00    +0.000 A 
ATOM     18  C   UNL     1      -5.867  -8.917  30.349  0.00  0.00    +0.000 A 
ATOM     19  C   UNL     1      -6.366  -8.046  29.382  0.00  0.00    +0.000 A 
ENDBRANCH  13  14
BRANCH  13  20
ATOM     20  C   UNL     1      -7.464  -7.096  26.586  0.00  0.00    +0.000 C 
BRANCH  20  21
ATOM     21  O   UNL     1      -6.807  -6.895  25.449  0.00  0.00    +0.000 OA
ATOM     22  H   UNL     1      -7.369  -7.116  24.686  0.00  0.00    +0.000 HD
ENDBRANCH  20  21
ENDBRANCH  13  20
ENDBRANCH   2  13
TORSDOF 6
ENDMDL
MODEL 9
REMARK VINA RESULT:      -3.9     24.992     28.178
REMARK  Name = Hyoscyamine.pdbqt.pdb
REMARK  6 active torsions:
REMARK  status: ('A' for Active; 'I' for Inactive)
REMARK    1  A    between atoms: C_2  and  O_3
REMARK    2  A    between atoms: C_2  and  C_13
REMARK    3  A    between atoms: O_3  and  C_4
REMARK    4  A    between atoms: C_13  and  C_14
REMARK    5  A    between atoms: C_13  and  C_20
REMARK    6  A    between atoms: C_20  and  O_21
REMARK                            x       y       z     vdW  Elec       q    Type
REMARK                         _______ _______ _______ _____ _____    ______ ____
ROOT
ATOM      1  O   UNL     1       6.434   6.270   6.171  0.00  0.00    +0.000 OA
ATOM      2  C   UNL     1       5.405   5.911   6.731  0.00  0.00    +0.000 C 
ENDROOT
BRANCH   2   3
ATOM      3  O   UNL     1       4.400   6.713   7.189  0.00  0.00    +0.000 OA
BRANCH   3   4
ATOM      4  C   UNL     1       3.416   6.954   6.229  0.00  0.00    +0.000 C 
ATOM      5  C   UNL     1       3.765   7.109   4.828  0.00  0.00    +0.000 C 
ATOM      6  C   UNL     1       3.197   8.080   3.882  0.00  0.00    +0.000 C 
ATOM      7  N   UNL     1       3.076   9.373   4.701  0.00  0.00    +0.000 NA
ATOM      8  C   UNL     1       1.830   7.772   3.502  0.00  0.00    +0.000 C 
ATOM      9  C   UNL     1       1.868   8.944   5.548  0.00  0.00    +0.000 C 
ATOM     10  C   UNL     1       2.751  10.523   3.844  0.00  0.00    +0.000 C 
ATOM     11  C   UNL     1       0.937   8.347   4.602  0.00  0.00    +0.000 C 
ATOM     12  C   UNL     1       2.425   7.974   6.504  0.00  0.00    +0.000 C 
ENDBRANCH   3   4
ENDBRANCH   2   3
BRANCH   2  13
ATOM     13  C   UNL     1       5.109   4.481   7.042  0.00  0.00    +0.000 C 
BRANCH  13  14
ATOM     14  C   UNL     1       5.075   3.930   8.409  0.00  0.00    +0.000 A 
ATOM     15  C   UNL     1       5.508   4.701   9.493  0.00  0.00    +0.000 A 
ATOM     16  C   UNL     1       5.516   4.181  10.786  0.00  0.00    +0.000 A 
ATOM     17  C   UNL     1       5.098   2.873  11.011  0.00  0.00    +0.000 A 
ATOM     18  C   UNL     1       4.674   2.089   9.943  0.00  0.00    +0.000 A 
ATOM     19  C   UNL     1       4.669   2.615   8.652  0.00  0.00    +0.000 A 
ENDBRANCH  13  14
BRANCH  13  20
ATOM     20  C   UNL     1       4.779   3.635   5.937  0.00  0.00    +0.000 C 
BRANCH  20  21
ATOM     21  O   UNL     1       4.472   2.848   4.911  0.00  0.00    +0.000 OA
ATOM     22  H   UNL     1       3.535   2.586   4.950  0.00  0.00    +0.000 HD
ENDBRANCH  20  21
ENDBRANCH  13  20
ENDBRANCH   2  13
TORSDOF 6
ENDMDL
