MODEL 1
REMARK VINA RESULT:      -6.5      0.000      0.000
REMARK  Name = 
REMARK  21 active torsions:
REMARK  status: ('A' for Active; 'I' for Inactive)
REMARK    1  A    between atoms: O_3  and  C_22
REMARK    2  A    between atoms: O_3  and  C_28
REMARK    3  A    between atoms: O_4  and  C_25
REMARK    4  A    between atoms: O_4  and  C_30
REMARK    5  A    between atoms: O_5  and  C_16
REMARK    6  A    between atoms: O_6  and  C_17
REMARK    7  A    between atoms: O_7  and  C_18
REMARK    8  A    between atoms: O_8  and  C_20
REMARK    9  A    between atoms: O_9  and  C_21
REMARK   10  A    between atoms: O_10  and  C_23
REMARK   11  A    between atoms: O_11  and  C_26
REMARK   12  A    between atoms: O_13  and  C_36
REMARK   13  A    between atoms: O_15  and  C_45
REMARK   14  A    between atoms: O_15  and  C_48
REMARK   15  A    between atoms: C_19  and  C_26
REMARK   16  A    between atoms: C_24  and  C_27
REMARK   17  A    between atoms: C_29  and  C_37
REMARK   18  A    between atoms: C_35  and  C_38
REMARK   19  A    between atoms: C_37  and  C_39
REMARK   20  A    between atoms: C_42  and  C_46
REMARK   21  A    between atoms: C_42  and  C_47
REMARK                            x       y       z     vdW  Elec       q    Type
REMARK                         _______ _______ _______ _____ _____    ______ ____
ROOT
ATOM      1  O   UNL     1       7.259 -11.217  11.634  0.00  0.00    +0.000 OA
ATOM      2  O   UNL     1       4.496  -8.680  13.188  0.00  0.00    +0.000 OA
ATOM      3  C   UNL     1       4.402 -13.495  11.812  0.00  0.00    +0.000 A 
ATOM      4  C   UNL     1       5.700 -13.014  11.568  0.00  0.00    +0.000 A 
ATOM      5  C   UNL     1       6.740  -9.010  12.474  0.00  0.00    +0.000 A 
ATOM      6  C   UNL     1       5.985 -11.669  11.880  0.00  0.00    +0.000 A 
ATOM      7  C   UNL     1       4.998 -10.836  12.409  0.00  0.00    +0.000 A 
ATOM      8  C   UNL     1       5.343  -9.445  12.730  0.00  0.00    +0.000 A 
ATOM      9  C   UNL     1       3.403 -12.649  12.304  0.00  0.00    +0.000 A 
ATOM     10  C   UNL     1       7.596  -9.922  11.980  0.00  0.00    +0.000 A 
ATOM     11  C   UNL     1       3.707 -11.329  12.615  0.00  0.00    +0.000 A 
ENDROOT
BRANCH  10  12
ATOM     12  C   UNL     1       9.007  -9.607  11.710  0.00  0.00    +0.000 A 
ATOM     13  C   UNL     1       9.421  -9.320  10.404  0.00  0.00    +0.000 A 
ATOM     14  C   UNL     1       9.958  -9.599  12.738  0.00  0.00    +0.000 A 
ATOM     15  C   UNL     1      10.758  -9.015  10.140  0.00  0.00    +0.000 A 
ATOM     16  C   UNL     1      11.297  -9.290  12.471  0.00  0.00    +0.000 A 
ATOM     17  C   UNL     1      11.701  -8.991  11.169  0.00  0.00    +0.000 A 
BRANCH  17  18
ATOM     18  O   UNL     1      12.970  -8.672  10.775  0.00  0.00    +0.000 OA
ATOM     19  C   UNL     1      13.230  -8.686   9.377  0.00  0.00    +0.000 C 
ENDBRANCH  17  18
ENDBRANCH  10  12
BRANCH  11  20
ATOM     20  O   UNL     1       2.683 -10.567  13.110  0.00  0.00    +0.000 OA
ATOM     21  H   UNL     1       3.056  -9.713  13.422  0.00  0.00    +0.000 HD
ENDBRANCH  11  20
BRANCH   4  22
ATOM     22  C   UNL     1       6.788 -13.918  11.020  0.00  0.00    +0.000 C 
BRANCH  22  23
ATOM     23  C   UNL     1       7.600 -14.564  12.112  0.00  0.00    +0.000 C 
ATOM     24  C   UNL     1       8.885 -14.341  12.452  0.00  0.00    +0.000 C 
ATOM     25  C   UNL     1       9.808 -13.357  11.788  0.00  0.00    +0.000 C 
ATOM     26  C   UNL     1       9.514 -15.101  13.590  0.00  0.00    +0.000 C 
ENDBRANCH  22  23
ENDBRANCH   4  22
BRANCH   5  27
ATOM     27  O   UNL     1       7.124  -7.728  12.821  0.00  0.00    +0.000 OA
BRANCH  27  33
ATOM     28  O   UNL     1       6.663  -6.576  10.802  0.00  0.00    +0.000 OA
ATOM     29  C   UNL     1       7.889  -4.828  12.740  0.00  0.00    +0.000 C 
ATOM     30  C   UNL     1       8.226  -4.742  11.246  0.00  0.00    +0.000 C 
ATOM     31  C   UNL     1       6.486  -5.393  12.957  0.00  0.00    +0.000 C 
ATOM     32  C   UNL     1       8.001  -6.108  10.586  0.00  0.00    +0.000 C 
ATOM     33  C   UNL     1       6.323  -6.722  12.189  0.00  0.00    +0.000 C 
ATOM     34  C   UNL     1       8.224  -6.042   9.078  0.00  0.00    +0.000 C 
BRANCH  29  35
ATOM     35  O   UNL     1       7.982  -3.505  13.301  0.00  0.00    +0.000 OA
ATOM     36  H   UNL     1       7.544  -3.572  14.176  0.00  0.00    +0.000 HD
ENDBRANCH  29  35
BRANCH  30  37
ATOM     37  O   UNL     1       9.586  -4.315  11.104  0.00  0.00    +0.000 OA
ATOM     38  H   UNL     1       9.613  -3.822  10.258  0.00  0.00    +0.000 HD
ENDBRANCH  30  37
BRANCH  31  39
ATOM     39  O   UNL     1       5.541  -4.392  12.525  0.00  0.00    +0.000 OA
ATOM     40  H   UNL     1       5.019  -4.132  13.306  0.00  0.00    +0.000 HD
ENDBRANCH  31  39
ENDBRANCH  27  33
ENDBRANCH   5  27
BRANCH   3  41
ATOM     41  O   UNL     1       4.089 -14.785  11.466  0.00  0.00    +0.000 OA
BRANCH  41  47
ATOM     42  O   UNL     1       4.106 -15.926  13.539  0.00  0.00    +0.000 OA
ATOM     43  C   UNL     1       1.814 -17.449  12.775  0.00  0.00    +0.000 C 
ATOM     44  C   UNL     1       2.681 -17.844  13.973  0.00  0.00    +0.000 C 
ATOM     45  C   UNL     1       2.618 -16.638  11.761  0.00  0.00    +0.000 C 
ATOM     46  C   UNL     1       3.343 -16.590  14.561  0.00  0.00    +0.000 C 
ATOM     47  C   UNL     1       3.292 -15.448  12.469  0.00  0.00    +0.000 C 
BRANCH  44  48
ATOM     48  O   UNL     1       1.865 -18.506  14.942  0.00  0.00    +0.000 OA
ATOM     49  H   UNL     1       1.599 -19.349  14.519  0.00  0.00    +0.000 HD
ENDBRANCH  44  48
BRANCH  45  50
ATOM     50  O   UNL     1       1.732 -16.212  10.713  0.00  0.00    +0.000 OA
ATOM     51  H   UNL     1       0.907 -16.722  10.836  0.00  0.00    +0.000 HD
ENDBRANCH  45  50
BRANCH  43  52
ATOM     52  O   UNL     1       1.295 -18.641  12.162  0.00  0.00    +0.000 OA
ATOM     53  H   UNL     1       0.715 -18.324  11.440  0.00  0.00    +0.000 HD
ENDBRANCH  43  52
BRANCH  46  54
ATOM     54  C   UNL     1       4.287 -16.951  15.715  0.00  0.00    +0.000 C 
BRANCH  54  55
ATOM     55  O   UNL     1       3.543 -17.065  16.931  0.00  0.00    +0.000 OA
ATOM     56  H   UNL     1       2.623 -16.831  16.721  0.00  0.00    +0.000 HD
ENDBRANCH  54  55
ENDBRANCH  46  54
ENDBRANCH  41  47
ENDBRANCH   3  41
TORSDOF 17
ENDMDL
MODEL 2
REMARK VINA RESULT:      -6.3      1.900      9.679
REMARK  Name = 
REMARK  21 active torsions:
REMARK  status: ('A' for Active; 'I' for Inactive)
REMARK    1  A    between atoms: O_3  and  C_22
REMARK    2  A    between atoms: O_3  and  C_28
REMARK    3  A    between atoms: O_4  and  C_25
REMARK    4  A    between atoms: O_4  and  C_30
REMARK    5  A    between atoms: O_5  and  C_16
REMARK    6  A    between atoms: O_6  and  C_17
REMARK    7  A    between atoms: O_7  and  C_18
REMARK    8  A    between atoms: O_8  and  C_20
REMARK    9  A    between atoms: O_9  and  C_21
REMARK   10  A    between atoms: O_10  and  C_23
REMARK   11  A    between atoms: O_11  and  C_26
REMARK   12  A    between atoms: O_13  and  C_36
REMARK   13  A    between atoms: O_15  and  C_45
REMARK   14  A    between atoms: O_15  and  C_48
REMARK   15  A    between atoms: C_19  and  C_26
REMARK   16  A    between atoms: C_24  and  C_27
REMARK   17  A    between atoms: C_29  and  C_37
REMARK   18  A    between atoms: C_35  and  C_38
REMARK   19  A    between atoms: C_37  and  C_39
REMARK   20  A    between atoms: C_42  and  C_46
REMARK   21  A    between atoms: C_42  and  C_47
REMARK                            x       y       z     vdW  Elec       q    Type
REMARK                         _______ _______ _______ _____ _____    ______ ____
ROOT
ATOM      1  O   UNL     1       6.846 -12.212  13.032  0.00  0.00    +0.000 OA
ATOM      2  O   UNL     1       2.847 -12.618  12.458  0.00  0.00    +0.000 OA
ATOM      3  C   UNL     1       5.832  -8.722  13.454  0.00  0.00    +0.000 A 
ATOM      4  C   UNL     1       6.646  -9.866  13.378  0.00  0.00    +0.000 A 
ATOM      5  C   UNL     1       4.981 -13.664  12.523  0.00  0.00    +0.000 A 
ATOM      6  C   UNL     1       6.034 -11.105  13.101  0.00  0.00    +0.000 A 
ATOM      7  C   UNL     1       4.654 -11.192  12.915  0.00  0.00    +0.000 A 
ATOM      8  C   UNL     1       4.061 -12.502  12.616  0.00  0.00    +0.000 A 
ATOM      9  C   UNL     1       4.444  -8.816  13.308  0.00  0.00    +0.000 A 
ATOM     10  C   UNL     1       6.294 -13.436  12.703  0.00  0.00    +0.000 A 
ATOM     11  C   UNL     1       3.862 -10.047  13.025  0.00  0.00    +0.000 A 
ENDROOT
BRANCH  10  12
ATOM     12  C   UNL     1       7.296 -14.509  12.611  0.00  0.00    +0.000 A 
ATOM     13  C   UNL     1       7.722 -14.960  11.357  0.00  0.00    +0.000 A 
ATOM     14  C   UNL     1       7.831 -15.103  13.761  0.00  0.00    +0.000 A 
ATOM     15  C   UNL     1       8.676 -15.975  11.260  0.00  0.00    +0.000 A 
ATOM     16  C   UNL     1       8.789 -16.118  13.661  0.00  0.00    +0.000 A 
ATOM     17  C   UNL     1       9.220 -16.555  12.408  0.00  0.00    +0.000 A 
BRANCH  17  18
ATOM     18  O   UNL     1      10.147 -17.531  12.172  0.00  0.00    +0.000 OA
ATOM     19  C   UNL     1      10.755 -17.541  10.886  0.00  0.00    +0.000 C 
ENDBRANCH  17  18
ENDBRANCH  10  12
BRANCH  11  20
ATOM     20  O   UNL     1       2.501 -10.057  12.877  0.00  0.00    +0.000 OA
ATOM     21  H   UNL     1       2.110  -9.491  13.579  0.00  0.00    +0.000 HD
ENDBRANCH  11  20
BRANCH   4  22
ATOM     22  C   UNL     1       8.151  -9.779  13.549  0.00  0.00    +0.000 C 
BRANCH  22  23
ATOM     23  C   UNL     1       8.842  -9.294  12.302  0.00  0.00    +0.000 C 
ATOM     24  C   UNL     1       9.403 -10.020  11.313  0.00  0.00    +0.000 C 
ATOM     25  C   UNL     1       9.450 -11.521  11.248  0.00  0.00    +0.000 C 
ATOM     26  C   UNL     1      10.049  -9.333  10.139  0.00  0.00    +0.000 C 
ENDBRANCH  22  23
ENDBRANCH   4  22
BRANCH   5  27
ATOM     27  O   UNL     1       4.473 -14.905  12.181  0.00  0.00    +0.000 OA
BRANCH  27  33
ATOM     28  O   UNL     1       4.700 -16.598  13.823  0.00  0.00    +0.000 OA
ATOM     29  C   UNL     1       2.699 -17.304  11.870  0.00  0.00    +0.000 C 
ATOM     30  C   UNL     1       3.653 -18.348  12.464  0.00  0.00    +0.000 C 
ATOM     31  C   UNL     1       2.490 -16.136  12.834  0.00  0.00    +0.000 C 
ATOM     32  C   UNL     1       4.956 -17.668  12.903  0.00  0.00    +0.000 C 
ATOM     33  C   UNL     1       3.852 -15.571  13.288  0.00  0.00    +0.000 C 
ATOM     34  C   UNL     1       5.893 -18.652  13.596  0.00  0.00    +0.000 C 
BRANCH  29  35
ATOM     35  O   UNL     1       1.441 -17.947  11.591  0.00  0.00    +0.000 OA
ATOM     36  H   UNL     1       0.835 -17.629  12.293  0.00  0.00    +0.000 HD
ENDBRANCH  29  35
BRANCH  30  37
ATOM     37  O   UNL     1       3.901 -19.359  11.480  0.00  0.00    +0.000 OA
ATOM     38  H   UNL     1       3.693 -20.206  11.924  0.00  0.00    +0.000 HD
ENDBRANCH  30  37
BRANCH  31  39
ATOM     39  O   UNL     1       1.703 -16.621  13.941  0.00  0.00    +0.000 OA
ATOM     40  H   UNL     1       1.995 -16.138  14.736  0.00  0.00    +0.000 HD
ENDBRANCH  31  39
ENDBRANCH  27  33
ENDBRANCH   5  27
BRANCH   3  41
ATOM     41  O   UNL     1       6.400  -7.516  13.775  0.00  0.00    +0.000 OA
BRANCH  41  47
ATOM     42  O   UNL     1       6.242  -6.984  11.475  0.00  0.00    +0.000 OA
ATOM     43  C   UNL     1       6.933  -4.264  12.006  0.00  0.00    +0.000 C 
ATOM     44  C   UNL     1       6.963  -4.840  10.588  0.00  0.00    +0.000 C 
ATOM     45  C   UNL     1       7.125  -5.363  13.049  0.00  0.00    +0.000 C 
ATOM     46  C   UNL     1       5.948  -5.987  10.481  0.00  0.00    +0.000 C 
ATOM     47  C   UNL     1       6.102  -6.489  12.806  0.00  0.00    +0.000 C 
BRANCH  44  48
ATOM     48  O   UNL     1       6.675  -3.798   9.654  0.00  0.00    +0.000 OA
ATOM     49  H   UNL     1       7.429  -3.177   9.723  0.00  0.00    +0.000 HD
ENDBRANCH  44  48
BRANCH  45  50
ATOM     50  O   UNL     1       6.986  -4.781  14.356  0.00  0.00    +0.000 OA
ATOM     51  H   UNL     1       6.025  -4.736  14.528  0.00  0.00    +0.000 HD
ENDBRANCH  45  50
BRANCH  43  52
ATOM     52  O   UNL     1       7.967  -3.274  12.129  0.00  0.00    +0.000 OA
ATOM     53  H   UNL     1       7.872  -2.917  13.036  0.00  0.00    +0.000 HD
ENDBRANCH  43  52
BRANCH  46  54
ATOM     54  C   UNL     1       6.004  -6.649   9.098  0.00  0.00    +0.000 C 
BRANCH  54  55
ATOM     55  O   UNL     1       5.053  -6.031   8.227  0.00  0.00    +0.000 OA
ATOM     56  H   UNL     1       4.398  -5.590   8.794  0.00  0.00    +0.000 HD
ENDBRANCH  54  55
ENDBRANCH  46  54
ENDBRANCH  41  47
ENDBRANCH   3  41
TORSDOF 17
ENDMDL
MODEL 3
REMARK VINA RESULT:      -6.0      2.025      9.856
REMARK  Name = 
REMARK  21 active torsions:
REMARK  status: ('A' for Active; 'I' for Inactive)
REMARK    1  A    between atoms: O_3  and  C_22
REMARK    2  A    between atoms: O_3  and  C_28
REMARK    3  A    between atoms: O_4  and  C_25
REMARK    4  A    between atoms: O_4  and  C_30
REMARK    5  A    between atoms: O_5  and  C_16
REMARK    6  A    between atoms: O_6  and  C_17
REMARK    7  A    between atoms: O_7  and  C_18
REMARK    8  A    between atoms: O_8  and  C_20
REMARK    9  A    between atoms: O_9  and  C_21
REMARK   10  A    between atoms: O_10  and  C_23
REMARK   11  A    between atoms: O_11  and  C_26
REMARK   12  A    between atoms: O_13  and  C_36
REMARK   13  A    between atoms: O_15  and  C_45
REMARK   14  A    between atoms: O_15  and  C_48
REMARK   15  A    between atoms: C_19  and  C_26
REMARK   16  A    between atoms: C_24  and  C_27
REMARK   17  A    between atoms: C_29  and  C_37
REMARK   18  A    between atoms: C_35  and  C_38
REMARK   19  A    between atoms: C_37  and  C_39
REMARK   20  A    between atoms: C_42  and  C_46
REMARK   21  A    between atoms: C_42  and  C_47
REMARK                            x       y       z     vdW  Elec       q    Type
REMARK                         _______ _______ _______ _____ _____    ______ ____
ROOT
ATOM      1  O   UNL     1       6.714 -13.217  12.116  0.00  0.00    +0.000 OA
ATOM      2  O   UNL     1       2.918 -12.680  13.451  0.00  0.00    +0.000 OA
ATOM      3  C   UNL     1       6.134  -9.818  10.893  0.00  0.00    +0.000 A 
ATOM      4  C   UNL     1       6.777 -11.041  11.155  0.00  0.00    +0.000 A 
ATOM      5  C   UNL     1       4.790 -14.133  13.257  0.00  0.00    +0.000 A 
ATOM      6  C   UNL     1       6.069 -12.029  11.868  0.00  0.00    +0.000 A 
ATOM      7  C   UNL     1       4.766 -11.794  12.309  0.00  0.00    +0.000 A 
ATOM      8  C   UNL     1       4.063 -12.857  13.038  0.00  0.00    +0.000 A 
ATOM      9  C   UNL     1       4.844  -9.567  11.371  0.00  0.00    +0.000 A 
ATOM     10  C   UNL     1       6.035 -14.234  12.759  0.00  0.00    +0.000 A 
ATOM     11  C   UNL     1       4.159 -10.559  12.064  0.00  0.00    +0.000 A 
ENDROOT
BRANCH  10  12
ATOM     12  C   UNL     1       6.837 -15.459  12.897  0.00  0.00    +0.000 A 
ATOM     13  C   UNL     1       6.796 -16.437  11.897  0.00  0.00    +0.000 A 
ATOM     14  C   UNL     1       7.640 -15.678  14.024  0.00  0.00    +0.000 A 
ATOM     15  C   UNL     1       7.558 -17.601  12.018  0.00  0.00    +0.000 A 
ATOM     16  C   UNL     1       8.405 -16.844  14.142  0.00  0.00    +0.000 A 
ATOM     17  C   UNL     1       8.371 -17.809  13.135  0.00  0.00    +0.000 A 
BRANCH  17  18
ATOM     18  O   UNL     1       9.067 -18.985  13.125  0.00  0.00    +0.000 OA
ATOM     19  C   UNL     1      10.455 -18.912  13.424  0.00  0.00    +0.000 C 
ENDBRANCH  17  18
ENDBRANCH  10  12
BRANCH  11  20
ATOM     20  O   UNL     1       2.894 -10.248  12.483  0.00  0.00    +0.000 OA
ATOM     21  H   UNL     1       2.555 -10.996  13.024  0.00  0.00    +0.000 HD
ENDBRANCH  11  20
BRANCH   4  22
ATOM     22  C   UNL     1       8.182 -11.318  10.656  0.00  0.00    +0.000 C 
BRANCH  22  23
ATOM     23  C   UNL     1       9.220 -11.135  11.732  0.00  0.00    +0.000 C 
ATOM     24  C   UNL     1      10.034 -12.056  12.284  0.00  0.00    +0.000 C 
ATOM     25  C   UNL     1      10.079 -13.515  11.921  0.00  0.00    +0.000 C 
ATOM     26  C   UNL     1      11.014 -11.660  13.357  0.00  0.00    +0.000 C 
ENDBRANCH  22  23
ENDBRANCH   4  22
BRANCH   5  27
ATOM     27  O   UNL     1       4.142 -15.183  13.883  0.00  0.00    +0.000 OA
BRANCH  27  33
ATOM     28  O   UNL     1       1.970 -16.047  14.271  0.00  0.00    +0.000 OA
ATOM     29  C   UNL     1       3.477 -17.771  12.518  0.00  0.00    +0.000 C 
ATOM     30  C   UNL     1       2.529 -18.332  13.586  0.00  0.00    +0.000 C 
ATOM     31  C   UNL     1       3.046 -16.372  12.077  0.00  0.00    +0.000 C 
ATOM     32  C   UNL     1       2.400 -17.332  14.741  0.00  0.00    +0.000 C 
ATOM     33  C   UNL     1       2.859 -15.461  13.309  0.00  0.00    +0.000 C 
ATOM     34  C   UNL     1       1.383 -17.802  15.776  0.00  0.00    +0.000 C 
BRANCH  29  35
ATOM     35  O   UNL     1       3.473 -18.669  11.393  0.00  0.00    +0.000 OA
ATOM     36  H   UNL     1       3.922 -18.174  10.675  0.00  0.00    +0.000 HD
ENDBRANCH  29  35
BRANCH  30  37
ATOM     37  O   UNL     1       3.040 -19.590  14.043  0.00  0.00    +0.000 OA
ATOM     38  H   UNL     1       3.674 -19.875  13.354  0.00  0.00    +0.000 HD
ENDBRANCH  30  37
BRANCH  31  39
ATOM     39  O   UNL     1       1.831 -16.513  11.311  0.00  0.00    +0.000 OA
ATOM     40  H   UNL     1       1.875 -15.868  10.581  0.00  0.00    +0.000 HD
ENDBRANCH  31  39
ENDBRANCH  27  33
ENDBRANCH   5  27
BRANCH   3  41
ATOM     41  O   UNL     1       6.824  -8.823  10.248  0.00  0.00    +0.000 OA
BRANCH  41  47
ATOM     42  O   UNL     1       6.206  -6.583   9.804  0.00  0.00    +0.000 OA
ATOM     43  C   UNL     1       7.744  -5.666  12.030  0.00  0.00    +0.000 C 
ATOM     44  C   UNL     1       7.228  -4.704  10.956  0.00  0.00    +0.000 C 
ATOM     45  C   UNL     1       7.895  -7.080  11.472  0.00  0.00    +0.000 C 
ATOM     46  C   UNL     1       5.944  -5.272  10.334  0.00  0.00    +0.000 C 
ATOM     47  C   UNL     1       6.574  -7.520  10.815  0.00  0.00    +0.000 C 
BRANCH  44  48
ATOM     48  O   UNL     1       7.001  -3.423  11.546  0.00  0.00    +0.000 OA
ATOM     49  H   UNL     1       7.882  -2.996  11.577  0.00  0.00    +0.000 HD
ENDBRANCH  44  48
BRANCH  45  50
ATOM     50  O   UNL     1       8.282  -7.954  12.544  0.00  0.00    +0.000 OA
ATOM     51  H   UNL     1       7.800  -7.638  13.334  0.00  0.00    +0.000 HD
ENDBRANCH  45  50
BRANCH  43  52
ATOM     52  O   UNL     1       9.006  -5.185  12.519  0.00  0.00    +0.000 OA
ATOM     53  H   UNL     1       9.661  -5.458  11.846  0.00  0.00    +0.000 HD
ENDBRANCH  43  52
BRANCH  46  54
ATOM     54  C   UNL     1       5.439  -4.378   9.194  0.00  0.00    +0.000 C 
BRANCH  54  55
ATOM     55  O   UNL     1       4.745  -5.173   8.229  0.00  0.00    +0.000 OA
ATOM     56  H   UNL     1       3.987  -5.573   8.686  0.00  0.00    +0.000 HD
ENDBRANCH  54  55
ENDBRANCH  46  54
ENDBRANCH  41  47
ENDBRANCH   3  41
TORSDOF 17
ENDMDL
MODEL 4
REMARK VINA RESULT:      -5.9     17.562     22.030
REMARK  Name = 
REMARK  21 active torsions:
REMARK  status: ('A' for Active; 'I' for Inactive)
REMARK    1  A    between atoms: O_3  and  C_22
REMARK    2  A    between atoms: O_3  and  C_28
REMARK    3  A    between atoms: O_4  and  C_25
REMARK    4  A    between atoms: O_4  and  C_30
REMARK    5  A    between atoms: O_5  and  C_16
REMARK    6  A    between atoms: O_6  and  C_17
REMARK    7  A    between atoms: O_7  and  C_18
REMARK    8  A    between atoms: O_8  and  C_20
REMARK    9  A    between atoms: O_9  and  C_21
REMARK   10  A    between atoms: O_10  and  C_23
REMARK   11  A    between atoms: O_11  and  C_26
REMARK   12  A    between atoms: O_13  and  C_36
REMARK   13  A    between atoms: O_15  and  C_45
REMARK   14  A    between atoms: O_15  and  C_48
REMARK   15  A    between atoms: C_19  and  C_26
REMARK   16  A    between atoms: C_24  and  C_27
REMARK   17  A    between atoms: C_29  and  C_37
REMARK   18  A    between atoms: C_35  and  C_38
REMARK   19  A    between atoms: C_37  and  C_39
REMARK   20  A    between atoms: C_42  and  C_46
REMARK   21  A    between atoms: C_42  and  C_47
REMARK                            x       y       z     vdW  Elec       q    Type
REMARK                         _______ _______ _______ _____ _____    ______ ____
ROOT
ATOM      1  O   UNL     1     -12.970 -16.593  12.719  0.00  0.00    +0.000 OA
ATOM      2  O   UNL     1     -15.960 -14.443  11.010  0.00  0.00    +0.000 OA
ATOM      3  C   UNL     1     -15.138 -16.173  15.637  0.00  0.00    +0.000 A 
ATOM      4  C   UNL     1     -14.048 -16.570  14.841  0.00  0.00    +0.000 A 
ATOM      5  C   UNL     1     -13.851 -15.509  10.746  0.00  0.00    +0.000 A 
ATOM      6  C   UNL     1     -14.043 -16.196  13.482  0.00  0.00    +0.000 A 
ATOM      7  C   UNL     1     -15.097 -15.460  12.941  0.00  0.00    +0.000 A 
ATOM      8  C   UNL     1     -15.043 -15.083  11.523  0.00  0.00    +0.000 A 
ATOM      9  C   UNL     1     -16.214 -15.471  15.085  0.00  0.00    +0.000 A 
ATOM     10  C   UNL     1     -12.896 -16.197  11.397  0.00  0.00    +0.000 A 
ATOM     11  C   UNL     1     -16.184 -15.104  13.744  0.00  0.00    +0.000 A 
ENDROOT
BRANCH  10  12
ATOM     12  C   UNL     1     -11.664 -16.649  10.733  0.00  0.00    +0.000 A 
ATOM     13  C   UNL     1     -11.490 -18.004  10.433  0.00  0.00    +0.000 A 
ATOM     14  C   UNL     1     -10.647 -15.746  10.401  0.00  0.00    +0.000 A 
ATOM     15  C   UNL     1     -10.325 -18.441   9.798  0.00  0.00    +0.000 A 
ATOM     16  C   UNL     1      -9.481 -16.186   9.762  0.00  0.00    +0.000 A 
ATOM     17  C   UNL     1      -9.318 -17.536   9.453  0.00  0.00    +0.000 A 
BRANCH  17  18
ATOM     18  O   UNL     1      -8.236 -18.094   8.832  0.00  0.00    +0.000 OA
ATOM     19  C   UNL     1      -8.124 -19.511   8.888  0.00  0.00    +0.000 C 
ENDBRANCH  17  18
ENDBRANCH  10  12
BRANCH  11  20
ATOM     20  O   UNL     1     -17.263 -14.402  13.280  0.00  0.00    +0.000 OA
ATOM     21  H   UNL     1     -17.862 -15.027  12.816  0.00  0.00    +0.000 HD
ENDBRANCH  11  20
BRANCH   4  22
ATOM     22  C   UNL     1     -12.883 -17.345  15.425  0.00  0.00    +0.000 C 
BRANCH  22  23
ATOM     23  C   UNL     1     -13.030 -18.832  15.234  0.00  0.00    +0.000 C 
ATOM     24  C   UNL     1     -12.488 -19.833  15.956  0.00  0.00    +0.000 C 
ATOM     25  C   UNL     1     -11.594 -19.663  17.153  0.00  0.00    +0.000 C 
ATOM     26  C   UNL     1     -12.766 -21.268  15.595  0.00  0.00    +0.000 C 
ENDBRANCH  22  23
ENDBRANCH   4  22
BRANCH   5  27
ATOM     27  O   UNL     1     -13.730 -15.121   9.424  0.00  0.00    +0.000 OA
BRANCH  27  33
ATOM     28  O   UNL     1     -13.460 -16.907   7.891  0.00  0.00    +0.000 OA
ATOM     29  C   UNL     1     -14.224 -14.479   6.535  0.00  0.00    +0.000 C 
ATOM     30  C   UNL     1     -13.216 -15.461   5.927  0.00  0.00    +0.000 C 
ATOM     31  C   UNL     1     -15.185 -15.192   7.487  0.00  0.00    +0.000 C 
ATOM     32  C   UNL     1     -12.512 -16.240   7.046  0.00  0.00    +0.000 C 
ATOM     33  C   UNL     1     -14.392 -16.017   8.523  0.00  0.00    +0.000 C 
ATOM     34  C   UNL     1     -11.576 -17.304   6.482  0.00  0.00    +0.000 C 
BRANCH  29  35
ATOM     35  O   UNL     1     -14.959 -13.862   5.462  0.00  0.00    +0.000 OA
ATOM     36  H   UNL     1     -15.481 -13.151   5.890  0.00  0.00    +0.000 HD
ENDBRANCH  29  35
BRANCH  30  37
ATOM     37  O   UNL     1     -12.274 -14.726   5.136  0.00  0.00    +0.000 OA
ATOM     38  H   UNL     1     -11.962 -14.002   5.716  0.00  0.00    +0.000 HD
ENDBRANCH  30  37
BRANCH  31  39
ATOM     39  O   UNL     1     -16.059 -16.015   6.686  0.00  0.00    +0.000 OA
ATOM     40  H   UNL     1     -16.414 -16.711   7.270  0.00  0.00    +0.000 HD
ENDBRANCH  31  39
ENDBRANCH  27  33
ENDBRANCH   5  27
BRANCH   3  41
ATOM     41  O   UNL     1     -15.189 -16.572  16.949  0.00  0.00    +0.000 OA
BRANCH  41  47
ATOM     42  O   UNL     1     -15.894 -14.997  18.568  0.00  0.00    +0.000 OA
ATOM     43  C   UNL     1     -18.116 -16.647  19.276  0.00  0.00    +0.000 C 
ATOM     44  C   UNL     1     -17.666 -15.479  20.158  0.00  0.00    +0.000 C 
ATOM     45  C   UNL     1     -16.957 -17.173  18.431  0.00  0.00    +0.000 C 
ATOM     46  C   UNL     1     -16.993 -14.409  19.286  0.00  0.00    +0.000 C 
ATOM     47  C   UNL     1     -16.315 -16.009  17.653  0.00  0.00    +0.000 C 
BRANCH  44  48
ATOM     48  O   UNL     1     -18.800 -14.951  20.848  0.00  0.00    +0.000 OA
ATOM     49  H   UNL     1     -18.930 -14.053  20.479  0.00  0.00    +0.000 HD
ENDBRANCH  44  48
BRANCH  45  50
ATOM     50  O   UNL     1     -17.460 -18.195  17.554  0.00  0.00    +0.000 OA
ATOM     51  H   UNL     1     -18.304 -18.494  17.948  0.00  0.00    +0.000 HD
ENDBRANCH  45  50
BRANCH  43  52
ATOM     52  O   UNL     1     -18.636 -17.691  20.115  0.00  0.00    +0.000 OA
ATOM     53  H   UNL     1     -19.138 -17.228  20.816  0.00  0.00    +0.000 HD
ENDBRANCH  43  52
BRANCH  46  54
ATOM     54  C   UNL     1     -16.452 -13.257  20.142  0.00  0.00    +0.000 C 
BRANCH  54  55
ATOM     55  O   UNL     1     -15.105 -12.963  19.762  0.00  0.00    +0.000 OA
ATOM     56  H   UNL     1     -14.865 -12.128  20.199  0.00  0.00    +0.000 HD
ENDBRANCH  54  55
ENDBRANCH  46  54
ENDBRANCH  41  47
ENDBRANCH   3  41
TORSDOF 17
ENDMDL
MODEL 5
REMARK VINA RESULT:      -5.8     25.831     28.858
REMARK  Name = 
REMARK  21 active torsions:
REMARK  status: ('A' for Active; 'I' for Inactive)
REMARK    1  A    between atoms: O_3  and  C_22
REMARK    2  A    between atoms: O_3  and  C_28
REMARK    3  A    between atoms: O_4  and  C_25
REMARK    4  A    between atoms: O_4  and  C_30
REMARK    5  A    between atoms: O_5  and  C_16
REMARK    6  A    between atoms: O_6  and  C_17
REMARK    7  A    between atoms: O_7  and  C_18
REMARK    8  A    between atoms: O_8  and  C_20
REMARK    9  A    between atoms: O_9  and  C_21
REMARK   10  A    between atoms: O_10  and  C_23
REMARK   11  A    between atoms: O_11  and  C_26
REMARK   12  A    between atoms: O_13  and  C_36
REMARK   13  A    between atoms: O_15  and  C_45
REMARK   14  A    between atoms: O_15  and  C_48
REMARK   15  A    between atoms: C_19  and  C_26
REMARK   16  A    between atoms: C_24  and  C_27
REMARK   17  A    between atoms: C_29  and  C_37
REMARK   18  A    between atoms: C_35  and  C_38
REMARK   19  A    between atoms: C_37  and  C_39
REMARK   20  A    between atoms: C_42  and  C_46
REMARK   21  A    between atoms: C_42  and  C_47
REMARK                            x       y       z     vdW  Elec       q    Type
REMARK                         _______ _______ _______ _____ _____    ______ ____
ROOT
ATOM      1  O   UNL     1     -18.433   2.899  18.637  0.00  0.00    +0.000 OA
ATOM      2  O   UNL     1     -15.278   3.142  21.180  0.00  0.00    +0.000 OA
ATOM      3  C   UNL     1     -19.578   0.575  21.221  0.00  0.00    +0.000 A 
ATOM      4  C   UNL     1     -19.557   1.341  20.041  0.00  0.00    +0.000 A 
ATOM      5  C   UNL     1     -16.253   3.824  19.122  0.00  0.00    +0.000 A 
ATOM      6  C   UNL     1     -18.435   2.157  19.794  0.00  0.00    +0.000 A 
ATOM      7  C   UNL     1     -17.377   2.209  20.702  0.00  0.00    +0.000 A 
ATOM      8  C   UNL     1     -16.223   3.064  20.397  0.00  0.00    +0.000 A 
ATOM      9  C   UNL     1     -18.537   0.659  22.150  0.00  0.00    +0.000 A 
ATOM     10  C   UNL     1     -17.326   3.666  18.327  0.00  0.00    +0.000 A 
ATOM     11  C   UNL     1     -17.434   1.463  21.882  0.00  0.00    +0.000 A 
ENDROOT
BRANCH  10  12
ATOM     12  C   UNL     1     -17.450   4.352  17.031  0.00  0.00    +0.000 A 
ATOM     13  C   UNL     1     -17.793   5.708  16.990  0.00  0.00    +0.000 A 
ATOM     14  C   UNL     1     -17.242   3.669  15.826  0.00  0.00    +0.000 A 
ATOM     15  C   UNL     1     -17.909   6.367  15.764  0.00  0.00    +0.000 A 
ATOM     16  C   UNL     1     -17.355   4.333  14.600  0.00  0.00    +0.000 A 
ATOM     17  C   UNL     1     -17.684   5.689  14.564  0.00  0.00    +0.000 A 
BRANCH  17  18
ATOM     18  O   UNL     1     -17.823   6.453  13.440  0.00  0.00    +0.000 OA
ATOM     19  C   UNL     1     -19.150   6.781  13.047  0.00  0.00    +0.000 C 
ENDBRANCH  17  18
ENDBRANCH  10  12
BRANCH  11  20
ATOM     20  O   UNL     1     -16.447   1.478  22.829  0.00  0.00    +0.000 OA
ATOM     21  H   UNL     1     -15.578   1.515  22.370  0.00  0.00    +0.000 HD
ENDBRANCH  11  20
BRANCH   4  22
ATOM     22  C   UNL     1     -20.688   1.270  19.033  0.00  0.00    +0.000 C 
BRANCH  22  23
ATOM     23  C   UNL     1     -21.640   2.431  19.156  0.00  0.00    +0.000 C 
ATOM     24  C   UNL     1     -21.906   3.402  18.260  0.00  0.00    +0.000 C 
ATOM     25  C   UNL     1     -21.286   3.529  16.896  0.00  0.00    +0.000 C 
ATOM     26  C   UNL     1     -22.905   4.482  18.584  0.00  0.00    +0.000 C 
ENDBRANCH  22  23
ENDBRANCH   4  22
BRANCH   5  27
ATOM     27  O   UNL     1     -15.159   4.592  18.765  0.00  0.00    +0.000 OA
BRANCH  27  33
ATOM     28  O   UNL     1     -13.069   3.475  18.751  0.00  0.00    +0.000 OA
ATOM     29  C   UNL     1     -12.954   5.916  17.220  0.00  0.00    +0.000 C 
ATOM     30  C   UNL     1     -11.780   5.452  18.092  0.00  0.00    +0.000 C 
ATOM     31  C   UNL     1     -13.803   4.731  16.761  0.00  0.00    +0.000 C 
ATOM     32  C   UNL     1     -12.302   4.583  19.243  0.00  0.00    +0.000 C 
ATOM     33  C   UNL     1     -14.210   3.867  17.973  0.00  0.00    +0.000 C 
ATOM     34  C   UNL     1     -11.158   4.012  20.075  0.00  0.00    +0.000 C 
BRANCH  29  35
ATOM     35  O   UNL     1     -12.422   6.616  16.080  0.00  0.00    +0.000 OA
ATOM     36  H   UNL     1     -12.263   5.918  15.410  0.00  0.00    +0.000 HD
ENDBRANCH  29  35
BRANCH  30  37
ATOM     37  O   UNL     1     -11.088   6.604  18.586  0.00  0.00    +0.000 OA
ATOM     38  H   UNL     1     -10.489   6.875  17.860  0.00  0.00    +0.000 HD
ENDBRANCH  30  37
BRANCH  31  39
ATOM     39  O   UNL     1     -13.028   3.989  15.796  0.00  0.00    +0.000 OA
ATOM     40  H   UNL     1     -12.967   3.071  16.121  0.00  0.00    +0.000 HD
ENDBRANCH  31  39
ENDBRANCH  27  33
ENDBRANCH   5  27
BRANCH   3  41
ATOM     41  O   UNL     1     -20.684  -0.184  21.506  0.00  0.00    +0.000 OA
BRANCH  41  47
ATOM     42  O   UNL     1     -20.201  -2.161  20.299  0.00  0.00    +0.000 OA
ATOM     43  C   UNL     1     -21.386  -3.760  22.348  0.00  0.00    +0.000 C 
ATOM     44  C   UNL     1     -21.073  -4.329  20.961  0.00  0.00    +0.000 C 
ATOM     45  C   UNL     1     -21.590  -2.248  22.286  0.00  0.00    +0.000 C 
ATOM     46  C   UNL     1     -19.890  -3.565  20.350  0.00  0.00    +0.000 C 
ATOM     47  C   UNL     1     -20.379  -1.592  21.596  0.00  0.00    +0.000 C 
BRANCH  44  48
ATOM     48  O   UNL     1     -20.786  -5.724  21.083  0.00  0.00    +0.000 OA
ATOM     49  H   UNL     1     -21.600  -6.179  20.783  0.00  0.00    +0.000 HD
ENDBRANCH  44  48
BRANCH  45  50
ATOM     50  O   UNL     1     -21.779  -1.758  23.623  0.00  0.00    +0.000 OA
ATOM     51  H   UNL     1     -22.716  -1.934  23.843  0.00  0.00    +0.000 HD
ENDBRANCH  45  50
BRANCH  43  52
ATOM     52  O   UNL     1     -22.566  -4.401  22.859  0.00  0.00    +0.000 OA
ATOM     53  H   UNL     1     -22.264  -5.278  23.172  0.00  0.00    +0.000 HD
ENDBRANCH  43  52
BRANCH  46  54
ATOM     54  C   UNL     1     -19.595  -4.049  18.924  0.00  0.00    +0.000 C 
BRANCH  54  55
ATOM     55  O   UNL     1     -18.558  -5.032  18.953  0.00  0.00    +0.000 OA
ATOM     56  H   UNL     1     -17.811  -4.668  18.448  0.00  0.00    +0.000 HD
ENDBRANCH  54  55
ENDBRANCH  46  54
ENDBRANCH  41  47
ENDBRANCH   3  41
TORSDOF 17
ENDMDL
MODEL 6
REMARK VINA RESULT:      -5.6     26.742     29.286
REMARK  Name = 
REMARK  21 active torsions:
REMARK  status: ('A' for Active; 'I' for Inactive)
REMARK    1  A    between atoms: O_3  and  C_22
REMARK    2  A    between atoms: O_3  and  C_28
REMARK    3  A    between atoms: O_4  and  C_25
REMARK    4  A    between atoms: O_4  and  C_30
REMARK    5  A    between atoms: O_5  and  C_16
REMARK    6  A    between atoms: O_6  and  C_17
REMARK    7  A    between atoms: O_7  and  C_18
REMARK    8  A    between atoms: O_8  and  C_20
REMARK    9  A    between atoms: O_9  and  C_21
REMARK   10  A    between atoms: O_10  and  C_23
REMARK   11  A    between atoms: O_11  and  C_26
REMARK   12  A    between atoms: O_13  and  C_36
REMARK   13  A    between atoms: O_15  and  C_45
REMARK   14  A    between atoms: O_15  and  C_48
REMARK   15  A    between atoms: C_19  and  C_26
REMARK   16  A    between atoms: C_24  and  C_27
REMARK   17  A    between atoms: C_29  and  C_37
REMARK   18  A    between atoms: C_35  and  C_38
REMARK   19  A    between atoms: C_37  and  C_39
REMARK   20  A    between atoms: C_42  and  C_46
REMARK   21  A    between atoms: C_42  and  C_47
REMARK                            x       y       z     vdW  Elec       q    Type
REMARK                         _______ _______ _______ _____ _____    ______ ____
ROOT
ATOM      1  O   UNL     1     -18.812   3.655  17.208  0.00  0.00    +0.000 OA
ATOM      2  O   UNL     1     -15.303   4.746  18.936  0.00  0.00    +0.000 OA
ATOM      3  C   UNL     1     -18.951   1.557  20.203  0.00  0.00    +0.000 A 
ATOM      4  C   UNL     1     -19.315   2.147  18.979  0.00  0.00    +0.000 A 
ATOM      5  C   UNL     1     -16.789   4.974  17.094  0.00  0.00    +0.000 A 
ATOM      6  C   UNL     1     -18.439   3.090  18.404  0.00  0.00    +0.000 A 
ATOM      7  C   UNL     1     -17.246   3.433  19.040  0.00  0.00    +0.000 A 
ATOM      8  C   UNL     1     -16.358   4.412  18.399  0.00  0.00    +0.000 A 
ATOM      9  C   UNL     1     -17.776   1.933  20.860  0.00  0.00    +0.000 A 
ATOM     10  C   UNL     1     -17.954   4.539  16.582  0.00  0.00    +0.000 A 
ATOM     11  C   UNL     1     -16.920   2.857  20.271  0.00  0.00    +0.000 A 
ENDROOT
BRANCH  10  12
ATOM     12  C   UNL     1     -18.466   5.012  15.286  0.00  0.00    +0.000 A 
ATOM     13  C   UNL     1     -18.654   4.105  14.237  0.00  0.00    +0.000 A 
ATOM     14  C   UNL     1     -18.761   6.364  15.073  0.00  0.00    +0.000 A 
ATOM     15  C   UNL     1     -19.144   4.545  13.005  0.00  0.00    +0.000 A 
ATOM     16  C   UNL     1     -19.254   6.802  13.838  0.00  0.00    +0.000 A 
ATOM     17  C   UNL     1     -19.453   5.891  12.800  0.00  0.00    +0.000 A 
BRANCH  17  18
ATOM     18  O   UNL     1     -19.929   6.185  11.553  0.00  0.00    +0.000 OA
ATOM     19  C   UNL     1     -20.694   5.177  10.904  0.00  0.00    +0.000 C 
ENDBRANCH  17  18
ENDBRANCH  10  12
BRANCH  11  20
ATOM     20  O   UNL     1     -15.780   3.160  20.964  0.00  0.00    +0.000 OA
ATOM     21  H   UNL     1     -15.912   4.024  21.414  0.00  0.00    +0.000 HD
ENDBRANCH  11  20
BRANCH   4  22
ATOM     22  C   UNL     1     -20.596   1.759  18.264  0.00  0.00    +0.000 C 
BRANCH  22  23
ATOM     23  C   UNL     1     -21.703   2.756  18.489  0.00  0.00    +0.000 C 
ATOM     24  C   UNL     1     -22.325   3.541  17.588  0.00  0.00    +0.000 C 
ATOM     25  C   UNL     1     -22.036   3.582  16.114  0.00  0.00    +0.000 C 
ATOM     26  C   UNL     1     -23.421   4.478  18.025  0.00  0.00    +0.000 C 
ENDBRANCH  22  23
ENDBRANCH   4  22
BRANCH   5  27
ATOM     27  O   UNL     1     -15.953   5.850  16.425  0.00  0.00    +0.000 OA
BRANCH  27  33
ATOM     28  O   UNL     1     -13.585   5.895  16.390  0.00  0.00    +0.000 OA
ATOM     29  C   UNL     1     -14.674   6.548  13.802  0.00  0.00    +0.000 C 
ATOM     30  C   UNL     1     -13.431   7.253  14.357  0.00  0.00    +0.000 C 
ATOM     31  C   UNL     1     -14.827   5.148  14.396  0.00  0.00    +0.000 C 
ATOM     32  C   UNL     1     -13.465   7.233  15.890  0.00  0.00    +0.000 C 
ATOM     33  C   UNL     1     -14.765   5.215  15.937  0.00  0.00    +0.000 C 
ATOM     34  C   UNL     1     -12.194   7.831  16.486  0.00  0.00    +0.000 C 
BRANCH  29  35
ATOM     35  O   UNL     1     -14.547   6.467  12.370  0.00  0.00    +0.000 OA
ATOM     36  H   UNL     1     -14.434   5.512  12.182  0.00  0.00    +0.000 HD
ENDBRANCH  29  35
BRANCH  30  37
ATOM     37  O   UNL     1     -13.398   8.595  13.857  0.00  0.00    +0.000 OA
ATOM     38  H   UNL     1     -14.301   8.764  13.517  0.00  0.00    +0.000 HD
ENDBRANCH  30  37
BRANCH  31  39
ATOM     39  O   UNL     1     -13.780   4.324  13.842  0.00  0.00    +0.000 OA
ATOM     40  H   UNL     1     -13.419   3.787  14.572  0.00  0.00    +0.000 HD
ENDBRANCH  31  39
ENDBRANCH  27  33
ENDBRANCH   5  27
BRANCH   3  41
ATOM     41  O   UNL     1     -19.815   0.678  20.805  0.00  0.00    +0.000 OA
BRANCH  41  47
ATOM     42  O   UNL     1     -20.141  -1.395  19.712  0.00  0.00    +0.000 OA
ATOM     43  C   UNL     1     -19.236  -2.811  22.022  0.00  0.00    +0.000 C 
ATOM     44  C   UNL     1     -19.976  -3.517  20.883  0.00  0.00    +0.000 C 
ATOM     45  C   UNL     1     -19.599  -1.328  22.075  0.00  0.00    +0.000 C 
ATOM     46  C   UNL     1     -19.728  -2.765  19.568  0.00  0.00    +0.000 C 
ATOM     47  C   UNL     1     -19.376  -0.692  20.691  0.00  0.00    +0.000 C 
BRANCH  44  48
ATOM     48  O   UNL     1     -19.528  -4.871  20.804  0.00  0.00    +0.000 OA
ATOM     49  H   UNL     1     -20.231  -5.400  21.236  0.00  0.00    +0.000 HD
ENDBRANCH  44  48
BRANCH  45  50
ATOM     50  O   UNL     1     -18.801  -0.700  23.092  0.00  0.00    +0.000 OA
ATOM     51  H   UNL     1     -18.879   0.262  22.937  0.00  0.00    +0.000 HD
ENDBRANCH  45  50
BRANCH  43  52
ATOM     52  O   UNL     1     -19.571  -3.451  23.264  0.00  0.00    +0.000 OA
ATOM     53  H   UNL     1     -19.165  -4.340  23.209  0.00  0.00    +0.000 HD
ENDBRANCH  43  52
BRANCH  46  54
ATOM     54  C   UNL     1     -20.520  -3.393  18.413  0.00  0.00    +0.000 C 
BRANCH  54  55
ATOM     55  O   UNL     1     -21.640  -4.115  18.932  0.00  0.00    +0.000 OA
ATOM     56  H   UNL     1     -21.910  -3.666  19.751  0.00  0.00    +0.000 HD
ENDBRANCH  54  55
ENDBRANCH  46  54
ENDBRANCH  41  47
ENDBRANCH   3  41
TORSDOF 17
ENDMDL
MODEL 7
REMARK VINA RESULT:      -5.6     19.421     23.595
REMARK  Name = 
REMARK  21 active torsions:
REMARK  status: ('A' for Active; 'I' for Inactive)
REMARK    1  A    between atoms: O_3  and  C_22
REMARK    2  A    between atoms: O_3  and  C_28
REMARK    3  A    between atoms: O_4  and  C_25
REMARK    4  A    between atoms: O_4  and  C_30
REMARK    5  A    between atoms: O_5  and  C_16
REMARK    6  A    between atoms: O_6  and  C_17
REMARK    7  A    between atoms: O_7  and  C_18
REMARK    8  A    between atoms: O_8  and  C_20
REMARK    9  A    between atoms: O_9  and  C_21
REMARK   10  A    between atoms: O_10  and  C_23
REMARK   11  A    between atoms: O_11  and  C_26
REMARK   12  A    between atoms: O_13  and  C_36
REMARK   13  A    between atoms: O_15  and  C_45
REMARK   14  A    between atoms: O_15  and  C_48
REMARK   15  A    between atoms: C_19  and  C_26
REMARK   16  A    between atoms: C_24  and  C_27
REMARK   17  A    between atoms: C_29  and  C_37
REMARK   18  A    between atoms: C_35  and  C_38
REMARK   19  A    between atoms: C_37  and  C_39
REMARK   20  A    between atoms: C_42  and  C_46
REMARK   21  A    between atoms: C_42  and  C_47
REMARK                            x       y       z     vdW  Elec       q    Type
REMARK                         _______ _______ _______ _____ _____    ______ ____
ROOT
ATOM      1  O   UNL     1      -7.512  -9.515  29.879  0.00  0.00    +0.000 OA
ATOM      2  O   UNL     1      -8.661  -7.344  26.646  0.00  0.00    +0.000 OA
ATOM      3  C   UNL     1      -4.743  -7.126  29.758  0.00  0.00    +0.000 A 
ATOM      4  C   UNL     1      -5.555  -8.195  30.179  0.00  0.00    +0.000 A 
ATOM      5  C   UNL     1      -9.109  -9.174  28.096  0.00  0.00    +0.000 A 
ATOM      6  C   UNL     1      -6.732  -8.467  29.452  0.00  0.00    +0.000 A 
ATOM      7  C   UNL     1      -7.084  -7.688  28.350  0.00  0.00    +0.000 A 
ATOM      8  C   UNL     1      -8.314  -8.015  27.616  0.00  0.00    +0.000 A 
ATOM      9  C   UNL     1      -5.118  -6.320  28.678  0.00  0.00    +0.000 A 
ATOM     10  C   UNL     1      -8.643  -9.852  29.160  0.00  0.00    +0.000 A 
ATOM     11  C   UNL     1      -6.278  -6.612  27.969  0.00  0.00    +0.000 A 
ENDROOT
BRANCH  10  12
ATOM     12  C   UNL     1      -9.337 -11.029  29.705  0.00  0.00    +0.000 A 
ATOM     13  C   UNL     1      -9.232 -12.264  29.057  0.00  0.00    +0.000 A 
ATOM     14  C   UNL     1     -10.119 -10.937  30.863  0.00  0.00    +0.000 A 
ATOM     15  C   UNL     1      -9.885 -13.387  29.571  0.00  0.00    +0.000 A 
ATOM     16  C   UNL     1     -10.770 -12.064  31.378  0.00  0.00    +0.000 A 
ATOM     17  C   UNL     1     -10.651 -13.296  30.735  0.00  0.00    +0.000 A 
BRANCH  17  18
ATOM     18  O   UNL     1     -11.230 -14.469  31.132  0.00  0.00    +0.000 OA
ATOM     19  C   UNL     1     -11.136 -15.567  30.233  0.00  0.00    +0.000 C 
ENDBRANCH  17  18
ENDBRANCH  10  12
BRANCH  11  20
ATOM     20  O   UNL     1      -6.570  -5.791  26.914  0.00  0.00    +0.000 OA
ATOM     21  H   UNL     1      -7.522  -5.552  26.963  0.00  0.00    +0.000 HD
ENDBRANCH  11  20
BRANCH   4  22
ATOM     22  C   UNL     1      -5.166  -9.066  31.358  0.00  0.00    +0.000 C 
BRANCH  22  23
ATOM     23  C   UNL     1      -4.271 -10.209  30.955  0.00  0.00    +0.000 C 
ATOM     24  C   UNL     1      -4.527 -11.532  30.989  0.00  0.00    +0.000 C 
ATOM     25  C   UNL     1      -5.812 -12.164  31.448  0.00  0.00    +0.000 C 
ATOM     26  C   UNL     1      -3.484 -12.520  30.535  0.00  0.00    +0.000 C 
ENDBRANCH  22  23
ENDBRANCH   4  22
BRANCH   5  27
ATOM     27  O   UNL     1     -10.239  -9.556  27.397  0.00  0.00    +0.000 OA
BRANCH  27  33
ATOM     28  O   UNL     1     -12.310  -9.668  28.543  0.00  0.00    +0.000 OA
ATOM     29  C   UNL     1     -12.708  -9.347  25.705  0.00  0.00    +0.000 C 
ATOM     30  C   UNL     1     -13.619 -10.243  26.553  0.00  0.00    +0.000 C 
ATOM     31  C   UNL     1     -12.087  -8.235  26.549  0.00  0.00    +0.000 C 
ATOM     32  C   UNL     1     -12.849 -10.754  27.777  0.00  0.00    +0.000 C 
ATOM     33  C   UNL     1     -11.409  -8.833  27.800  0.00  0.00    +0.000 C 
ATOM     34  C   UNL     1     -13.748 -11.565  28.704  0.00  0.00    +0.000 C 
BRANCH  29  35
ATOM     35  O   UNL     1     -13.495  -8.780  24.641  0.00  0.00    +0.000 OA
ATOM     36  H   UNL     1     -13.871  -7.957  25.018  0.00  0.00    +0.000 HD
ENDBRANCH  29  35
BRANCH  30  37
ATOM     37  O   UNL     1     -14.083 -11.329  25.742  0.00  0.00    +0.000 OA
ATOM     38  H   UNL     1     -14.387 -12.011  26.376  0.00  0.00    +0.000 HD
ENDBRANCH  30  37
BRANCH  31  39
ATOM     39  O   UNL     1     -13.138  -7.307  26.888  0.00  0.00    +0.000 OA
ATOM     40  H   UNL     1     -13.678  -7.178  26.086  0.00  0.00    +0.000 HD
ENDBRANCH  31  39
ENDBRANCH  27  33
ENDBRANCH   5  27
BRANCH   3  41
ATOM     41  O   UNL     1      -3.622  -6.811  30.483  0.00  0.00    +0.000 OA
BRANCH  41  47
ATOM     42  O   UNL     1      -1.627  -7.865  29.771  0.00  0.00    +0.000 OA
ATOM     43  C   UNL     1      -0.359  -5.332  29.408  0.00  0.00    +0.000 C 
ATOM     44  C   UNL     1       0.442  -6.636  29.441  0.00  0.00    +0.000 C 
ATOM     45  C   UNL     1      -1.671  -5.475  30.177  0.00  0.00    +0.000 C 
ATOM     46  C   UNL     1      -0.443  -7.792  28.956  0.00  0.00    +0.000 C 
ATOM     47  C   UNL     1      -2.444  -6.701  29.657  0.00  0.00    +0.000 C 
BRANCH  44  48
ATOM     48  O   UNL     1       1.605  -6.490  28.623  0.00  0.00    +0.000 OA
ATOM     49  H   UNL     1       1.610  -5.549  28.351  0.00  0.00    +0.000 HD
ENDBRANCH  44  48
BRANCH  45  50
ATOM     50  O   UNL     1      -2.422  -4.259  30.026  0.00  0.00    +0.000 OA
ATOM     51  H   UNL     1      -2.605  -4.174  29.069  0.00  0.00    +0.000 HD
ENDBRANCH  45  50
BRANCH  43  52
ATOM     52  O   UNL     1       0.439  -4.279  29.974  0.00  0.00    +0.000 OA
ATOM     53  H   UNL     1      -0.199  -3.688  30.421  0.00  0.00    +0.000 HD
ENDBRANCH  43  52
BRANCH  46  54
ATOM     54  C   UNL     1       0.296  -9.134  29.052  0.00  0.00    +0.000 C 
BRANCH  54  55
ATOM     55  O   UNL     1       1.094  -9.330  27.883  0.00  0.00    +0.000 OA
ATOM     56  H   UNL     1       0.502  -9.236  27.118  0.00  0.00    +0.000 HD
ENDBRANCH  54  55
ENDBRANCH  46  54
ENDBRANCH  41  47
ENDBRANCH   3  41
TORSDOF 17
ENDMDL
MODEL 8
REMARK VINA RESULT:      -5.5     25.333     28.060
REMARK  Name = 
REMARK  21 active torsions:
REMARK  status: ('A' for Active; 'I' for Inactive)
REMARK    1  A    between atoms: O_3  and  C_22
REMARK    2  A    between atoms: O_3  and  C_28
REMARK    3  A    between atoms: O_4  and  C_25
REMARK    4  A    between atoms: O_4  and  C_30
REMARK    5  A    between atoms: O_5  and  C_16
REMARK    6  A    between atoms: O_6  and  C_17
REMARK    7  A    between atoms: O_7  and  C_18
REMARK    8  A    between atoms: O_8  and  C_20
REMARK    9  A    between atoms: O_9  and  C_21
REMARK   10  A    between atoms: O_10  and  C_23
REMARK   11  A    between atoms: O_11  and  C_26
REMARK   12  A    between atoms: O_13  and  C_36
REMARK   13  A    between atoms: O_15  and  C_45
REMARK   14  A    between atoms: O_15  and  C_48
REMARK   15  A    between atoms: C_19  and  C_26
REMARK   16  A    between atoms: C_24  and  C_27
REMARK   17  A    between atoms: C_29  and  C_37
REMARK   18  A    between atoms: C_35  and  C_38
REMARK   19  A    between atoms: C_37  and  C_39
REMARK   20  A    between atoms: C_42  and  C_46
REMARK   21  A    between atoms: C_42  and  C_47
REMARK                            x       y       z     vdW  Elec       q    Type
REMARK                         _______ _______ _______ _____ _____    ______ ____
ROOT
ATOM      1  O   UNL     1     -14.989   3.483  20.748  0.00  0.00    +0.000 OA
ATOM      2  O   UNL     1     -17.210   4.793  17.612  0.00  0.00    +0.000 OA
ATOM      3  C   UNL     1     -18.023   1.518  21.313  0.00  0.00    +0.000 A 
ATOM      4  C   UNL     1     -16.727   2.034  21.487  0.00  0.00    +0.000 A 
ATOM      5  C   UNL     1     -15.170   4.936  18.825  0.00  0.00    +0.000 A 
ATOM      6  C   UNL     1     -16.259   2.991  20.563  0.00  0.00    +0.000 A 
ATOM      7  C   UNL     1     -17.060   3.405  19.499  0.00  0.00    +0.000 A 
ATOM      8  C   UNL     1     -16.535   4.412  18.568  0.00  0.00    +0.000 A 
ATOM      9  C   UNL     1     -18.810   1.903  20.223  0.00  0.00    +0.000 A 
ATOM     10  C   UNL     1     -14.514   4.465  19.901  0.00  0.00    +0.000 A 
ATOM     11  C   UNL     1     -18.334   2.855  19.329  0.00  0.00    +0.000 A 
ENDROOT
BRANCH  10  12
ATOM     12  C   UNL     1     -13.167   4.931  20.263  0.00  0.00    +0.000 A 
ATOM     13  C   UNL     1     -12.994   6.205  20.815  0.00  0.00    +0.000 A 
ATOM     14  C   UNL     1     -12.040   4.125  20.054  0.00  0.00    +0.000 A 
ATOM     15  C   UNL     1     -11.718   6.653  21.166  0.00  0.00    +0.000 A 
ATOM     16  C   UNL     1     -10.764   4.576  20.410  0.00  0.00    +0.000 A 
ATOM     17  C   UNL     1     -10.598   5.841  20.973  0.00  0.00    +0.000 A 
BRANCH  17  18
ATOM     18  O   UNL     1      -9.413   6.399  21.365  0.00  0.00    +0.000 OA
ATOM     19  C   UNL     1      -9.156   6.443  22.763  0.00  0.00    +0.000 C 
ENDBRANCH  17  18
ENDBRANCH  10  12
BRANCH  11  20
ATOM     20  O   UNL     1     -19.168   3.196  18.299  0.00  0.00    +0.000 OA
ATOM     21  H   UNL     1     -20.095   3.124  18.616  0.00  0.00    +0.000 HD
ENDBRANCH  11  20
BRANCH   4  22
ATOM     22  C   UNL     1     -15.858   1.612  22.656  0.00  0.00    +0.000 C 
BRANCH  22  23
ATOM     23  C   UNL     1     -16.003   2.533  23.840  0.00  0.00    +0.000 C 
ATOM     24  C   UNL     1     -15.095   3.381  24.364  0.00  0.00    +0.000 C 
ATOM     25  C   UNL     1     -13.698   3.594  23.851  0.00  0.00    +0.000 C 
ATOM     26  C   UNL     1     -15.446   4.224  25.562  0.00  0.00    +0.000 C 
ENDBRANCH  22  23
ENDBRANCH   4  22
BRANCH   5  27
ATOM     27  O   UNL     1     -14.662   5.932  18.010  0.00  0.00    +0.000 OA
BRANCH  27  33
ATOM     28  O   UNL     1     -12.838   6.592  16.651  0.00  0.00    +0.000 OA
ATOM     29  C   UNL     1     -14.876   5.279  15.089  0.00  0.00    +0.000 C 
ATOM     30  C   UNL     1     -14.093   6.482  14.549  0.00  0.00    +0.000 C 
ATOM     31  C   UNL     1     -14.063   4.516  16.136  0.00  0.00    +0.000 C 
ATOM     32  C   UNL     1     -13.613   7.354  15.716  0.00  0.00    +0.000 C 
ATOM     33  C   UNL     1     -13.551   5.486  17.222  0.00  0.00    +0.000 C 
ATOM     34  C   UNL     1     -12.739   8.506  15.229  0.00  0.00    +0.000 C 
BRANCH  29  35
ATOM     35  O   UNL     1     -15.196   4.414  13.984  0.00  0.00    +0.000 OA
ATOM     36  H   UNL     1     -15.519   5.015  13.280  0.00  0.00    +0.000 HD
ENDBRANCH  29  35
BRANCH  30  37
ATOM     37  O   UNL     1     -14.938   7.222  13.661  0.00  0.00    +0.000 OA
ATOM     38  H   UNL     1     -15.837   7.151  14.043  0.00  0.00    +0.000 HD
ENDBRANCH  30  37
BRANCH  31  39
ATOM     39  O   UNL     1     -12.985   3.849  15.447  0.00  0.00    +0.000 OA
ATOM     40  H   UNL     1     -12.962   2.929  15.771  0.00  0.00    +0.000 HD
ENDBRANCH  31  39
ENDBRANCH  27  33
ENDBRANCH   5  27
BRANCH   3  41
ATOM     41  O   UNL     1     -18.478   0.547  22.169  0.00  0.00    +0.000 OA
BRANCH  41  47
ATOM     42  O   UNL     1     -20.683  -0.180  22.625  0.00  0.00    +0.000 OA
ATOM     43  C   UNL     1     -20.363  -2.408  20.867  0.00  0.00    +0.000 C 
ATOM     44  C   UNL     1     -21.521  -2.330  21.867  0.00  0.00    +0.000 C 
ATOM     45  C   UNL     1     -19.173  -1.578  21.342  0.00  0.00    +0.000 C 
ATOM     46  C   UNL     1     -21.857  -0.858  22.145  0.00  0.00    +0.000 C 
ATOM     47  C   UNL     1     -19.636  -0.143  21.656  0.00  0.00    +0.000 C 
BRANCH  44  48
ATOM     48  O   UNL     1     -22.646  -3.031  21.334  0.00  0.00    +0.000 OA
ATOM     49  H   UNL     1     -23.160  -3.322  22.116  0.00  0.00    +0.000 HD
ENDBRANCH  44  48
BRANCH  45  50
ATOM     50  O   UNL     1     -18.161  -1.607  20.322  0.00  0.00    +0.000 OA
ATOM     51  H   UNL     1     -17.365  -1.987  20.744  0.00  0.00    +0.000 HD
ENDBRANCH  45  50
BRANCH  43  52
ATOM     52  O   UNL     1     -19.980  -3.784  20.705  0.00  0.00    +0.000 OA
ATOM     53  H   UNL     1     -20.155  -3.988  19.765  0.00  0.00    +0.000 HD
ENDBRANCH  43  52
BRANCH  46  54
ATOM     54  C   UNL     1     -22.958  -0.733  23.206  0.00  0.00    +0.000 C 
BRANCH  54  55
ATOM     55  O   UNL     1     -22.405  -0.211  24.417  0.00  0.00    +0.000 OA
ATOM     56  H   UNL     1     -22.551   0.750  24.403  0.00  0.00    +0.000 HD
ENDBRANCH  54  55
ENDBRANCH  46  54
ENDBRANCH  41  47
ENDBRANCH   3  41
TORSDOF 17
ENDMDL
MODEL 9
REMARK VINA RESULT:      -5.5     22.665     27.080
REMARK  Name = 
REMARK  21 active torsions:
REMARK  status: ('A' for Active; 'I' for Inactive)
REMARK    1  A    between atoms: O_3  and  C_22
REMARK    2  A    between atoms: O_3  and  C_28
REMARK    3  A    between atoms: O_4  and  C_25
REMARK    4  A    between atoms: O_4  and  C_30
REMARK    5  A    between atoms: O_5  and  C_16
REMARK    6  A    between atoms: O_6  and  C_17
REMARK    7  A    between atoms: O_7  and  C_18
REMARK    8  A    between atoms: O_8  and  C_20
REMARK    9  A    between atoms: O_9  and  C_21
REMARK   10  A    between atoms: O_10  and  C_23
REMARK   11  A    between atoms: O_11  and  C_26
REMARK   12  A    between atoms: O_13  and  C_36
REMARK   13  A    between atoms: O_15  and  C_45
REMARK   14  A    between atoms: O_15  and  C_48
REMARK   15  A    between atoms: C_19  and  C_26
REMARK   16  A    between atoms: C_24  and  C_27
REMARK   17  A    between atoms: C_29  and  C_37
REMARK   18  A    between atoms: C_35  and  C_38
REMARK   19  A    between atoms: C_37  and  C_39
REMARK   20  A    between atoms: C_42  and  C_46
REMARK   21  A    between atoms: C_42  and  C_47
REMARK                            x       y       z     vdW  Elec       q    Type
REMARK                         _______ _______ _______ _____ _____    ______ ____
ROOT
ATOM      1  O   UNL     1     -13.554 -10.090  26.776  0.00  0.00    +0.000 OA
ATOM      2  O   UNL     1     -15.933  -7.154  28.261  0.00  0.00    +0.000 OA
ATOM      3  C   UNL     1     -11.066  -7.429  27.115  0.00  0.00    +0.000 A 
ATOM      4  C   UNL     1     -11.636  -8.682  26.827  0.00  0.00    +0.000 A 
ATOM      5  C   UNL     1     -15.766  -9.382  27.446  0.00  0.00    +0.000 A 
ATOM      6  C   UNL     1     -13.015  -8.859  27.063  0.00  0.00    +0.000 A 
ATOM      7  C   UNL     1     -13.789  -7.819  27.579  0.00  0.00    +0.000 A 
ATOM      8  C   UNL     1     -15.223  -8.045  27.798  0.00  0.00    +0.000 A 
ATOM      9  C   UNL     1     -11.833  -6.400  27.670  0.00  0.00    +0.000 A 
ATOM     10  C   UNL     1     -14.912 -10.287  26.937  0.00  0.00    +0.000 A 
ATOM     11  C   UNL     1     -13.193  -6.593  27.886  0.00  0.00    +0.000 A 
ENDROOT
BRANCH  10  12
ATOM     12  C   UNL     1     -15.346 -11.634  26.533  0.00  0.00    +0.000 A 
ATOM     13  C   UNL     1     -14.904 -12.753  27.247  0.00  0.00    +0.000 A 
ATOM     14  C   UNL     1     -16.191 -11.823  25.432  0.00  0.00    +0.000 A 
ATOM     15  C   UNL     1     -15.315 -14.034  26.873  0.00  0.00    +0.000 A 
ATOM     16  C   UNL     1     -16.604 -13.108  25.061  0.00  0.00    +0.000 A 
ATOM     17  C   UNL     1     -16.171 -14.220  25.785  0.00  0.00    +0.000 A 
BRANCH  17  18
ATOM     18  O   UNL     1     -16.500 -15.522  25.531  0.00  0.00    +0.000 OA
ATOM     19  C   UNL     1     -15.496 -16.498  25.783  0.00  0.00    +0.000 C 
ENDBRANCH  17  18
ENDBRANCH  10  12
BRANCH  11  20
ATOM     20  O   UNL     1     -13.882  -5.534  28.414  0.00  0.00    +0.000 OA
ATOM     21  H   UNL     1     -14.490  -5.187  27.723  0.00  0.00    +0.000 HD
ENDBRANCH  11  20
BRANCH   4  22
ATOM     22  C   UNL     1     -10.811  -9.810  26.239  0.00  0.00    +0.000 C 
BRANCH  22  23
ATOM     23  C   UNL     1      -9.896 -10.441  27.256  0.00  0.00    +0.000 C 
ATOM     24  C   UNL     1     -10.111 -11.528  28.023  0.00  0.00    +0.000 C 
ATOM     25  C   UNL     1     -11.356 -12.371  28.018  0.00  0.00    +0.000 C 
ATOM     26  C   UNL     1      -9.053 -12.000  28.986  0.00  0.00    +0.000 C 
ENDBRANCH  22  23
ENDBRANCH   4  22
BRANCH   5  27
ATOM     27  O   UNL     1     -17.123  -9.617  27.577  0.00  0.00    +0.000 OA
BRANCH  27  33
ATOM     28  O   UNL     1     -17.613 -11.385  29.076  0.00  0.00    +0.000 OA
ATOM     29  C   UNL     1     -19.975  -9.839  28.483  0.00  0.00    +0.000 C 
ATOM     30  C   UNL     1     -20.025 -11.364  28.642  0.00  0.00    +0.000 C 
ATOM     31  C   UNL     1     -18.812  -9.240  29.274  0.00  0.00    +0.000 C 
ATOM     32  C   UNL     1     -18.660 -11.967  28.287  0.00  0.00    +0.000 C 
ATOM     33  C   UNL     1     -17.496  -9.963  28.916  0.00  0.00    +0.000 C 
ATOM     34  C   UNL     1     -18.633 -13.472  28.533  0.00  0.00    +0.000 C 
BRANCH  29  35
ATOM     35  O   UNL     1     -21.224  -9.295  28.948  0.00  0.00    +0.000 OA
ATOM     36  H   UNL     1     -21.457  -9.836  29.731  0.00  0.00    +0.000 HD
ENDBRANCH  29  35
BRANCH  30  37
ATOM     37  O   UNL     1     -21.057 -11.883  27.795  0.00  0.00    +0.000 OA
ATOM     38  H   UNL     1     -20.654 -12.652  27.342  0.00  0.00    +0.000 HD
ENDBRANCH  30  37
BRANCH  31  39
ATOM     39  O   UNL     1     -19.135  -9.354  30.676  0.00  0.00    +0.000 OA
ATOM     40  H   UNL     1     -18.409  -9.848  31.099  0.00  0.00    +0.000 HD
ENDBRANCH  31  39
ENDBRANCH  27  33
ENDBRANCH   5  27
BRANCH   3  41
ATOM     41  O   UNL     1      -9.716  -7.252  26.942  0.00  0.00    +0.000 OA
BRANCH  41  47
ATOM     42  O   UNL     1      -8.989  -5.086  26.329  0.00  0.00    +0.000 OA
ATOM     43  C   UNL     1      -7.369  -4.912  28.675  0.00  0.00    +0.000 C 
ATOM     44  C   UNL     1      -7.202  -3.937  27.506  0.00  0.00    +0.000 C 
ATOM     45  C   UNL     1      -7.966  -6.236  28.203  0.00  0.00    +0.000 C 
ATOM     46  C   UNL     1      -8.539  -3.792  26.766  0.00  0.00    +0.000 C 
ATOM     47  C   UNL     1      -9.263  -5.967  27.417  0.00  0.00    +0.000 C 
BRANCH  44  48
ATOM     48  O   UNL     1      -6.743  -2.681  28.008  0.00  0.00    +0.000 OA
ATOM     49  H   UNL     1      -7.505  -2.073  27.911  0.00  0.00    +0.000 HD
ENDBRANCH  44  48
BRANCH  45  50
ATOM     50  O   UNL     1      -8.194  -7.069  29.352  0.00  0.00    +0.000 OA
ATOM     51  H   UNL     1      -7.408  -7.647  29.424  0.00  0.00    +0.000 HD
ENDBRANCH  45  50
BRANCH  43  52
ATOM     52  O   UNL     1      -6.088  -5.132  29.286  0.00  0.00    +0.000 OA
ATOM     53  H   UNL     1      -5.480  -5.322  28.543  0.00  0.00    +0.000 HD
ENDBRANCH  43  52
BRANCH  46  54
ATOM     54  C   UNL     1      -8.395  -2.886  25.536  0.00  0.00    +0.000 C 
BRANCH  54  55
ATOM     55  O   UNL     1      -8.803  -1.556  25.864  0.00  0.00    +0.000 OA
ATOM     56  H   UNL     1      -8.878  -1.515  26.832  0.00  0.00    +0.000 HD
ENDBRANCH  54  55
ENDBRANCH  46  54
ENDBRANCH  41  47
ENDBRANCH   3  41
TORSDOF 17
ENDMDL
