MODEL 1
REMARK VINA RESULT:      -5.5      0.000      0.000
REMARK  Name = 
REMARK  6 active torsions:
REMARK  status: ('A' for Active; 'I' for Inactive)
REMARK    1  A    between atoms: O_3  and  C_16
REMARK    2  A    between atoms: O_4  and  C_17
REMARK    3  A    between atoms: O_4  and  C_22
REMARK    4  A    between atoms: O_5  and  C_19
REMARK    5  A    between atoms: O_5  and  C_23
REMARK    6  A    between atoms: O_6  and  C_21
REMARK                            x       y       z     vdW  Elec       q    Type
REMARK                         _______ _______ _______ _____ _____    ______ ____
ROOT
ATOM      1  O   UNL     1      -3.014 -15.930  18.119  0.00  0.00    +0.000 OA
ATOM      2  O   UNL     1      -4.261 -17.309  21.602  0.00  0.00    +0.000 OA
ATOM      3  C   UNL     1      -2.532 -17.525  19.870  0.00  0.00    +0.000 C 
ATOM      4  C   UNL     1      -3.536 -17.104  18.792  0.00  0.00    +0.000 C 
ATOM      5  C   UNL     1      -1.831 -16.227  20.079  0.00  0.00    +0.000 A 
ATOM      6  C   UNL     1      -3.233 -18.139  21.064  0.00  0.00    +0.000 C 
ATOM      7  C   UNL     1      -4.923 -16.816  19.324  0.00  0.00    +0.000 A 
ATOM      8  C   UNL     1      -2.131 -15.385  19.019  0.00  0.00    +0.000 A 
ATOM      9  C   UNL     1      -5.210 -16.915  20.696  0.00  0.00    +0.000 A 
ATOM     10  C   UNL     1      -0.953 -15.831  21.073  0.00  0.00    +0.000 A 
ATOM     11  C   UNL     1      -5.938 -16.435  18.427  0.00  0.00    +0.000 A 
ATOM     12  C   UNL     1      -1.562 -14.131  18.920  0.00  0.00    +0.000 A 
ATOM     13  C   UNL     1      -6.490 -16.587  21.165  0.00  0.00    +0.000 A 
ATOM     14  C   UNL     1      -0.378 -14.554  20.992  0.00  0.00    +0.000 A 
ATOM     15  C   UNL     1      -0.677 -13.700  19.917  0.00  0.00    +0.000 A 
ATOM     16  C   UNL     1      -7.224 -16.162  18.886  0.00  0.00    +0.000 A 
ATOM     17  C   UNL     1      -7.488 -16.247  20.245  0.00  0.00    +0.000 A 
ENDROOT
BRANCH  12  18
ATOM     18  O   UNL     1      -1.861 -13.317  17.864  0.00  0.00    +0.000 OA
ATOM     19  H   UNL     1      -1.017 -12.891  17.625  0.00  0.00    +0.000 HD
ENDBRANCH  12  18
BRANCH  13  20
ATOM     20  O   UNL     1      -6.906 -16.624  22.475  0.00  0.00    +0.000 OA
ATOM     21  C   UNL     1      -7.253 -17.925  22.947  0.00  0.00    +0.000 C 
ENDBRANCH  13  20
BRANCH  15  22
ATOM     22  O   UNL     1      -0.171 -12.437  19.730  0.00  0.00    +0.000 OA
ATOM     23  C   UNL     1       0.308 -11.762  20.888  0.00  0.00    +0.000 C 
ENDBRANCH  15  22
BRANCH  17  24
ATOM     24  O   UNL     1      -8.759 -15.973  20.676  0.00  0.00    +0.000 OA
ATOM     25  H   UNL     1      -9.342 -16.412  20.028  0.00  0.00    +0.000 HD
ENDBRANCH  17  24
TORSDOF 4
ENDMDL
MODEL 2
REMARK VINA RESULT:      -5.4     11.650     13.166
REMARK  Name = 
REMARK  6 active torsions:
REMARK  status: ('A' for Active; 'I' for Inactive)
REMARK    1  A    between atoms: O_3  and  C_16
REMARK    2  A    between atoms: O_4  and  C_17
REMARK    3  A    between atoms: O_4  and  C_22
REMARK    4  A    between atoms: O_5  and  C_19
REMARK    5  A    between atoms: O_5  and  C_23
REMARK    6  A    between atoms: O_6  and  C_21
REMARK                            x       y       z     vdW  Elec       q    Type
REMARK                         _______ _______ _______ _____ _____    ______ ____
ROOT
ATOM      1  O   UNL     1      -8.998  -8.645  27.496  0.00  0.00    +0.000 OA
ATOM      2  O   UNL     1     -12.510  -7.152  28.509  0.00  0.00    +0.000 OA
ATOM      3  C   UNL     1     -10.162  -7.381  29.196  0.00  0.00    +0.000 C 
ATOM      4  C   UNL     1     -10.065  -8.729  28.474  0.00  0.00    +0.000 C 
ATOM      5  C   UNL     1      -9.534  -6.503  28.169  0.00  0.00    +0.000 A 
ATOM      6  C   UNL     1     -11.590  -7.073  29.596  0.00  0.00    +0.000 C 
ATOM      7  C   UNL     1     -11.350  -9.156  27.797  0.00  0.00    +0.000 A 
ATOM      8  C   UNL     1      -8.861  -7.300  27.255  0.00  0.00    +0.000 A 
ATOM      9  C   UNL     1     -12.496  -8.344  27.833  0.00  0.00    +0.000 A 
ATOM     10  C   UNL     1      -9.494  -5.123  28.071  0.00  0.00    +0.000 A 
ATOM     11  C   UNL     1     -11.391 -10.386  27.115  0.00  0.00    +0.000 A 
ATOM     12  C   UNL     1      -8.129  -6.744  26.226  0.00  0.00    +0.000 A 
ATOM     13  C   UNL     1     -13.653  -8.741  27.149  0.00  0.00    +0.000 A 
ATOM     14  C   UNL     1      -8.765  -4.545  27.021  0.00  0.00    +0.000 A 
ATOM     15  C   UNL     1      -8.079  -5.350  26.096  0.00  0.00    +0.000 A 
ATOM     16  C   UNL     1     -12.557 -10.806  26.481  0.00  0.00    +0.000 A 
ATOM     17  C   UNL     1     -13.674  -9.986  26.510  0.00  0.00    +0.000 A 
ENDROOT
BRANCH  12  18
ATOM     18  O   UNL     1      -7.463  -7.544  25.339  0.00  0.00    +0.000 OA
ATOM     19  H   UNL     1      -7.160  -8.307  25.864  0.00  0.00    +0.000 HD
ENDBRANCH  12  18
BRANCH  13  20
ATOM     20  O   UNL     1     -14.836  -8.043  27.086  0.00  0.00    +0.000 OA
ATOM     21  C   UNL     1     -15.676  -8.203  28.228  0.00  0.00    +0.000 C 
ENDBRANCH  13  20
BRANCH  15  22
ATOM     22  O   UNL     1      -7.331  -4.897  25.037  0.00  0.00    +0.000 OA
ATOM     23  C   UNL     1      -7.373  -3.499  24.775  0.00  0.00    +0.000 C 
ENDBRANCH  15  22
BRANCH  17  24
ATOM     24  O   UNL     1     -14.811 -10.417  25.879  0.00  0.00    +0.000 OA
ATOM     25  H   UNL     1     -15.520  -9.840  26.222  0.00  0.00    +0.000 HD
ENDBRANCH  17  24
TORSDOF 4
ENDMDL
MODEL 3
REMARK VINA RESULT:      -5.3     11.899     13.504
REMARK  Name = 
REMARK  6 active torsions:
REMARK  status: ('A' for Active; 'I' for Inactive)
REMARK    1  A    between atoms: O_3  and  C_16
REMARK    2  A    between atoms: O_4  and  C_17
REMARK    3  A    between atoms: O_4  and  C_22
REMARK    4  A    between atoms: O_5  and  C_19
REMARK    5  A    between atoms: O_5  and  C_23
REMARK    6  A    between atoms: O_6  and  C_21
REMARK                            x       y       z     vdW  Elec       q    Type
REMARK                         _______ _______ _______ _____ _____    ______ ____
ROOT
ATOM      1  O   UNL     1      -7.919 -17.664   7.604  0.00  0.00    +0.000 OA
ATOM      2  O   UNL     1     -11.475 -19.117   8.515  0.00  0.00    +0.000 OA
ATOM      3  C   UNL     1      -9.867 -18.767   6.691  0.00  0.00    +0.000 C 
ATOM      4  C   UNL     1      -9.342 -17.500   7.376  0.00  0.00    +0.000 C 
ATOM      5  C   UNL     1      -8.818 -19.734   7.119  0.00  0.00    +0.000 A 
ATOM      6  C   UNL     1     -11.295 -19.061   7.101  0.00  0.00    +0.000 C 
ATOM      7  C   UNL     1     -10.037 -17.175   8.680  0.00  0.00    +0.000 A 
ATOM      8  C   UNL     1      -7.726 -19.024   7.596  0.00  0.00    +0.000 A 
ATOM      9  C   UNL     1     -11.051 -18.003   9.190  0.00  0.00    +0.000 A 
ATOM     10  C   UNL     1      -8.785 -21.116   7.040  0.00  0.00    +0.000 A 
ATOM     11  C   UNL     1      -9.654 -16.025   9.395  0.00  0.00    +0.000 A 
ATOM     12  C   UNL     1      -6.576 -19.670   8.001  0.00  0.00    +0.000 A 
ATOM     13  C   UNL     1     -11.636 -17.706  10.429  0.00  0.00    +0.000 A 
ATOM     14  C   UNL     1      -7.628 -21.786   7.462  0.00  0.00    +0.000 A 
ATOM     15  C   UNL     1      -6.519 -21.069   7.942  0.00  0.00    +0.000 A 
ATOM     16  C   UNL     1     -10.273 -15.699  10.598  0.00  0.00    +0.000 A 
ATOM     17  C   UNL     1     -11.259 -16.536  11.098  0.00  0.00    +0.000 A 
ENDROOT
BRANCH  12  18
ATOM     18  O   UNL     1      -5.506 -18.954   8.460  0.00  0.00    +0.000 OA
ATOM     19  H   UNL     1      -4.945 -19.605   8.921  0.00  0.00    +0.000 HD
ENDBRANCH  12  18
BRANCH  13  20
ATOM     20  O   UNL     1     -12.623 -18.432  11.053  0.00  0.00    +0.000 OA
ATOM     21  C   UNL     1     -12.156 -19.584  11.752  0.00  0.00    +0.000 C 
ENDBRANCH  13  20
BRANCH  15  22
ATOM     22  O   UNL     1      -5.335 -21.614   8.374  0.00  0.00    +0.000 OA
ATOM     23  C   UNL     1      -5.412 -22.879   9.023  0.00  0.00    +0.000 C 
ENDBRANCH  15  22
BRANCH  17  24
ATOM     24  O   UNL     1     -11.855 -16.198  12.284  0.00  0.00    +0.000 OA
ATOM     25  H   UNL     1     -12.789 -16.461  12.178  0.00  0.00    +0.000 HD
ENDBRANCH  17  24
TORSDOF 4
ENDMDL
MODEL 4
REMARK VINA RESULT:      -5.0      9.687     12.335
REMARK  Name = 
REMARK  6 active torsions:
REMARK  status: ('A' for Active; 'I' for Inactive)
REMARK    1  A    between atoms: O_3  and  C_16
REMARK    2  A    between atoms: O_4  and  C_17
REMARK    3  A    between atoms: O_4  and  C_22
REMARK    4  A    between atoms: O_5  and  C_19
REMARK    5  A    between atoms: O_5  and  C_23
REMARK    6  A    between atoms: O_6  and  C_21
REMARK                            x       y       z     vdW  Elec       q    Type
REMARK                         _______ _______ _______ _____ _____    ______ ____
ROOT
ATOM      1  O   UNL     1       2.372 -14.616  13.986  0.00  0.00    +0.000 OA
ATOM      2  O   UNL     1       6.104 -13.505  13.331  0.00  0.00    +0.000 OA
ATOM      3  C   UNL     1       4.644 -14.849  14.779  0.00  0.00    +0.000 C 
ATOM      4  C   UNL     1       3.486 -13.873  14.545  0.00  0.00    +0.000 C 
ATOM      5  C   UNL     1       4.272 -15.915  13.808  0.00  0.00    +0.000 A 
ATOM      6  C   UNL     1       5.983 -14.168  14.589  0.00  0.00    +0.000 C 
ATOM      7  C   UNL     1       3.835 -12.713  13.639  0.00  0.00    +0.000 A 
ATOM      8  C   UNL     1       2.950 -15.731  13.430  0.00  0.00    +0.000 A 
ATOM      9  C   UNL     1       5.113 -12.596  13.067  0.00  0.00    +0.000 A 
ATOM     10  C   UNL     1       4.999 -16.996  13.339  0.00  0.00    +0.000 A 
ATOM     11  C   UNL     1       2.858 -11.739  13.361  0.00  0.00    +0.000 A 
ATOM     12  C   UNL     1       2.320 -16.618  12.581  0.00  0.00    +0.000 A 
ATOM     13  C   UNL     1       5.389 -11.540  12.187  0.00  0.00    +0.000 A 
ATOM     14  C   UNL     1       4.375 -17.897  12.464  0.00  0.00    +0.000 A 
ATOM     15  C   UNL     1       3.035 -17.715  12.083  0.00  0.00    +0.000 A 
ATOM     16  C   UNL     1       3.149 -10.660  12.530  0.00  0.00    +0.000 A 
ATOM     17  C   UNL     1       4.408 -10.568  11.958  0.00  0.00    +0.000 A 
ENDROOT
BRANCH  12  18
ATOM     18  O   UNL     1       1.014 -16.427  12.226  0.00  0.00    +0.000 OA
ATOM     19  H   UNL     1       0.946 -15.478  12.009  0.00  0.00    +0.000 HD
ENDBRANCH  12  18
BRANCH  13  20
ATOM     20  O   UNL     1       6.584 -11.311  11.546  0.00  0.00    +0.000 OA
ATOM     21  C   UNL     1       7.572 -10.672  12.353  0.00  0.00    +0.000 C 
ENDBRANCH  13  20
BRANCH  15  22
ATOM     22  O   UNL     1       2.321 -18.533  11.242  0.00  0.00    +0.000 OA
ATOM     23  C   UNL     1       2.965 -19.726  10.811  0.00  0.00    +0.000 C 
ENDBRANCH  15  22
BRANCH  17  24
ATOM     24  O   UNL     1       4.673  -9.500  11.144  0.00  0.00    +0.000 OA
ATOM     25  H   UNL     1       4.092  -8.787  11.470  0.00  0.00    +0.000 HD
ENDBRANCH  17  24
TORSDOF 4
ENDMDL
MODEL 5
REMARK VINA RESULT:      -5.0     17.846     20.921
REMARK  Name = 
REMARK  6 active torsions:
REMARK  status: ('A' for Active; 'I' for Inactive)
REMARK    1  A    between atoms: O_3  and  C_16
REMARK    2  A    between atoms: O_4  and  C_17
REMARK    3  A    between atoms: O_4  and  C_22
REMARK    4  A    between atoms: O_5  and  C_19
REMARK    5  A    between atoms: O_5  and  C_23
REMARK    6  A    between atoms: O_6  and  C_21
REMARK                            x       y       z     vdW  Elec       q    Type
REMARK                         _______ _______ _______ _____ _____    ______ ____
ROOT
ATOM      1  O   UNL     1     -19.235  -4.054  19.381  0.00  0.00    +0.000 OA
ATOM      2  O   UNL     1     -21.959  -6.046  17.332  0.00  0.00    +0.000 OA
ATOM      3  C   UNL     1     -21.386  -5.146  19.545  0.00  0.00    +0.000 C 
ATOM      4  C   UNL     1     -19.893  -5.340  19.255  0.00  0.00    +0.000 C 
ATOM      5  C   UNL     1     -21.511  -3.692  19.243  0.00  0.00    +0.000 A 
ATOM      6  C   UNL     1     -22.232  -6.102  18.731  0.00  0.00    +0.000 C 
ATOM      7  C   UNL     1     -19.605  -5.932  17.893  0.00  0.00    +0.000 A 
ATOM      8  C   UNL     1     -20.241  -3.136  19.201  0.00  0.00    +0.000 A 
ATOM      9  C   UNL     1     -20.644  -6.238  16.998  0.00  0.00    +0.000 A 
ATOM     10  C   UNL     1     -22.636  -2.902  19.083  0.00  0.00    +0.000 A 
ATOM     11  C   UNL     1     -18.271  -6.174  17.516  0.00  0.00    +0.000 A 
ATOM     12  C   UNL     1     -20.060  -1.782  19.003  0.00  0.00    +0.000 A 
ATOM     13  C   UNL     1     -20.342  -6.733  15.722  0.00  0.00    +0.000 A 
ATOM     14  C   UNL     1     -22.467  -1.527  18.867  0.00  0.00    +0.000 A 
ATOM     15  C   UNL     1     -21.181  -0.960  18.828  0.00  0.00    +0.000 A 
ATOM     16  C   UNL     1     -17.973  -6.717  16.270  0.00  0.00    +0.000 A 
ATOM     17  C   UNL     1     -19.008  -6.996  15.390  0.00  0.00    +0.000 A 
ENDROOT
BRANCH  12  18
ATOM     18  O   UNL     1     -18.802  -1.249  18.974  0.00  0.00    +0.000 OA
ATOM     19  H   UNL     1     -18.517  -1.324  18.044  0.00  0.00    +0.000 HD
ENDBRANCH  12  18
BRANCH  13  20
ATOM     20  O   UNL     1     -21.251  -7.060  14.743  0.00  0.00    +0.000 OA
ATOM     21  C   UNL     1     -21.839  -8.351  14.893  0.00  0.00    +0.000 C 
ENDBRANCH  13  20
BRANCH  15  22
ATOM     22  O   UNL     1     -20.895   0.369  18.632  0.00  0.00    +0.000 OA
ATOM     23  C   UNL     1     -21.986   1.214  18.285  0.00  0.00    +0.000 C 
ENDBRANCH  15  22
BRANCH  17  24
ATOM     24  O   UNL     1     -18.694  -7.529  14.169  0.00  0.00    +0.000 OA
ATOM     25  H   UNL     1     -17.909  -7.029  13.872  0.00  0.00    +0.000 HD
ENDBRANCH  17  24
TORSDOF 4
ENDMDL
MODEL 6
REMARK VINA RESULT:      -4.9      2.984      4.735
REMARK  Name = 
REMARK  6 active torsions:
REMARK  status: ('A' for Active; 'I' for Inactive)
REMARK    1  A    between atoms: O_3  and  C_16
REMARK    2  A    between atoms: O_4  and  C_17
REMARK    3  A    between atoms: O_4  and  C_22
REMARK    4  A    between atoms: O_5  and  C_19
REMARK    5  A    between atoms: O_5  and  C_23
REMARK    6  A    between atoms: O_6  and  C_21
REMARK                            x       y       z     vdW  Elec       q    Type
REMARK                         _______ _______ _______ _____ _____    ______ ____
ROOT
ATOM      1  O   UNL     1      -8.309 -17.352  18.935  0.00  0.00    +0.000 OA
ATOM      2  O   UNL     1      -6.913 -18.720  22.366  0.00  0.00    +0.000 OA
ATOM      3  C   UNL     1      -7.441 -19.318  20.042  0.00  0.00    +0.000 C 
ATOM      4  C   UNL     1      -8.571 -18.284  20.015  0.00  0.00    +0.000 C 
ATOM      5  C   UNL     1      -6.374 -18.539  19.354  0.00  0.00    +0.000 A 
ATOM      6  C   UNL     1      -7.161 -19.789  21.454  0.00  0.00    +0.000 C 
ATOM      7  C   UNL     1      -8.741 -17.527  21.315  0.00  0.00    +0.000 A 
ATOM      8  C   UNL     1      -6.956 -17.453  18.718  0.00  0.00    +0.000 A 
ATOM      9  C   UNL     1      -7.898 -17.769  22.413  0.00  0.00    +0.000 A 
ATOM     10  C   UNL     1      -5.017 -18.788  19.234  0.00  0.00    +0.000 A 
ATOM     11  C   UNL     1      -9.758 -16.560  21.420  0.00  0.00    +0.000 A 
ATOM     12  C   UNL     1      -6.205 -16.591  17.945  0.00  0.00    +0.000 A 
ATOM     13  C   UNL     1      -8.045 -17.012  23.584  0.00  0.00    +0.000 A 
ATOM     14  C   UNL     1      -4.240 -17.912  18.463  0.00  0.00    +0.000 A 
ATOM     15  C   UNL     1      -4.828 -16.812  17.815  0.00  0.00    +0.000 A 
ATOM     16  C   UNL     1      -9.939 -15.847  22.602  0.00  0.00    +0.000 A 
ATOM     17  C   UNL     1      -9.088 -16.084  23.670  0.00  0.00    +0.000 A 
ENDROOT
BRANCH  12  18
ATOM     18  O   UNL     1      -6.796 -15.530  17.318  0.00  0.00    +0.000 OA
ATOM     19  H   UNL     1      -7.726 -15.796  17.191  0.00  0.00    +0.000 HD
ENDBRANCH  12  18
BRANCH  13  20
ATOM     20  O   UNL     1      -7.286 -17.131  24.725  0.00  0.00    +0.000 OA
ATOM     21  C   UNL     1      -6.058 -16.406  24.694  0.00  0.00    +0.000 C 
ENDBRANCH  13  20
BRANCH  15  22
ATOM     22  O   UNL     1      -4.170 -15.896  17.031  0.00  0.00    +0.000 OA
ATOM     23  C   UNL     1      -3.305 -14.986  17.700  0.00  0.00    +0.000 C 
ENDBRANCH  15  22
BRANCH  17  24
ATOM     24  O   UNL     1      -9.283 -15.371  24.823  0.00  0.00    +0.000 OA
ATOM     25  H   UNL     1      -8.872 -14.502  24.652  0.00  0.00    +0.000 HD
ENDBRANCH  17  24
TORSDOF 4
ENDMDL
MODEL 7
REMARK VINA RESULT:      -4.8      1.756      6.543
REMARK  Name = 
REMARK  6 active torsions:
REMARK  status: ('A' for Active; 'I' for Inactive)
REMARK    1  A    between atoms: O_3  and  C_16
REMARK    2  A    between atoms: O_4  and  C_17
REMARK    3  A    between atoms: O_4  and  C_22
REMARK    4  A    between atoms: O_5  and  C_19
REMARK    5  A    between atoms: O_5  and  C_23
REMARK    6  A    between atoms: O_6  and  C_21
REMARK                            x       y       z     vdW  Elec       q    Type
REMARK                         _______ _______ _______ _____ _____    ______ ____
ROOT
ATOM      1  O   UNL     1      -4.166 -18.545  18.599  0.00  0.00    +0.000 OA
ATOM      2  O   UNL     1      -3.173 -14.753  18.132  0.00  0.00    +0.000 OA
ATOM      3  C   UNL     1      -4.364 -16.647  17.116  0.00  0.00    +0.000 C 
ATOM      4  C   UNL     1      -3.395 -17.632  17.778  0.00  0.00    +0.000 C 
ATOM      5  C   UNL     1      -5.505 -16.741  18.069  0.00  0.00    +0.000 A 
ATOM      6  C   UNL     1      -3.722 -15.288  16.928  0.00  0.00    +0.000 C 
ATOM      7  C   UNL     1      -2.323 -16.969  18.616  0.00  0.00    +0.000 A 
ATOM      8  C   UNL     1      -5.334 -17.870  18.856  0.00  0.00    +0.000 A 
ATOM      9  C   UNL     1      -2.276 -15.572  18.764  0.00  0.00    +0.000 A 
ATOM     10  C   UNL     1      -6.633 -15.949  18.199  0.00  0.00    +0.000 A 
ATOM     11  C   UNL     1      -1.363 -17.769  19.263  0.00  0.00    +0.000 A 
ATOM     12  C   UNL     1      -6.282 -18.241  19.788  0.00  0.00    +0.000 A 
ATOM     13  C   UNL     1      -1.306 -14.992  19.593  0.00  0.00    +0.000 A 
ATOM     14  C   UNL     1      -7.598 -16.307  19.152  0.00  0.00    +0.000 A 
ATOM     15  C   UNL     1      -7.429 -17.452  19.949  0.00  0.00    +0.000 A 
ATOM     16  C   UNL     1      -0.365 -17.189  20.041  0.00  0.00    +0.000 A 
ATOM     17  C   UNL     1      -0.343 -15.811  20.193  0.00  0.00    +0.000 A 
ENDROOT
BRANCH  12  18
ATOM     18  O   UNL     1      -6.103 -19.361  20.550  0.00  0.00    +0.000 OA
ATOM     19  H   UNL     1      -6.559 -20.073  20.064  0.00  0.00    +0.000 HD
ENDBRANCH  12  18
BRANCH  13  20
ATOM     20  O   UNL     1      -1.152 -13.648  19.841  0.00  0.00    +0.000 OA
ATOM     21  C   UNL     1      -0.389 -12.951  18.857  0.00  0.00    +0.000 C 
ENDBRANCH  13  20
BRANCH  15  22
ATOM     22  O   UNL     1      -8.307 -17.902  20.905  0.00  0.00    +0.000 OA
ATOM     23  C   UNL     1      -9.390 -17.040  21.235  0.00  0.00    +0.000 C 
ENDBRANCH  15  22
BRANCH  17  24
ATOM     24  O   UNL     1       0.646 -15.260  20.964  0.00  0.00    +0.000 OA
ATOM     25  H   UNL     1       1.346 -15.940  20.995  0.00  0.00    +0.000 HD
ENDBRANCH  17  24
TORSDOF 4
ENDMDL
MODEL 8
REMARK VINA RESULT:      -4.8     25.914     28.475
REMARK  Name = 
REMARK  6 active torsions:
REMARK  status: ('A' for Active; 'I' for Inactive)
REMARK    1  A    between atoms: O_3  and  C_16
REMARK    2  A    between atoms: O_4  and  C_17
REMARK    3  A    between atoms: O_4  and  C_22
REMARK    4  A    between atoms: O_5  and  C_19
REMARK    5  A    between atoms: O_5  and  C_23
REMARK    6  A    between atoms: O_6  and  C_21
REMARK                            x       y       z     vdW  Elec       q    Type
REMARK                         _______ _______ _______ _____ _____    ______ ____
ROOT
ATOM      1  O   UNL     1      -5.072  10.124   7.501  0.00  0.00    +0.000 OA
ATOM      2  O   UNL     1      -6.765   8.189   4.505  0.00  0.00    +0.000 OA
ATOM      3  C   UNL     1      -6.318  10.413   5.450  0.00  0.00    +0.000 C 
ATOM      4  C   UNL     1      -6.344   9.833   6.868  0.00  0.00    +0.000 C 
ATOM      5  C   UNL     1      -4.846  10.466   5.230  0.00  0.00    +0.000 A 
ATOM      6  C   UNL     1      -7.136   9.567   4.496  0.00  0.00    +0.000 C 
ATOM      7  C   UNL     1      -6.613   8.345   6.918  0.00  0.00    +0.000 A 
ATOM      8  C   UNL     1      -4.208  10.328   6.454  0.00  0.00    +0.000 A 
ATOM      9  C   UNL     1      -6.792   7.599   5.741  0.00  0.00    +0.000 A 
ATOM     10  C   UNL     1      -4.118  10.682   4.072  0.00  0.00    +0.000 A 
ATOM     11  C   UNL     1      -6.678   7.699   8.166  0.00  0.00    +0.000 A 
ATOM     12  C   UNL     1      -2.834  10.406   6.556  0.00  0.00    +0.000 A 
ATOM     13  C   UNL     1      -6.983   6.212   5.817  0.00  0.00    +0.000 A 
ATOM     14  C   UNL     1      -2.720  10.749   4.159  0.00  0.00    +0.000 A 
ATOM     15  C   UNL     1      -2.072  10.614   5.398  0.00  0.00    +0.000 A 
ATOM     16  C   UNL     1      -6.922   6.331   8.245  0.00  0.00    +0.000 A 
ATOM     17  C   UNL     1      -7.078   5.604   7.075  0.00  0.00    +0.000 A 
ENDROOT
BRANCH  12  18
ATOM     18  O   UNL     1      -2.221  10.277   7.771  0.00  0.00    +0.000 OA
ATOM     19  H   UNL     1      -1.344   9.899   7.574  0.00  0.00    +0.000 HD
ENDBRANCH  12  18
BRANCH  13  20
ATOM     20  O   UNL     1      -7.157   5.358   4.753  0.00  0.00    +0.000 OA
ATOM     21  C   UNL     1      -8.486   5.323   4.236  0.00  0.00    +0.000 C 
ENDBRANCH  13  20
BRANCH  15  22
ATOM     22  O   UNL     1      -0.715  10.669   5.605  0.00  0.00    +0.000 OA
ATOM     23  C   UNL     1       0.055   9.589   5.090  0.00  0.00    +0.000 C 
ENDBRANCH  15  22
BRANCH  17  24
ATOM     24  O   UNL     1      -7.318   4.259   7.174  0.00  0.00    +0.000 OA
ATOM     25  H   UNL     1      -8.146   4.190   7.686  0.00  0.00    +0.000 HD
ENDBRANCH  17  24
TORSDOF 4
ENDMDL
MODEL 9
REMARK VINA RESULT:      -4.7     15.291     16.723
REMARK  Name = 
REMARK  6 active torsions:
REMARK  status: ('A' for Active; 'I' for Inactive)
REMARK    1  A    between atoms: O_3  and  C_16
REMARK    2  A    between atoms: O_4  and  C_17
REMARK    3  A    between atoms: O_4  and  C_22
REMARK    4  A    between atoms: O_5  and  C_19
REMARK    5  A    between atoms: O_5  and  C_23
REMARK    6  A    between atoms: O_6  and  C_21
REMARK                            x       y       z     vdW  Elec       q    Type
REMARK                         _______ _______ _______ _____ _____    ______ ____
ROOT
ATOM      1  O   UNL     1       0.425 -20.144   2.563  0.00  0.00    +0.000 OA
ATOM      2  O   UNL     1      -0.160 -22.007   5.994  0.00  0.00    +0.000 OA
ATOM      3  C   UNL     1       0.892 -22.179   3.781  0.00  0.00    +0.000 C 
ATOM      4  C   UNL     1      -0.205 -21.300   3.173  0.00  0.00    +0.000 C 
ATOM      5  C   UNL     1       1.963 -21.158   3.954  0.00  0.00    +0.000 A 
ATOM      6  C   UNL     1       0.400 -22.891   5.024  0.00  0.00    +0.000 C 
ATOM      7  C   UNL     1      -1.251 -20.847   4.169  0.00  0.00    +0.000 A 
ATOM      8  C   UNL     1       1.637 -20.041   3.199  0.00  0.00    +0.000 A 
ATOM      9  C   UNL     1      -1.168 -21.207   5.525  0.00  0.00    +0.000 A 
ATOM     10  C   UNL     1       3.155 -21.217   4.655  0.00  0.00    +0.000 A 
ATOM     11  C   UNL     1      -2.321 -20.047   3.727  0.00  0.00    +0.000 A 
ATOM     12  C   UNL     1       2.490 -18.959   3.121  0.00  0.00    +0.000 A 
ATOM     13  C   UNL     1      -2.121 -20.726   6.433  0.00  0.00    +0.000 A 
ATOM     14  C   UNL     1       4.025 -20.119   4.596  0.00  0.00    +0.000 A 
ATOM     15  C   UNL     1       3.699 -18.987   3.830  0.00  0.00    +0.000 A 
ATOM     16  C   UNL     1      -3.298 -19.615   4.619  0.00  0.00    +0.000 A 
ATOM     17  C   UNL     1      -3.193 -19.962   5.957  0.00  0.00    +0.000 A 
ENDROOT
BRANCH  12  18
ATOM     18  O   UNL     1       2.159 -17.869   2.366  0.00  0.00    +0.000 OA
ATOM     19  H   UNL     1       2.307 -17.102   2.949  0.00  0.00    +0.000 HD
ENDBRANCH  12  18
BRANCH  13  20
ATOM     20  O   UNL     1      -2.155 -20.984   7.783  0.00  0.00    +0.000 OA
ATOM     21  C   UNL     1      -2.723 -22.246   8.129  0.00  0.00    +0.000 C 
ENDBRANCH  13  20
BRANCH  15  22
ATOM     22  O   UNL     1       4.473 -17.861   3.692  0.00  0.00    +0.000 OA
ATOM     23  C   UNL     1       5.644 -17.983   2.893  0.00  0.00    +0.000 C 
ENDBRANCH  15  22
BRANCH  17  24
ATOM     24  O   UNL     1      -4.164 -19.525   6.818  0.00  0.00    +0.000 OA
ATOM     25  H   UNL     1      -3.832 -19.757   7.706  0.00  0.00    +0.000 HD
ENDBRANCH  17  24
TORSDOF 4
ENDMDL
