MODEL 1
REMARK VINA RESULT:      -6.7      0.000      0.000
REMARK  Name = 
REMARK  9 active torsions:
REMARK  status: ('A' for Active; 'I' for Inactive)
REMARK    1  A    between atoms: O_1  and  N_7
REMARK    2  A    between atoms: O_1  and  C_20
REMARK    3  A    between atoms: O_2  and  C_14
REMARK    4  A    between atoms: O_3  and  C_18
REMARK    5  A    between atoms: O_4  and  C_25
REMARK    6  A    between atoms: C_8  and  C_10
REMARK    7  A    between atoms: C_17  and  C_18
REMARK    8  A    between atoms: C_17  and  C_20
REMARK    9  A    between atoms: C_18  and  C_25
REMARK                            x       y       z     vdW  Elec       q    Type
REMARK                         _______ _______ _______ _____ _____    ______ ____
ROOT
ATOM      1  N   UNL     1     -14.451  -7.995   2.403  0.00  0.00    +0.000 NA
ATOM      2  N   UNL     1     -11.692  -9.670   3.873  0.00  0.00    +0.000 NA
ATOM      3  C   UNL     1     -13.785  -8.413   3.450  0.00  0.00    +0.000 C 
ATOM      4  C   UNL     1     -12.474  -9.058   3.041  0.00  0.00    +0.000 C 
ATOM      5  C   UNL     1     -12.425  -8.880   1.596  0.00  0.00    +0.000 A 
ATOM      6  C   UNL     1     -13.636  -8.261   1.290  0.00  0.00    +0.000 A 
ATOM      7  C   UNL     1     -11.494  -9.209   0.627  0.00  0.00    +0.000 A 
ATOM      8  C   UNL     1     -13.946  -7.951  -0.023  0.00  0.00    +0.000 A 
ATOM      9  C   UNL     1     -11.804  -8.897  -0.699  0.00  0.00    +0.000 A 
ATOM     10  C   UNL     1     -13.022  -8.274  -1.022  0.00  0.00    +0.000 A 
ENDROOT
BRANCH   3  12
ATOM     11  N   UNL     1     -15.167  -8.717   6.789  0.00  0.00    +0.000 N 
ATOM     12  C   UNL     1     -14.326  -8.251   4.779  0.00  0.00    +0.000 A 
ATOM     13  C   UNL     1     -14.550  -7.023   5.487  0.00  0.00    +0.000 A 
ATOM     14  C   UNL     1     -15.087  -7.347   6.733  0.00  0.00    +0.000 A 
ATOM     15  C   UNL     1     -14.693  -9.278   5.632  0.00  0.00    +0.000 A 
ATOM     16  C   UNL     1     -14.360  -5.658   5.180  0.00  0.00    +0.000 A 
ATOM     17  C   UNL     1     -15.441  -6.383   7.685  0.00  0.00    +0.000 A 
ATOM     18  C   UNL     1     -14.707  -4.680   6.118  0.00  0.00    +0.000 A 
ATOM     19  C   UNL     1     -15.240  -5.040   7.353  0.00  0.00    +0.000 A 
ATOM     20  H   UNL     1     -15.504  -9.227   7.592  0.00  0.00    +0.000 HD
BRANCH  15  21
ATOM     21  O   UNL     1     -14.609 -10.595   5.477  0.00  0.00    +0.000 OA
ATOM     22  H   UNL     1     -15.246 -10.901   4.812  0.00  0.00    +0.000 HD
ENDBRANCH  15  21
ENDBRANCH   3  12
BRANCH   2  23
ATOM     23  O   UNL     1     -10.573 -10.219   3.243  0.00  0.00    +0.000 OA
BRANCH  23  24
ATOM     24  C   UNL     1     -10.675 -11.639   3.303  0.00  0.00    +0.000 C 
BRANCH  24  25
ATOM     25  C   UNL     1      -9.571 -12.261   2.461  0.00  0.00    +0.000 C 
BRANCH  25  26
ATOM     26  C   UNL     1      -8.377 -12.767   3.270  0.00  0.00    +0.000 C 
BRANCH  26  27
ATOM     27  O   UNL     1      -7.333 -11.786   3.173  0.00  0.00    +0.000 OA
ATOM     28  H   UNL     1      -6.973 -11.723   4.081  0.00  0.00    +0.000 HD
ENDBRANCH  26  27
BRANCH  26  29
ATOM     29  C   UNL     1      -8.681 -12.997   4.754  0.00  0.00    +0.000 C 
BRANCH  29  30
ATOM     30  O   UNL     1      -7.918 -12.056   5.517  0.00  0.00    +0.000 OA
ATOM     31  H   UNL     1      -8.203 -11.170   5.228  0.00  0.00    +0.000 HD
ENDBRANCH  29  30
ENDBRANCH  26  29
ENDBRANCH  25  26
ENDBRANCH  24  25
ENDBRANCH  23  24
ENDBRANCH   2  23
TORSDOF 9
ENDMDL
MODEL 2
REMARK VINA RESULT:      -6.5     18.627     20.972
REMARK  Name = 
REMARK  9 active torsions:
REMARK  status: ('A' for Active; 'I' for Inactive)
REMARK    1  A    between atoms: O_1  and  N_7
REMARK    2  A    between atoms: O_1  and  C_20
REMARK    3  A    between atoms: O_2  and  C_14
REMARK    4  A    between atoms: O_3  and  C_18
REMARK    5  A    between atoms: O_4  and  C_25
REMARK    6  A    between atoms: C_8  and  C_10
REMARK    7  A    between atoms: C_17  and  C_18
REMARK    8  A    between atoms: C_17  and  C_20
REMARK    9  A    between atoms: C_18  and  C_25
REMARK                            x       y       z     vdW  Elec       q    Type
REMARK                         _______ _______ _______ _____ _____    ______ ____
ROOT
ATOM      1  N   UNL     1       8.618  -8.054   9.896  0.00  0.00    +0.000 NA
ATOM      2  N   UNL     1       5.467  -9.329  10.910  0.00  0.00    +0.000 NA
ATOM      3  C   UNL     1       7.322  -7.935  10.040  0.00  0.00    +0.000 C 
ATOM      4  C   UNL     1       6.739  -9.138  10.759  0.00  0.00    +0.000 C 
ATOM      5  C   UNL     1       7.902  -9.948  11.097  0.00  0.00    +0.000 A 
ATOM      6  C   UNL     1       8.974  -9.253  10.538  0.00  0.00    +0.000 A 
ATOM      7  C   UNL     1       8.065 -11.143  11.775  0.00  0.00    +0.000 A 
ATOM      8  C   UNL     1      10.260  -9.751  10.649  0.00  0.00    +0.000 A 
ATOM      9  C   UNL     1       9.363 -11.648  11.889  0.00  0.00    +0.000 A 
ATOM     10  C   UNL     1      10.452 -10.958  11.330  0.00  0.00    +0.000 A 
ENDROOT
BRANCH   3  12
ATOM     11  N   UNL     1       5.279  -5.493   8.303  0.00  0.00    +0.000 N 
ATOM     12  C   UNL     1       6.627  -6.778   9.526  0.00  0.00    +0.000 A 
ATOM     13  C   UNL     1       6.725  -5.423   9.991  0.00  0.00    +0.000 A 
ATOM     14  C   UNL     1       5.881  -4.644   9.199  0.00  0.00    +0.000 A 
ATOM     15  C   UNL     1       5.699  -6.783   8.500  0.00  0.00    +0.000 A 
ATOM     16  C   UNL     1       7.466  -4.780  11.006  0.00  0.00    +0.000 A 
ATOM     17  C   UNL     1       5.738  -3.262   9.369  0.00  0.00    +0.000 A 
ATOM     18  C   UNL     1       7.335  -3.399  11.192  0.00  0.00    +0.000 A 
ATOM     19  C   UNL     1       6.483  -2.653  10.383  0.00  0.00    +0.000 A 
ATOM     20  H   UNL     1       4.600  -5.196   7.619  0.00  0.00    +0.000 HD
BRANCH  15  21
ATOM     21  O   UNL     1       5.204  -7.794   7.794  0.00  0.00    +0.000 OA
ATOM     22  H   UNL     1       4.793  -7.470   6.976  0.00  0.00    +0.000 HD
ENDBRANCH  15  21
ENDBRANCH   3  12
BRANCH   2  23
ATOM     23  O   UNL     1       5.186 -10.532  11.563  0.00  0.00    +0.000 OA
BRANCH  23  24
ATOM     24  C   UNL     1       4.098 -10.314  12.457  0.00  0.00    +0.000 C 
BRANCH  24  25
ATOM     25  C   UNL     1       3.109 -11.464  12.338  0.00  0.00    +0.000 C 
BRANCH  25  26
ATOM     26  C   UNL     1       3.627 -12.794  12.886  0.00  0.00    +0.000 C 
BRANCH  26  27
ATOM     27  O   UNL     1       2.578 -13.388  13.666  0.00  0.00    +0.000 OA
ATOM     28  H   UNL     1       2.122 -13.989  13.043  0.00  0.00    +0.000 HD
ENDBRANCH  26  27
BRANCH  26  29
ATOM     29  C   UNL     1       4.044 -13.795  11.804  0.00  0.00    +0.000 C 
BRANCH  29  30
ATOM     30  O   UNL     1       5.369 -13.462  11.375  0.00  0.00    +0.000 OA
ATOM     31  H   UNL     1       5.324 -13.330  10.411  0.00  0.00    +0.000 HD
ENDBRANCH  29  30
ENDBRANCH  26  29
ENDBRANCH  25  26
ENDBRANCH  24  25
ENDBRANCH  23  24
ENDBRANCH   2  23
TORSDOF 9
ENDMDL
MODEL 3
REMARK VINA RESULT:      -6.4     19.019     22.192
REMARK  Name = 
REMARK  9 active torsions:
REMARK  status: ('A' for Active; 'I' for Inactive)
REMARK    1  A    between atoms: O_1  and  N_7
REMARK    2  A    between atoms: O_1  and  C_20
REMARK    3  A    between atoms: O_2  and  C_14
REMARK    4  A    between atoms: O_3  and  C_18
REMARK    5  A    between atoms: O_4  and  C_25
REMARK    6  A    between atoms: C_8  and  C_10
REMARK    7  A    between atoms: C_17  and  C_18
REMARK    8  A    between atoms: C_17  and  C_20
REMARK    9  A    between atoms: C_18  and  C_25
REMARK                            x       y       z     vdW  Elec       q    Type
REMARK                         _______ _______ _______ _____ _____    ______ ____
ROOT
ATOM      1  N   UNL     1       9.066 -12.754  12.066  0.00  0.00    +0.000 NA
ATOM      2  N   UNL     1       7.982  -9.738  10.546  0.00  0.00    +0.000 NA
ATOM      3  C   UNL     1       8.125 -11.988  11.574  0.00  0.00    +0.000 C 
ATOM      4  C   UNL     1       8.708 -10.719  10.978  0.00  0.00    +0.000 C 
ATOM      5  C   UNL     1      10.148 -10.891  11.115  0.00  0.00    +0.000 A 
ATOM      6  C   UNL     1      10.282 -12.108  11.784  0.00  0.00    +0.000 A 
ATOM      7  C   UNL     1      11.238 -10.122  10.749  0.00  0.00    +0.000 A 
ATOM      8  C   UNL     1      11.539 -12.589  12.106  0.00  0.00    +0.000 A 
ATOM      9  C   UNL     1      12.508 -10.606  11.072  0.00  0.00    +0.000 A 
ATOM     10  C   UNL     1      12.658 -11.831  11.747  0.00  0.00    +0.000 A 
ENDROOT
BRANCH   3  12
ATOM     11  N   UNL     1       4.859 -13.560  11.437  0.00  0.00    +0.000 N 
ATOM     12  C   UNL     1       6.738 -12.381  11.656  0.00  0.00    +0.000 A 
ATOM     13  C   UNL     1       5.661 -11.661  12.274  0.00  0.00    +0.000 A 
ATOM     14  C   UNL     1       4.500 -12.417  12.109  0.00  0.00    +0.000 A 
ATOM     15  C   UNL     1       6.205 -13.565  11.176  0.00  0.00    +0.000 A 
ATOM     16  C   UNL     1       5.560 -10.425  12.948  0.00  0.00    +0.000 A 
ATOM     17  C   UNL     1       3.249 -12.005  12.583  0.00  0.00    +0.000 A 
ATOM     18  C   UNL     1       4.318  -9.996  13.429  0.00  0.00    +0.000 A 
ATOM     19  C   UNL     1       3.180 -10.777  13.248  0.00  0.00    +0.000 A 
ATOM     20  H   UNL     1       4.213 -14.298  11.202  0.00  0.00    +0.000 HD
BRANCH  15  21
ATOM     21  O   UNL     1       6.798 -14.601  10.592  0.00  0.00    +0.000 OA
ATOM     22  H   UNL     1       6.488 -14.700   9.677  0.00  0.00    +0.000 HD
ENDBRANCH  15  21
ENDBRANCH   3  12
BRANCH   2  23
ATOM     23  O   UNL     1       8.756  -8.667  10.091  0.00  0.00    +0.000 OA
BRANCH  23  24
ATOM     24  C   UNL     1       8.081  -7.455  10.416  0.00  0.00    +0.000 C 
BRANCH  24  25
ATOM     25  C   UNL     1       6.596  -7.735  10.593  0.00  0.00    +0.000 C 
BRANCH  25  26
ATOM     26  C   UNL     1       5.683  -6.652  10.019  0.00  0.00    +0.000 C 
BRANCH  26  27
ATOM     27  O   UNL     1       5.864  -5.462  10.801  0.00  0.00    +0.000 OA
ATOM     28  H   UNL     1       6.783  -5.184  10.612  0.00  0.00    +0.000 HD
ENDBRANCH  26  27
BRANCH  26  29
ATOM     29  C   UNL     1       5.968  -6.308   8.553  0.00  0.00    +0.000 C 
BRANCH  29  30
ATOM     30  O   UNL     1       5.570  -7.424   7.748  0.00  0.00    +0.000 OA
ATOM     31  H   UNL     1       4.679  -7.220   7.413  0.00  0.00    +0.000 HD
ENDBRANCH  29  30
ENDBRANCH  26  29
ENDBRANCH  25  26
ENDBRANCH  24  25
ENDBRANCH  23  24
ENDBRANCH   2  23
TORSDOF 9
ENDMDL
MODEL 4
REMARK VINA RESULT:      -6.2     14.720     16.339
REMARK  Name = 
REMARK  9 active torsions:
REMARK  status: ('A' for Active; 'I' for Inactive)
REMARK    1  A    between atoms: O_1  and  N_7
REMARK    2  A    between atoms: O_1  and  C_20
REMARK    3  A    between atoms: O_2  and  C_14
REMARK    4  A    between atoms: O_3  and  C_18
REMARK    5  A    between atoms: O_4  and  C_25
REMARK    6  A    between atoms: C_8  and  C_10
REMARK    7  A    between atoms: C_17  and  C_18
REMARK    8  A    between atoms: C_17  and  C_20
REMARK    9  A    between atoms: C_18  and  C_25
REMARK                            x       y       z     vdW  Elec       q    Type
REMARK                         _______ _______ _______ _____ _____    ______ ____
ROOT
ATOM      1  N   UNL     1     -11.982   6.193   3.801  0.00  0.00    +0.000 NA
ATOM      2  N   UNL     1      -9.757   5.689   6.517  0.00  0.00    +0.000 NA
ATOM      3  C   UNL     1     -11.651   6.342   5.059  0.00  0.00    +0.000 C 
ATOM      4  C   UNL     1     -10.266   5.785   5.330  0.00  0.00    +0.000 C 
ATOM      5  C   UNL     1      -9.790   5.361   4.020  0.00  0.00    +0.000 A 
ATOM      6  C   UNL     1     -10.866   5.617   3.170  0.00  0.00    +0.000 A 
ATOM      7  C   UNL     1      -8.606   4.805   3.571  0.00  0.00    +0.000 A 
ATOM      8  C   UNL     1     -10.775   5.313   1.823  0.00  0.00    +0.000 A 
ATOM      9  C   UNL     1      -8.512   4.498   2.211  0.00  0.00    +0.000 A 
ATOM     10  C   UNL     1      -9.589   4.749   1.343  0.00  0.00    +0.000 A 
ENDROOT
BRANCH   3  12
ATOM     11  N   UNL     1     -14.200   7.213   7.489  0.00  0.00    +0.000 N 
ATOM     12  C   UNL     1     -12.568   6.952   5.993  0.00  0.00    +0.000 A 
ATOM     13  C   UNL     1     -12.639   8.336   6.370  0.00  0.00    +0.000 A 
ATOM     14  C   UNL     1     -13.675   8.468   7.295  0.00  0.00    +0.000 A 
ATOM     15  C   UNL     1     -13.531   6.286   6.731  0.00  0.00    +0.000 A 
ATOM     16  C   UNL     1     -11.926   9.496   6.000  0.00  0.00    +0.000 A 
ATOM     17  C   UNL     1     -14.033   9.694   7.868  0.00  0.00    +0.000 A 
ATOM     18  C   UNL     1     -12.269  10.730   6.562  0.00  0.00    +0.000 A 
ATOM     19  C   UNL     1     -13.308  10.826   7.483  0.00  0.00    +0.000 A 
ATOM     20  H   UNL     1     -14.954   7.014   8.128  0.00  0.00    +0.000 HD
BRANCH  15  21
ATOM     21  O   UNL     1     -13.818   4.991   6.800  0.00  0.00    +0.000 OA
ATOM     22  H   UNL     1     -14.119   4.755   7.692  0.00  0.00    +0.000 HD
ENDBRANCH  15  21
ENDBRANCH   3  12
BRANCH   2  23
ATOM     23  O   UNL     1      -8.491   5.100   6.504  0.00  0.00    +0.000 OA
BRANCH  23  24
ATOM     24  C   UNL     1      -7.951   5.166   7.822  0.00  0.00    +0.000 C 
BRANCH  24  25
ATOM     25  C   UNL     1      -6.622   5.906   7.788  0.00  0.00    +0.000 C 
BRANCH  25  26
ATOM     26  C   UNL     1      -6.738   7.382   7.406  0.00  0.00    +0.000 C 
BRANCH  26  27
ATOM     27  O   UNL     1      -7.182   7.451   6.042  0.00  0.00    +0.000 OA
ATOM     28  H   UNL     1      -6.483   6.990   5.536  0.00  0.00    +0.000 HD
ENDBRANCH  26  27
BRANCH  26  29
ATOM     29  C   UNL     1      -7.724   8.175   8.271  0.00  0.00    +0.000 C 
BRANCH  29  30
ATOM     30  O   UNL     1      -8.873   8.478   7.472  0.00  0.00    +0.000 OA
ATOM     31  H   UNL     1      -9.050   7.688   6.930  0.00  0.00    +0.000 HD
ENDBRANCH  29  30
ENDBRANCH  26  29
ENDBRANCH  25  26
ENDBRANCH  24  25
ENDBRANCH  23  24
ENDBRANCH   2  23
TORSDOF 9
ENDMDL
MODEL 5
REMARK VINA RESULT:      -5.8     16.245     18.672
REMARK  Name = 
REMARK  9 active torsions:
REMARK  status: ('A' for Active; 'I' for Inactive)
REMARK    1  A    between atoms: O_1  and  N_7
REMARK    2  A    between atoms: O_1  and  C_20
REMARK    3  A    between atoms: O_2  and  C_14
REMARK    4  A    between atoms: O_3  and  C_18
REMARK    5  A    between atoms: O_4  and  C_25
REMARK    6  A    between atoms: C_8  and  C_10
REMARK    7  A    between atoms: C_17  and  C_18
REMARK    8  A    between atoms: C_17  and  C_20
REMARK    9  A    between atoms: C_18  and  C_25
REMARK                            x       y       z     vdW  Elec       q    Type
REMARK                         _______ _______ _______ _____ _____    ______ ____
ROOT
ATOM      1  N   UNL     1      -8.592   8.280   2.323  0.00  0.00    +0.000 NA
ATOM      2  N   UNL     1      -6.675   6.413   4.652  0.00  0.00    +0.000 NA
ATOM      3  C   UNL     1      -7.460   8.003   2.922  0.00  0.00    +0.000 C 
ATOM      4  C   UNL     1      -7.609   6.809   3.846  0.00  0.00    +0.000 C 
ATOM      5  C   UNL     1      -8.981   6.366   3.638  0.00  0.00    +0.000 A 
ATOM      6  C   UNL     1      -9.504   7.295   2.739  0.00  0.00    +0.000 A 
ATOM      7  C   UNL     1      -9.732   5.321   4.147  0.00  0.00    +0.000 A 
ATOM      8  C   UNL     1     -10.820   7.194   2.322  0.00  0.00    +0.000 A 
ATOM      9  C   UNL     1     -11.060   5.217   3.727  0.00  0.00    +0.000 A 
ATOM     10  C   UNL     1     -11.601   6.147   2.822  0.00  0.00    +0.000 A 
ENDROOT
BRANCH   3  12
ATOM     11  N   UNL     1      -4.523  10.129   3.016  0.00  0.00    +0.000 N 
ATOM     12  C   UNL     1      -6.285   8.806   2.679  0.00  0.00    +0.000 A 
ATOM     13  C   UNL     1      -5.625   9.033   1.425  0.00  0.00    +0.000 A 
ATOM     14  C   UNL     1      -4.538   9.872   1.666  0.00  0.00    +0.000 A 
ATOM     15  C   UNL     1      -5.553   9.478   3.643  0.00  0.00    +0.000 A 
ATOM     16  C   UNL     1      -5.860   8.613   0.097  0.00  0.00    +0.000 A 
ATOM     17  C   UNL     1      -3.674  10.311   0.655  0.00  0.00    +0.000 A 
ATOM     18  C   UNL     1      -5.008   9.041  -0.927  0.00  0.00    +0.000 A 
ATOM     19  C   UNL     1      -3.931   9.879  -0.650  0.00  0.00    +0.000 A 
ATOM     20  H   UNL     1      -3.825  10.697   3.470  0.00  0.00    +0.000 HD
BRANCH  15  21
ATOM     21  O   UNL     1      -5.706   9.522   4.962  0.00  0.00    +0.000 OA
ATOM     22  H   UNL     1      -5.525  10.415   5.297  0.00  0.00    +0.000 HD
ENDBRANCH  15  21
ENDBRANCH   3  12
BRANCH   2  23
ATOM     23  O   UNL     1      -7.075   5.324   5.430  0.00  0.00    +0.000 OA
BRANCH  23  24
ATOM     24  C   UNL     1      -6.424   5.413   6.695  0.00  0.00    +0.000 C 
BRANCH  24  25
ATOM     25  C   UNL     1      -7.289   6.218   7.653  0.00  0.00    +0.000 C 
BRANCH  25  26
ATOM     26  C   UNL     1      -6.751   7.616   7.958  0.00  0.00    +0.000 C 
BRANCH  26  27
ATOM     27  O   UNL     1      -7.294   8.519   6.982  0.00  0.00    +0.000 OA
ATOM     28  H   UNL     1      -6.834   8.284   6.151  0.00  0.00    +0.000 HD
ENDBRANCH  26  27
BRANCH  26  29
ATOM     29  C   UNL     1      -7.121   8.138   9.350  0.00  0.00    +0.000 C 
BRANCH  29  30
ATOM     30  O   UNL     1      -8.176   9.093   9.202  0.00  0.00    +0.000 OA
ATOM     31  H   UNL     1      -8.385   9.417  10.097  0.00  0.00    +0.000 HD
ENDBRANCH  29  30
ENDBRANCH  26  29
ENDBRANCH  25  26
ENDBRANCH  24  25
ENDBRANCH  23  24
ENDBRANCH   2  23
TORSDOF 9
ENDMDL
MODEL 6
REMARK VINA RESULT:      -5.6      2.339      6.942
REMARK  Name = 
REMARK  9 active torsions:
REMARK  status: ('A' for Active; 'I' for Inactive)
REMARK    1  A    between atoms: O_1  and  N_7
REMARK    2  A    between atoms: O_1  and  C_20
REMARK    3  A    between atoms: O_2  and  C_14
REMARK    4  A    between atoms: O_3  and  C_18
REMARK    5  A    between atoms: O_4  and  C_25
REMARK    6  A    between atoms: C_8  and  C_10
REMARK    7  A    between atoms: C_17  and  C_18
REMARK    8  A    between atoms: C_17  and  C_20
REMARK    9  A    between atoms: C_18  and  C_25
REMARK                            x       y       z     vdW  Elec       q    Type
REMARK                         _______ _______ _______ _____ _____    ______ ____
ROOT
ATOM      1  N   UNL     1     -11.765 -10.379   0.811  0.00  0.00    +0.000 NA
ATOM      2  N   UNL     1     -11.141  -9.020   4.027  0.00  0.00    +0.000 NA
ATOM      3  C   UNL     1     -11.162 -10.405   1.973  0.00  0.00    +0.000 C 
ATOM      4  C   UNL     1     -11.667  -9.295   2.876  0.00  0.00    +0.000 C 
ATOM      5  C   UNL     1     -12.726  -8.662   2.103  0.00  0.00    +0.000 A 
ATOM      6  C   UNL     1     -12.713  -9.345   0.887  0.00  0.00    +0.000 A 
ATOM      7  C   UNL     1     -13.600  -7.619   2.359  0.00  0.00    +0.000 A 
ATOM      8  C   UNL     1     -13.594  -8.989  -0.120  0.00  0.00    +0.000 A 
ATOM      9  C   UNL     1     -14.490  -7.260   1.345  0.00  0.00    +0.000 A 
ATOM     10  C   UNL     1     -14.487  -7.938   0.114  0.00  0.00    +0.000 A 
ENDROOT
BRANCH   3  12
ATOM     11  N   UNL     1      -9.115 -13.198   3.053  0.00  0.00    +0.000 N 
ATOM     12  C   UNL     1     -10.144 -11.391   2.251  0.00  0.00    +0.000 A 
ATOM     13  C   UNL     1      -8.794 -11.414   1.764  0.00  0.00    +0.000 A 
ATOM     14  C   UNL     1      -8.174 -12.547   2.292  0.00  0.00    +0.000 A 
ATOM     15  C   UNL     1     -10.311 -12.528   3.022  0.00  0.00    +0.000 A 
ATOM     16  C   UNL     1      -8.032 -10.567   0.930  0.00  0.00    +0.000 A 
ATOM     17  C   UNL     1      -6.839 -12.878   2.031  0.00  0.00    +0.000 A 
ATOM     18  C   UNL     1      -6.696 -10.881   0.658  0.00  0.00    +0.000 A 
ATOM     19  C   UNL     1      -6.110 -12.021   1.202  0.00  0.00    +0.000 A 
ATOM     20  H   UNL     1      -8.941 -14.065   3.539  0.00  0.00    +0.000 HD
BRANCH  15  21
ATOM     21  O   UNL     1     -11.392 -13.002   3.632  0.00  0.00    +0.000 OA
ATOM     22  H   UNL     1     -11.425 -13.970   3.564  0.00  0.00    +0.000 HD
ENDBRANCH  15  21
ENDBRANCH   3  12
BRANCH   2  23
ATOM     23  O   UNL     1     -11.755  -7.926   4.642  0.00  0.00    +0.000 OA
BRANCH  23  24
ATOM     24  C   UNL     1     -12.229  -8.337   5.921  0.00  0.00    +0.000 C 
BRANCH  24  25
ATOM     25  C   UNL     1     -13.749  -8.274   5.942  0.00  0.00    +0.000 C 
BRANCH  25  26
ATOM     26  C   UNL     1     -14.362  -8.415   7.335  0.00  0.00    +0.000 C 
BRANCH  26  27
ATOM     27  O   UNL     1     -13.288  -8.554   8.277  0.00  0.00    +0.000 OA
ATOM     28  H   UNL     1     -13.673  -9.073   9.011  0.00  0.00    +0.000 HD
ENDBRANCH  26  27
BRANCH  26  29
ATOM     29  C   UNL     1     -15.221  -7.220   7.763  0.00  0.00    +0.000 C 
BRANCH  29  30
ATOM     30  O   UNL     1     -14.355  -6.100   7.969  0.00  0.00    +0.000 OA
ATOM     31  H   UNL     1     -14.898  -5.401   8.376  0.00  0.00    +0.000 HD
ENDBRANCH  29  30
ENDBRANCH  26  29
ENDBRANCH  25  26
ENDBRANCH  24  25
ENDBRANCH  23  24
ENDBRANCH   2  23
TORSDOF 9
ENDMDL
MODEL 7
REMARK VINA RESULT:      -5.6     19.223     22.220
REMARK  Name = 
REMARK  9 active torsions:
REMARK  status: ('A' for Active; 'I' for Inactive)
REMARK    1  A    between atoms: O_1  and  N_7
REMARK    2  A    between atoms: O_1  and  C_20
REMARK    3  A    between atoms: O_2  and  C_14
REMARK    4  A    between atoms: O_3  and  C_18
REMARK    5  A    between atoms: O_4  and  C_25
REMARK    6  A    between atoms: C_8  and  C_10
REMARK    7  A    between atoms: C_17  and  C_18
REMARK    8  A    between atoms: C_17  and  C_20
REMARK    9  A    between atoms: C_18  and  C_25
REMARK                            x       y       z     vdW  Elec       q    Type
REMARK                         _______ _______ _______ _____ _____    ______ ____
ROOT
ATOM      1  N   UNL     1       8.951 -10.973  11.986  0.00  0.00    +0.000 NA
ATOM      2  N   UNL     1       7.852  -8.185  10.087  0.00  0.00    +0.000 NA
ATOM      3  C   UNL     1       7.999 -10.234  11.473  0.00  0.00    +0.000 C 
ATOM      4  C   UNL     1       8.572  -9.130  10.603  0.00  0.00    +0.000 C 
ATOM      5  C   UNL     1      10.007  -9.382  10.609  0.00  0.00    +0.000 A 
ATOM      6  C   UNL     1      10.156 -10.475  11.462  0.00  0.00    +0.000 A 
ATOM      7  C   UNL     1      11.084  -8.768   9.995  0.00  0.00    +0.000 A 
ATOM      8  C   UNL     1      11.415 -10.986  11.724  0.00  0.00    +0.000 A 
ATOM      9  C   UNL     1      12.356  -9.283  10.257  0.00  0.00    +0.000 A 
ATOM     10  C   UNL     1      12.521 -10.383  11.116  0.00  0.00    +0.000 A 
ENDROOT
BRANCH   3  12
ATOM     11  N   UNL     1       4.475 -10.213  12.331  0.00  0.00    +0.000 N 
ATOM     12  C   UNL     1       6.613 -10.505  11.775  0.00  0.00    +0.000 A 
ATOM     13  C   UNL     1       5.947 -11.777  11.753  0.00  0.00    +0.000 A 
ATOM     14  C   UNL     1       4.617 -11.562  12.116  0.00  0.00    +0.000 A 
ATOM     15  C   UNL     1       5.659  -9.559  12.109  0.00  0.00    +0.000 A 
ATOM     16  C   UNL     1       6.354 -13.098  11.470  0.00  0.00    +0.000 A 
ATOM     17  C   UNL     1       3.677 -12.595  12.210  0.00  0.00    +0.000 A 
ATOM     18  C   UNL     1       5.428 -14.144  11.558  0.00  0.00    +0.000 A 
ATOM     19  C   UNL     1       4.109 -13.893  11.923  0.00  0.00    +0.000 A 
ATOM     20  H   UNL     1       3.603  -9.775  12.588  0.00  0.00    +0.000 HD
BRANCH  15  21
ATOM     21  O   UNL     1       5.752  -8.236  12.190  0.00  0.00    +0.000 OA
ATOM     22  H   UNL     1       6.671  -7.951  12.064  0.00  0.00    +0.000 HD
ENDBRANCH  15  21
ENDBRANCH   3  12
BRANCH   2  23
ATOM     23  O   UNL     1       8.622  -7.267   9.369  0.00  0.00    +0.000 OA
BRANCH  23  24
ATOM     24  C   UNL     1       7.814  -6.126   9.089  0.00  0.00    +0.000 C 
BRANCH  24  25
ATOM     25  C   UNL     1       7.373  -5.486  10.397  0.00  0.00    +0.000 C 
BRANCH  25  26
ATOM     26  C   UNL     1       6.011  -4.795  10.326  0.00  0.00    +0.000 C 
BRANCH  26  27
ATOM     27  O   UNL     1       5.996  -3.750  11.310  0.00  0.00    +0.000 OA
ATOM     28  H   UNL     1       5.076  -3.418  11.298  0.00  0.00    +0.000 HD
ENDBRANCH  26  27
BRANCH  26  29
ATOM     29  C   UNL     1       5.696  -4.174   8.962  0.00  0.00    +0.000 C 
BRANCH  29  30
ATOM     30  O   UNL     1       4.729  -5.001   8.307  0.00  0.00    +0.000 OA
ATOM     31  H   UNL     1       5.169  -5.851   8.124  0.00  0.00    +0.000 HD
ENDBRANCH  29  30
ENDBRANCH  26  29
ENDBRANCH  25  26
ENDBRANCH  24  25
ENDBRANCH  23  24
ENDBRANCH   2  23
TORSDOF 9
ENDMDL
MODEL 8
REMARK VINA RESULT:      -5.4      2.570      7.248
REMARK  Name = 
REMARK  9 active torsions:
REMARK  status: ('A' for Active; 'I' for Inactive)
REMARK    1  A    between atoms: O_1  and  N_7
REMARK    2  A    between atoms: O_1  and  C_20
REMARK    3  A    between atoms: O_2  and  C_14
REMARK    4  A    between atoms: O_3  and  C_18
REMARK    5  A    between atoms: O_4  and  C_25
REMARK    6  A    between atoms: C_8  and  C_10
REMARK    7  A    between atoms: C_17  and  C_18
REMARK    8  A    between atoms: C_17  and  C_20
REMARK    9  A    between atoms: C_18  and  C_25
REMARK                            x       y       z     vdW  Elec       q    Type
REMARK                         _______ _______ _______ _____ _____    ______ ____
ROOT
ATOM      1  N   UNL     1      -9.748 -11.035  -0.106  0.00  0.00    +0.000 NA
ATOM      2  N   UNL     1     -10.560  -9.462   2.969  0.00  0.00    +0.000 NA
ATOM      3  C   UNL     1      -9.703 -10.973   1.202  0.00  0.00    +0.000 C 
ATOM      4  C   UNL     1     -10.541  -9.821   1.724  0.00  0.00    +0.000 C 
ATOM      5  C   UNL     1     -11.160  -9.261   0.530  0.00  0.00    +0.000 A 
ATOM      6  C   UNL     1     -10.629 -10.019  -0.514  0.00  0.00    +0.000 A 
ATOM      7  C   UNL     1     -12.051  -8.225   0.316  0.00  0.00    +0.000 A 
ATOM      8  C   UNL     1     -10.989  -9.747  -1.822  0.00  0.00    +0.000 A 
ATOM      9  C   UNL     1     -12.416  -7.949  -1.004  0.00  0.00    +0.000 A 
ATOM     10  C   UNL     1     -11.888  -8.704  -2.066  0.00  0.00    +0.000 A 
ENDROOT
BRANCH   3  12
ATOM     11  N   UNL     1      -7.161 -13.012   2.794  0.00  0.00    +0.000 N 
ATOM     12  C   UNL     1      -8.911 -11.917   1.955  0.00  0.00    +0.000 A 
ATOM     13  C   UNL     1      -9.383 -12.931   2.856  0.00  0.00    +0.000 A 
ATOM     14  C   UNL     1      -8.267 -13.605   3.353  0.00  0.00    +0.000 A 
ATOM     15  C   UNL     1      -7.528 -11.981   1.969  0.00  0.00    +0.000 A 
ATOM     16  C   UNL     1     -10.660 -13.350   3.286  0.00  0.00    +0.000 A 
ATOM     17  C   UNL     1      -8.361 -14.671   4.256  0.00  0.00    +0.000 A 
ATOM     18  C   UNL     1     -10.774 -14.413   4.188  0.00  0.00    +0.000 A 
ATOM     19  C   UNL     1      -9.638 -15.063   4.665  0.00  0.00    +0.000 A 
ATOM     20  H   UNL     1      -6.213 -13.291   2.997  0.00  0.00    +0.000 HD
BRANCH  15  21
ATOM     21  O   UNL     1      -6.627 -11.215   1.365  0.00  0.00    +0.000 OA
ATOM     22  H   UNL     1      -5.863 -11.066   1.945  0.00  0.00    +0.000 HD
ENDBRANCH  15  21
ENDBRANCH   3  12
BRANCH   2  23
ATOM     23  O   UNL     1     -11.371  -8.346   3.185  0.00  0.00    +0.000 OA
BRANCH  23  24
ATOM     24  C   UNL     1     -11.638  -8.249   4.582  0.00  0.00    +0.000 C 
BRANCH  24  25
ATOM     25  C   UNL     1     -13.034  -7.682   4.792  0.00  0.00    +0.000 C 
BRANCH  25  26
ATOM     26  C   UNL     1     -13.262  -6.321   4.133  0.00  0.00    +0.000 C 
BRANCH  26  27
ATOM     27  O   UNL     1     -13.739  -6.552   2.799  0.00  0.00    +0.000 OA
ATOM     28  H   UNL     1     -14.693  -6.342   2.842  0.00  0.00    +0.000 HD
ENDBRANCH  26  27
BRANCH  26  29
ATOM     29  C   UNL     1     -14.282  -5.439   4.860  0.00  0.00    +0.000 C 
BRANCH  29  30
ATOM     30  O   UNL     1     -13.762  -4.106   4.911  0.00  0.00    +0.000 OA
ATOM     31  H   UNL     1     -12.793  -4.184   4.857  0.00  0.00    +0.000 HD
ENDBRANCH  29  30
ENDBRANCH  26  29
ENDBRANCH  25  26
ENDBRANCH  24  25
ENDBRANCH  23  24
ENDBRANCH   2  23
TORSDOF 9
ENDMDL
MODEL 9
REMARK VINA RESULT:      -5.4     15.035     17.722
REMARK  Name = 
REMARK  9 active torsions:
REMARK  status: ('A' for Active; 'I' for Inactive)
REMARK    1  A    between atoms: O_1  and  N_7
REMARK    2  A    between atoms: O_1  and  C_20
REMARK    3  A    between atoms: O_2  and  C_14
REMARK    4  A    between atoms: O_3  and  C_18
REMARK    5  A    between atoms: O_4  and  C_25
REMARK    6  A    between atoms: C_8  and  C_10
REMARK    7  A    between atoms: C_17  and  C_18
REMARK    8  A    between atoms: C_17  and  C_20
REMARK    9  A    between atoms: C_18  and  C_25
REMARK                            x       y       z     vdW  Elec       q    Type
REMARK                         _______ _______ _______ _____ _____    ______ ____
ROOT
ATOM      1  N   UNL     1      -7.038   6.328   3.486  0.00  0.00    +0.000 NA
ATOM      2  N   UNL     1      -9.960   7.784   4.874  0.00  0.00    +0.000 NA
ATOM      3  C   UNL     1      -7.634   7.108   4.354  0.00  0.00    +0.000 C 
ATOM      4  C   UNL     1      -9.143   7.017   4.224  0.00  0.00    +0.000 C 
ATOM      5  C   UNL     1      -9.352   5.998   3.205  0.00  0.00    +0.000 A 
ATOM      6  C   UNL     1      -8.062   5.651   2.803  0.00  0.00    +0.000 A 
ATOM      7  C   UNL     1     -10.482   5.425   2.648  0.00  0.00    +0.000 A 
ATOM      8  C   UNL     1      -7.874   4.703   1.813  0.00  0.00    +0.000 A 
ATOM      9  C   UNL     1     -10.295   4.467   1.649  0.00  0.00    +0.000 A 
ATOM     10  C   UNL     1      -9.001   4.109   1.233  0.00  0.00    +0.000 A 
ENDROOT
BRANCH   3  12
ATOM     11  N   UNL     1      -5.400   9.418   6.035  0.00  0.00    +0.000 N 
ATOM     12  C   UNL     1      -6.862   7.926   5.260  0.00  0.00    +0.000 A 
ATOM     13  C   UNL     1      -6.946   7.961   6.692  0.00  0.00    +0.000 A 
ATOM     14  C   UNL     1      -6.013   8.892   7.147  0.00  0.00    +0.000 A 
ATOM     15  C   UNL     1      -5.914   8.864   4.891  0.00  0.00    +0.000 A 
ATOM     16  C   UNL     1      -7.722   7.274   7.651  0.00  0.00    +0.000 A 
ATOM     17  C   UNL     1      -5.817   9.175   8.504  0.00  0.00    +0.000 A 
ATOM     18  C   UNL     1      -7.540   7.543   9.012  0.00  0.00    +0.000 A 
ATOM     19  C   UNL     1      -6.600   8.480   9.430  0.00  0.00    +0.000 A 
ATOM     20  H   UNL     1      -4.691  10.135   6.073  0.00  0.00    +0.000 HD
BRANCH  15  21
ATOM     21  O   UNL     1      -5.523   9.264   3.686  0.00  0.00    +0.000 OA
ATOM     22  H   UNL     1      -5.972   8.751   2.995  0.00  0.00    +0.000 HD
ENDBRANCH  15  21
ENDBRANCH   3  12
BRANCH   2  23
ATOM     23  O   UNL     1     -11.295   7.535   4.544  0.00  0.00    +0.000 OA
BRANCH  23  24
ATOM     24  C   UNL     1     -12.069   8.672   4.917  0.00  0.00    +0.000 C 
BRANCH  24  25
ATOM     25  C   UNL     1     -12.880   8.345   6.162  0.00  0.00    +0.000 C 
BRANCH  25  26
ATOM     26  C   UNL     1     -14.122   7.495   5.894  0.00  0.00    +0.000 C 
BRANCH  26  27
ATOM     27  O   UNL     1     -14.058   7.040   4.534  0.00  0.00    +0.000 OA
ATOM     28  H   UNL     1     -14.719   6.320   4.486  0.00  0.00    +0.000 HD
ENDBRANCH  26  27
BRANCH  26  29
ATOM     29  C   UNL     1     -14.248   6.268   6.804  0.00  0.00    +0.000 C 
BRANCH  29  30
ATOM     30  O   UNL     1     -13.928   6.670   8.140  0.00  0.00    +0.000 OA
ATOM     31  H   UNL     1     -14.333   6.011   8.732  0.00  0.00    +0.000 HD
ENDBRANCH  29  30
ENDBRANCH  26  29
ENDBRANCH  25  26
ENDBRANCH  24  25
ENDBRANCH  23  24
ENDBRANCH   2  23
TORSDOF 9
ENDMDL
