MODEL 1
REMARK VINA RESULT:      -4.8      0.000      0.000
REMARK  Name = IPA3.pdbqt.pdb
REMARK  5 active torsions:
REMARK  status: ('A' for Active; 'I' for Inactive)
REMARK    1  A    between atoms: S_1  and  S_2
REMARK    2  A    between atoms: S_1  and  C_15
REMARK    3  A    between atoms: S_2  and  C_3
REMARK    4  A    between atoms: C_10  and  O_13
REMARK    5  A    between atoms: C_22  and  O_25
REMARK                            x       y       z     vdW  Elec       q    Type
REMARK                         _______ _______ _______ _____ _____    ______ ____
ROOT
ATOM      1  S   UNL     1      -1.766  -6.402  -4.249  0.00  0.00    +0.000 S 
ENDROOT
BRANCH   1   2
ATOM      2  C   UNL     1      -1.693  -4.622  -4.498  0.00  0.00    +0.000 A 
ATOM      3  C   UNL     1      -2.842  -3.890  -4.886  0.00  0.00    +0.000 A 
ATOM      4  C   UNL     1      -2.739  -2.487  -5.041  0.00  0.00    +0.000 A 
ATOM      5  C   UNL     1      -4.098  -4.478  -5.116  0.00  0.00    +0.000 A 
ATOM      6  C   UNL     1      -1.524  -1.839  -4.833  0.00  0.00    +0.000 A 
ATOM      7  C   UNL     1      -3.855  -1.730  -5.398  0.00  0.00    +0.000 A 
ATOM      8  C   UNL     1      -0.395  -2.562  -4.469  0.00  0.00    +0.000 A 
ATOM      9  C   UNL     1      -0.482  -3.941  -4.301  0.00  0.00    +0.000 A 
ATOM     10  C   UNL     1      -5.086  -2.342  -5.611  0.00  0.00    +0.000 A 
ATOM     11  C   UNL     1      -5.209  -3.718  -5.471  0.00  0.00    +0.000 A 
BRANCH   9  12
ATOM     12  O   UNL     1       0.670  -4.584  -3.932  0.00  0.00    +0.000 OA
ATOM     13  H   UNL     1       0.421  -5.330  -3.357  0.00  0.00    +0.000 HD
ENDBRANCH   9  12
ENDBRANCH   1   2
BRANCH   1  14
ATOM     14  S   UNL     1      -1.971  -6.529  -2.203  0.00  0.00    +0.000 S 
BRANCH  14  15
ATOM     15  C   UNL     1      -3.641  -5.905  -1.965  0.00  0.00    +0.000 A 
ATOM     16  C   UNL     1      -3.875  -4.556  -1.606  0.00  0.00    +0.000 A 
ATOM     17  C   UNL     1      -5.208  -4.107  -1.458  0.00  0.00    +0.000 A 
ATOM     18  C   UNL     1      -2.847  -3.619  -1.396  0.00  0.00    +0.000 A 
ATOM     19  C   UNL     1      -6.273  -4.983  -1.646  0.00  0.00    +0.000 A 
ATOM     20  C   UNL     1      -5.477  -2.780  -1.127  0.00  0.00    +0.000 A 
ATOM     21  C   UNL     1      -6.042  -6.311  -1.983  0.00  0.00    +0.000 A 
ATOM     22  C   UNL     1      -4.738  -6.765  -2.142  0.00  0.00    +0.000 A 
ATOM     23  C   UNL     1      -4.437  -1.873  -0.935  0.00  0.00    +0.000 A 
ATOM     24  C   UNL     1      -3.119  -2.294  -1.067  0.00  0.00    +0.000 A 
BRANCH  22  25
ATOM     25  O   UNL     1      -4.589  -8.083  -2.485  0.00  0.00    +0.000 OA
ATOM     26  H   UNL     1      -4.427  -8.585  -1.665  0.00  0.00    +0.000 HD
ENDBRANCH  22  25
ENDBRANCH  14  15
ENDBRANCH   1  14
TORSDOF 5
ENDMDL
MODEL 2
REMARK VINA RESULT:      -4.6     29.914     32.119
REMARK  Name = IPA3.pdbqt.pdb
REMARK  5 active torsions:
REMARK  status: ('A' for Active; 'I' for Inactive)
REMARK    1  A    between atoms: S_1  and  S_2
REMARK    2  A    between atoms: S_1  and  C_15
REMARK    3  A    between atoms: S_2  and  C_3
REMARK    4  A    between atoms: C_10  and  O_13
REMARK    5  A    between atoms: C_22  and  O_25
REMARK                            x       y       z     vdW  Elec       q    Type
REMARK                         _______ _______ _______ _____ _____    ______ ____
ROOT
ATOM      1  S   UNL     1     -10.516  -6.548  29.934  0.00  0.00    +0.000 S 
ENDROOT
BRANCH   1   2
ATOM      2  C   UNL     1      -8.953  -5.659  29.989  0.00  0.00    +0.000 A 
ATOM      3  C   UNL     1      -7.726  -6.321  29.740  0.00  0.00    +0.000 A 
ATOM      4  C   UNL     1      -6.527  -5.571  29.767  0.00  0.00    +0.000 A 
ATOM      5  C   UNL     1      -7.628  -7.693  29.451  0.00  0.00    +0.000 A 
ATOM      6  C   UNL     1      -6.550  -4.208  30.051  0.00  0.00    +0.000 A 
ATOM      7  C   UNL     1      -5.302  -6.184  29.504  0.00  0.00    +0.000 A 
ATOM      8  C   UNL     1      -7.754  -3.565  30.311  0.00  0.00    +0.000 A 
ATOM      9  C   UNL     1      -8.943  -4.285  30.278  0.00  0.00    +0.000 A 
ATOM     10  C   UNL     1      -5.239  -7.543  29.212  0.00  0.00    +0.000 A 
ATOM     11  C   UNL     1      -6.403  -8.300  29.186  0.00  0.00    +0.000 A 
BRANCH   9  12
ATOM     12  O   UNL     1     -10.090  -3.581  30.534  0.00  0.00    +0.000 OA
ATOM     13  H   UNL     1     -10.481  -3.328  29.678  0.00  0.00    +0.000 HD
ENDBRANCH   9  12
ENDBRANCH   1   2
BRANCH   1  14
ATOM     14  S   UNL     1     -11.283  -5.930  28.124  0.00  0.00    +0.000 S 
BRANCH  14  15
ATOM     15  C   UNL     1      -9.853  -6.095  27.047  0.00  0.00    +0.000 A 
ATOM     16  C   UNL     1      -9.122  -4.960  26.622  0.00  0.00    +0.000 A 
ATOM     17  C   UNL     1      -7.987  -5.144  25.798  0.00  0.00    +0.000 A 
ATOM     18  C   UNL     1      -9.453  -3.641  26.985  0.00  0.00    +0.000 A 
ATOM     19  C   UNL     1      -7.605  -6.421  25.397  0.00  0.00    +0.000 A 
ATOM     20  C   UNL     1      -7.230  -4.051  25.379  0.00  0.00    +0.000 A 
ATOM     21  C   UNL     1      -8.333  -7.534  25.802  0.00  0.00    +0.000 A 
ATOM     22  C   UNL     1      -9.444  -7.370  26.621  0.00  0.00    +0.000 A 
ATOM     23  C   UNL     1      -7.578  -2.759  25.763  0.00  0.00    +0.000 A 
ATOM     24  C   UNL     1      -8.693  -2.553  26.566  0.00  0.00    +0.000 A 
BRANCH  22  25
ATOM     25  O   UNL     1     -10.105  -8.512  26.987  0.00  0.00    +0.000 OA
ATOM     26  H   UNL     1      -9.624  -8.904  27.740  0.00  0.00    +0.000 HD
ENDBRANCH  22  25
ENDBRANCH  14  15
ENDBRANCH   1  14
TORSDOF 5
ENDMDL
MODEL 3
REMARK VINA RESULT:      -4.4      1.489      2.708
REMARK  Name = IPA3.pdbqt.pdb
REMARK  5 active torsions:
REMARK  status: ('A' for Active; 'I' for Inactive)
REMARK    1  A    between atoms: S_1  and  S_2
REMARK    2  A    between atoms: S_1  and  C_15
REMARK    3  A    between atoms: S_2  and  C_3
REMARK    4  A    between atoms: C_10  and  O_13
REMARK    5  A    between atoms: C_22  and  O_25
REMARK                            x       y       z     vdW  Elec       q    Type
REMARK                         _______ _______ _______ _____ _____    ______ ____
ROOT
ATOM      1  S   UNL     1      -1.842  -5.373  -4.754  0.00  0.00    +0.000 S 
ENDROOT
BRANCH   1   2
ATOM      2  C   UNL     1      -2.734  -3.817  -4.890  0.00  0.00    +0.000 A 
ATOM      3  C   UNL     1      -2.045  -2.586  -5.011  0.00  0.00    +0.000 A 
ATOM      4  C   UNL     1      -2.793  -1.392  -5.144  0.00  0.00    +0.000 A 
ATOM      5  C   UNL     1      -0.643  -2.478  -5.021  0.00  0.00    +0.000 A 
ATOM      6  C   UNL     1      -4.185  -1.425  -5.138  0.00  0.00    +0.000 A 
ATOM      7  C   UNL     1      -2.148  -0.164  -5.289  0.00  0.00    +0.000 A 
ATOM      8  C   UNL     1      -4.859  -2.633  -5.002  0.00  0.00    +0.000 A 
ATOM      9  C   UNL     1      -4.139  -3.816  -4.882  0.00  0.00    +0.000 A 
ATOM     10  C   UNL     1      -0.759  -0.092  -5.303  0.00  0.00    +0.000 A 
ATOM     11  C   UNL     1      -0.004  -1.249  -5.168  0.00  0.00    +0.000 A 
BRANCH   9  12
ATOM     12  O   UNL     1      -4.871  -4.967  -4.763  0.00  0.00    +0.000 OA
ATOM     13  H   UNL     1      -4.395  -5.673  -5.237  0.00  0.00    +0.000 HD
ENDBRANCH   9  12
ENDBRANCH   1   2
BRANCH   1  14
ATOM     14  S   UNL     1      -1.213  -5.322  -2.793  0.00  0.00    +0.000 S 
BRANCH  14  15
ATOM     15  C   UNL     1      -2.775  -5.424  -1.907  0.00  0.00    +0.000 A 
ATOM     16  C   UNL     1      -3.397  -4.265  -1.385  0.00  0.00    +0.000 A 
ATOM     17  C   UNL     1      -4.640  -4.394  -0.721  0.00  0.00    +0.000 A 
ATOM     18  C   UNL     1      -2.854  -2.972  -1.499  0.00  0.00    +0.000 A 
ATOM     19  C   UNL     1      -5.232  -5.644  -0.567  0.00  0.00    +0.000 A 
ATOM     20  C   UNL     1      -5.293  -3.272  -0.213  0.00  0.00    +0.000 A 
ATOM     21  C   UNL     1      -4.612  -6.784  -1.067  0.00  0.00    +0.000 A 
ATOM     22  C   UNL     1      -3.396  -6.672  -1.731  0.00  0.00    +0.000 A 
ATOM     23  C   UNL     1      -4.734  -2.004  -0.351  0.00  0.00    +0.000 A 
ATOM     24  C   UNL     1      -3.511  -1.854  -0.994  0.00  0.00    +0.000 A 
BRANCH  22  25
ATOM     25  O   UNL     1      -2.851  -7.836  -2.204  0.00  0.00    +0.000 OA
ATOM     26  H   UNL     1      -3.485  -8.225  -2.834  0.00  0.00    +0.000 HD
ENDBRANCH  22  25
ENDBRANCH  14  15
ENDBRANCH   1  14
TORSDOF 5
ENDMDL
MODEL 4
REMARK VINA RESULT:      -4.3     19.673     21.557
REMARK  Name = IPA3.pdbqt.pdb
REMARK  5 active torsions:
REMARK  status: ('A' for Active; 'I' for Inactive)
REMARK    1  A    between atoms: S_1  and  S_2
REMARK    2  A    between atoms: S_1  and  C_15
REMARK    3  A    between atoms: S_2  and  C_3
REMARK    4  A    between atoms: C_10  and  O_13
REMARK    5  A    between atoms: C_22  and  O_25
REMARK                            x       y       z     vdW  Elec       q    Type
REMARK                         _______ _______ _______ _____ _____    ______ ____
ROOT
ATOM      1  S   UNL     1     -15.286 -17.108  12.484  0.00  0.00    +0.000 S 
ENDROOT
BRANCH   1   2
ATOM      2  C   UNL     1     -15.206 -15.939  11.119  0.00  0.00    +0.000 A 
ATOM      3  C   UNL     1     -14.853 -16.362   9.814  0.00  0.00    +0.000 A 
ATOM      4  C   UNL     1     -14.832 -15.409   8.768  0.00  0.00    +0.000 A 
ATOM      5  C   UNL     1     -14.531 -17.691   9.488  0.00  0.00    +0.000 A 
ATOM      6  C   UNL     1     -15.136 -14.074   9.021  0.00  0.00    +0.000 A 
ATOM      7  C   UNL     1     -14.512 -15.793   7.466  0.00  0.00    +0.000 A 
ATOM      8  C   UNL     1     -15.466 -13.659  10.305  0.00  0.00    +0.000 A 
ATOM      9  C   UNL     1     -15.502 -14.585  11.343  0.00  0.00    +0.000 A 
ATOM     10  C   UNL     1     -14.206 -17.119   7.174  0.00  0.00    +0.000 A 
ATOM     11  C   UNL     1     -14.213 -18.070   8.186  0.00  0.00    +0.000 A 
BRANCH   9  12
ATOM     12  O   UNL     1     -15.846 -14.104  12.578  0.00  0.00    +0.000 OA
ATOM     13  H   UNL     1     -16.013 -13.149  12.489  0.00  0.00    +0.000 HD
ENDBRANCH   9  12
ENDBRANCH   1   2
BRANCH   1  14
ATOM     14  S   UNL     1     -13.385 -16.963  13.267  0.00  0.00    +0.000 S 
BRANCH  14  15
ATOM     15  C   UNL     1     -12.447 -18.000  12.137  0.00  0.00    +0.000 A 
ATOM     16  C   UNL     1     -11.586 -17.432  11.168  0.00  0.00    +0.000 A 
ATOM     17  C   UNL     1     -10.847 -18.291  10.320  0.00  0.00    +0.000 A 
ATOM     18  C   UNL     1     -11.408 -16.047  11.001  0.00  0.00    +0.000 A 
ATOM     19  C   UNL     1     -10.978 -19.673  10.426  0.00  0.00    +0.000 A 
ATOM     20  C   UNL     1      -9.972 -17.768   9.368  0.00  0.00    +0.000 A 
ATOM     21  C   UNL     1     -11.836 -20.229  11.369  0.00  0.00    +0.000 A 
ATOM     22  C   UNL     1     -12.560 -19.398  12.215  0.00  0.00    +0.000 A 
ATOM     23  C   UNL     1      -9.811 -16.391   9.235  0.00  0.00    +0.000 A 
ATOM     24  C   UNL     1     -10.532 -15.528  10.051  0.00  0.00    +0.000 A 
BRANCH  22  25
ATOM     25  O   UNL     1     -13.377 -20.018  13.124  0.00  0.00    +0.000 OA
ATOM     26  H   UNL     1     -12.838 -20.669  13.610  0.00  0.00    +0.000 HD
ENDBRANCH  22  25
ENDBRANCH  14  15
ENDBRANCH   1  14
TORSDOF 5
ENDMDL
MODEL 5
REMARK VINA RESULT:      -4.3      3.154      6.279
REMARK  Name = IPA3.pdbqt.pdb
REMARK  5 active torsions:
REMARK  status: ('A' for Active; 'I' for Inactive)
REMARK    1  A    between atoms: S_1  and  S_2
REMARK    2  A    between atoms: S_1  and  C_15
REMARK    3  A    between atoms: S_2  and  C_3
REMARK    4  A    between atoms: C_10  and  O_13
REMARK    5  A    between atoms: C_22  and  O_25
REMARK                            x       y       z     vdW  Elec       q    Type
REMARK                         _______ _______ _______ _____ _____    ______ ____
ROOT
ATOM      1  S   UNL     1      -2.488  -5.461  -3.541  0.00  0.00    +0.000 S 
ENDROOT
BRANCH   1   2
ATOM      2  C   UNL     1      -3.528  -5.469  -2.073  0.00  0.00    +0.000 A 
ATOM      3  C   UNL     1      -3.963  -4.260  -1.477  0.00  0.00    +0.000 A 
ATOM      4  C   UNL     1      -4.803  -4.321  -0.341  0.00  0.00    +0.000 A 
ATOM      5  C   UNL     1      -3.618  -2.987  -1.962  0.00  0.00    +0.000 A 
ATOM      6  C   UNL     1      -5.182  -5.549   0.195  0.00  0.00    +0.000 A 
ATOM      7  C   UNL     1      -5.271  -3.151   0.258  0.00  0.00    +0.000 A 
ATOM      8  C   UNL     1      -4.740  -6.734  -0.381  0.00  0.00    +0.000 A 
ATOM      9  C   UNL     1      -3.922  -6.692  -1.506  0.00  0.00    +0.000 A 
ATOM     10  C   UNL     1      -4.917  -1.905  -0.251  0.00  0.00    +0.000 A 
ATOM     11  C   UNL     1      -4.088  -1.821  -1.362  0.00  0.00    +0.000 A 
BRANCH   9  12
ATOM     12  O   UNL     1      -3.535  -7.899  -2.024  0.00  0.00    +0.000 OA
ATOM     13  H   UNL     1      -3.884  -8.598  -1.441  0.00  0.00    +0.000 HD
ENDBRANCH   9  12
ENDBRANCH   1   2
BRANCH   1  14
ATOM     14  S   UNL     1      -0.641  -5.021  -2.739  0.00  0.00    +0.000 S 
BRANCH  14  15
ATOM     15  C   UNL     1       0.210  -6.596  -2.901  0.00  0.00    +0.000 A 
ATOM     16  C   UNL     1       1.034  -6.872  -4.019  0.00  0.00    +0.000 A 
ATOM     17  C   UNL     1       1.705  -8.115  -4.086  0.00  0.00    +0.000 A 
ATOM     18  C   UNL     1       1.239  -5.966  -5.076  0.00  0.00    +0.000 A 
ATOM     19  C   UNL     1       1.544  -9.061  -3.078  0.00  0.00    +0.000 A 
ATOM     20  C   UNL     1       2.542  -8.412  -5.161  0.00  0.00    +0.000 A 
ATOM     21  C   UNL     1       0.722  -8.795  -1.988  0.00  0.00    +0.000 A 
ATOM     22  C   UNL     1       0.064  -7.574  -1.903  0.00  0.00    +0.000 A 
ATOM     23  C   UNL     1       2.732  -7.490  -6.187  0.00  0.00    +0.000 A 
ATOM     24  C   UNL     1       2.077  -6.265  -6.146  0.00  0.00    +0.000 A 
BRANCH  22  25
ATOM     25  O   UNL     1      -0.720  -7.380  -0.796  0.00  0.00    +0.000 OA
ATOM     26  H   UNL     1      -1.521  -6.904  -1.081  0.00  0.00    +0.000 HD
ENDBRANCH  22  25
ENDBRANCH  14  15
ENDBRANCH   1  14
TORSDOF 5
ENDMDL
MODEL 6
REMARK VINA RESULT:      -4.2     18.246     20.533
REMARK  Name = IPA3.pdbqt.pdb
REMARK  5 active torsions:
REMARK  status: ('A' for Active; 'I' for Inactive)
REMARK    1  A    between atoms: S_1  and  S_2
REMARK    2  A    between atoms: S_1  and  C_15
REMARK    3  A    between atoms: S_2  and  C_3
REMARK    4  A    between atoms: C_10  and  O_13
REMARK    5  A    between atoms: C_22  and  O_25
REMARK                            x       y       z     vdW  Elec       q    Type
REMARK                         _______ _______ _______ _____ _____    ______ ____
ROOT
ATOM      1  S   UNL     1     -11.790 -15.766   6.614  0.00  0.00    +0.000 S 
ENDROOT
BRANCH   1   2
ATOM      2  C   UNL     1     -11.414 -15.827   8.372  0.00  0.00    +0.000 A 
ATOM      3  C   UNL     1     -12.441 -15.748   9.344  0.00  0.00    +0.000 A 
ATOM      4  C   UNL     1     -12.096 -15.829  10.713  0.00  0.00    +0.000 A 
ATOM      5  C   UNL     1     -13.803 -15.605   9.025  0.00  0.00    +0.000 A 
ATOM      6  C   UNL     1     -10.765 -15.966  11.101  0.00  0.00    +0.000 A 
ATOM      7  C   UNL     1     -13.083 -15.778  11.697  0.00  0.00    +0.000 A 
ATOM      8  C   UNL     1      -9.758 -16.027  10.146  0.00  0.00    +0.000 A 
ATOM      9  C   UNL     1     -10.081 -15.960   8.795  0.00  0.00    +0.000 A 
ATOM     10  C   UNL     1     -14.424 -15.645  11.348  0.00  0.00    +0.000 A 
ATOM     11  C   UNL     1     -14.785 -15.557  10.011  0.00  0.00    +0.000 A 
BRANCH   9  12
ATOM     12  O   UNL     1      -9.036 -16.037   7.913  0.00  0.00    +0.000 OA
ATOM     13  H   UNL     1      -9.405 -16.233   7.033  0.00  0.00    +0.000 HD
ENDBRANCH   9  12
ENDBRANCH   1   2
BRANCH   1  14
ATOM     14  S   UNL     1     -11.682 -17.758   6.097  0.00  0.00    +0.000 S 
BRANCH  14  15
ATOM     15  C   UNL     1     -12.735 -18.516   7.341  0.00  0.00    +0.000 A 
ATOM     16  C   UNL     1     -12.183 -19.150   8.479  0.00  0.00    +0.000 A 
ATOM     17  C   UNL     1     -13.055 -19.707   9.444  0.00  0.00    +0.000 A 
ATOM     18  C   UNL     1     -10.801 -19.252   8.719  0.00  0.00    +0.000 A 
ATOM     19  C   UNL     1     -14.435 -19.647   9.269  0.00  0.00    +0.000 A 
ATOM     20  C   UNL     1     -12.548 -20.320  10.590  0.00  0.00    +0.000 A 
ATOM     21  C   UNL     1     -14.975 -19.037   8.143  0.00  0.00    +0.000 A 
ATOM     22  C   UNL     1     -14.131 -18.476   7.191  0.00  0.00    +0.000 A 
ATOM     23  C   UNL     1     -11.174 -20.396  10.802  0.00  0.00    +0.000 A 
ATOM     24  C   UNL     1     -10.298 -19.863   9.865  0.00  0.00    +0.000 A 
BRANCH  22  25
ATOM     25  O   UNL     1     -14.737 -17.884   6.113  0.00  0.00    +0.000 OA
ATOM     26  H   UNL     1     -14.838 -16.936   6.316  0.00  0.00    +0.000 HD
ENDBRANCH  22  25
ENDBRANCH  14  15
ENDBRANCH   1  14
TORSDOF 5
ENDMDL
MODEL 7
REMARK VINA RESULT:      -4.1     30.710     32.889
REMARK  Name = IPA3.pdbqt.pdb
REMARK  5 active torsions:
REMARK  status: ('A' for Active; 'I' for Inactive)
REMARK    1  A    between atoms: S_1  and  S_2
REMARK    2  A    between atoms: S_1  and  C_15
REMARK    3  A    between atoms: S_2  and  C_3
REMARK    4  A    between atoms: C_10  and  O_13
REMARK    5  A    between atoms: C_22  and  O_25
REMARK                            x       y       z     vdW  Elec       q    Type
REMARK                         _______ _______ _______ _____ _____    ______ ____
ROOT
ATOM      1  S   UNL     1     -11.903  -6.455  30.376  0.00  0.00    +0.000 S 
ENDROOT
BRANCH   1   2
ATOM      2  C   UNL     1     -10.114  -6.647  30.391  0.00  0.00    +0.000 A 
ATOM      3  C   UNL     1      -9.514  -7.921  30.242  0.00  0.00    +0.000 A 
ATOM      4  C   UNL     1      -8.102  -8.016  30.232  0.00  0.00    +0.000 A 
ATOM      5  C   UNL     1     -10.245  -9.112  30.088  0.00  0.00    +0.000 A 
ATOM      6  C   UNL     1      -7.316  -6.877  30.383  0.00  0.00    +0.000 A 
ATOM      7  C   UNL     1      -7.476  -9.251  30.063  0.00  0.00    +0.000 A 
ATOM      8  C   UNL     1      -7.907  -5.630  30.545  0.00  0.00    +0.000 A 
ATOM      9  C   UNL     1      -9.294  -5.519  30.547  0.00  0.00    +0.000 A 
ATOM     10  C   UNL     1      -8.229 -10.410  29.905  0.00  0.00    +0.000 A 
ATOM     11  C   UNL     1      -9.616 -10.343  29.919  0.00  0.00    +0.000 A 
BRANCH   9  12
ATOM     12  O   UNL     1      -9.804  -4.257  30.702  0.00  0.00    +0.000 OA
ATOM     13  H   UNL     1     -10.706  -4.255  30.333  0.00  0.00    +0.000 HD
ENDBRANCH   9  12
ENDBRANCH   1   2
BRANCH   1  14
ATOM     14  S   UNL     1     -12.228  -5.726  28.477  0.00  0.00    +0.000 S 
BRANCH  14  15
ATOM     15  C   UNL     1     -11.245  -6.855  27.480  0.00  0.00    +0.000 A 
ATOM     16  C   UNL     1      -9.986  -6.467  26.962  0.00  0.00    +0.000 A 
ATOM     17  C   UNL     1      -9.239  -7.401  26.207  0.00  0.00    +0.000 A 
ATOM     18  C   UNL     1      -9.420  -5.196  27.165  0.00  0.00    +0.000 A 
ATOM     19  C   UNL     1      -9.741  -8.676  25.963  0.00  0.00    +0.000 A 
ATOM     20  C   UNL     1      -7.985  -7.062  25.700  0.00  0.00    +0.000 A 
ATOM     21  C   UNL     1     -10.984  -9.050  26.459  0.00  0.00    +0.000 A 
ATOM     22  C   UNL     1     -11.726  -8.147  27.212  0.00  0.00    +0.000 A 
ATOM     23  C   UNL     1      -7.447  -5.798  25.927  0.00  0.00    +0.000 A 
ATOM     24  C   UNL     1      -8.167  -4.861  26.659  0.00  0.00    +0.000 A 
BRANCH  22  25
ATOM     25  O   UNL     1     -12.937  -8.590  27.675  0.00  0.00    +0.000 OA
ATOM     26  H   UNL     1     -12.772  -9.109  28.484  0.00  0.00    +0.000 HD
ENDBRANCH  22  25
ENDBRANCH  14  15
ENDBRANCH   1  14
TORSDOF 5
ENDMDL
MODEL 8
REMARK VINA RESULT:      -3.9      2.008      4.562
REMARK  Name = IPA3.pdbqt.pdb
REMARK  5 active torsions:
REMARK  status: ('A' for Active; 'I' for Inactive)
REMARK    1  A    between atoms: S_1  and  S_2
REMARK    2  A    between atoms: S_1  and  C_15
REMARK    3  A    between atoms: S_2  and  C_3
REMARK    4  A    between atoms: C_10  and  O_13
REMARK    5  A    between atoms: C_22  and  O_25
REMARK                            x       y       z     vdW  Elec       q    Type
REMARK                         _______ _______ _______ _____ _____    ______ ____
ROOT
ATOM      1  S   UNL     1      -0.649  -5.207  -4.031  0.00  0.00    +0.000 S 
ENDROOT
BRANCH   1   2
ATOM      2  C   UNL     1      -1.844  -4.189  -3.151  0.00  0.00    +0.000 A 
ATOM      3  C   UNL     1      -2.143  -2.874  -3.582  0.00  0.00    +0.000 A 
ATOM      4  C   UNL     1      -3.111  -2.125  -2.873  0.00  0.00    +0.000 A 
ATOM      5  C   UNL     1      -1.539  -2.265  -4.696  0.00  0.00    +0.000 A 
ATOM      6  C   UNL     1      -3.747  -2.666  -1.757  0.00  0.00    +0.000 A 
ATOM      7  C   UNL     1      -3.450  -0.836  -3.282  0.00  0.00    +0.000 A 
ATOM      8  C   UNL     1      -3.439  -3.950  -1.327  0.00  0.00    +0.000 A 
ATOM      9  C   UNL     1      -2.497  -4.704  -2.020  0.00  0.00    +0.000 A 
ATOM     10  C   UNL     1      -2.839  -0.263  -4.394  0.00  0.00    +0.000 A 
ATOM     11  C   UNL     1      -1.881  -0.977  -5.102  0.00  0.00    +0.000 A 
BRANCH   9  12
ATOM     12  O   UNL     1      -2.253  -5.964  -1.542  0.00  0.00    +0.000 OA
ATOM     13  H   UNL     1      -3.113  -6.405  -1.417  0.00  0.00    +0.000 HD
ENDBRANCH   9  12
ENDBRANCH   1   2
BRANCH   1  14
ATOM     14  S   UNL     1      -1.879  -6.374  -5.202  0.00  0.00    +0.000 S 
BRANCH  14  15
ATOM     15  C   UNL     1      -2.638  -5.144  -6.271  0.00  0.00    +0.000 A 
ATOM     16  C   UNL     1      -3.924  -4.624  -5.990  0.00  0.00    +0.000 A 
ATOM     17  C   UNL     1      -4.467  -3.637  -6.847  0.00  0.00    +0.000 A 
ATOM     18  C   UNL     1      -4.702  -5.025  -4.889  0.00  0.00    +0.000 A 
ATOM     19  C   UNL     1      -3.754  -3.197  -7.958  0.00  0.00    +0.000 A 
ATOM     20  C   UNL     1      -5.721  -3.086  -6.588  0.00  0.00    +0.000 A 
ATOM     21  C   UNL     1      -2.498  -3.720  -8.242  0.00  0.00    +0.000 A 
ATOM     22  C   UNL     1      -1.947  -4.683  -7.404  0.00  0.00    +0.000 A 
ATOM     23  C   UNL     1      -6.462  -3.498  -5.484  0.00  0.00    +0.000 A 
ATOM     24  C   UNL     1      -5.953  -4.471  -4.633  0.00  0.00    +0.000 A 
BRANCH  22  25
ATOM     25  O   UNL     1      -0.702  -5.144  -7.742  0.00  0.00    +0.000 OA
ATOM     26  H   UNL     1      -0.126  -5.039  -6.961  0.00  0.00    +0.000 HD
ENDBRANCH  22  25
ENDBRANCH  14  15
ENDBRANCH   1  14
TORSDOF 5
ENDMDL
MODEL 9
REMARK VINA RESULT:      -3.9      3.108      5.240
REMARK  Name = IPA3.pdbqt.pdb
REMARK  5 active torsions:
REMARK  status: ('A' for Active; 'I' for Inactive)
REMARK    1  A    between atoms: S_1  and  S_2
REMARK    2  A    between atoms: S_1  and  C_15
REMARK    3  A    between atoms: S_2  and  C_3
REMARK    4  A    between atoms: C_10  and  O_13
REMARK    5  A    between atoms: C_22  and  O_25
REMARK                            x       y       z     vdW  Elec       q    Type
REMARK                         _______ _______ _______ _____ _____    ______ ____
ROOT
ATOM      1  S   UNL     1      -2.731  -7.011  -6.232  0.00  0.00    +0.000 S 
ENDROOT
BRANCH   1   2
ATOM      2  C   UNL     1      -3.691  -5.891  -5.203  0.00  0.00    +0.000 A 
ATOM      3  C   UNL     1      -3.071  -5.104  -4.202  0.00  0.00    +0.000 A 
ATOM      4  C   UNL     1      -3.866  -4.217  -3.438  0.00  0.00    +0.000 A 
ATOM      5  C   UNL     1      -1.693  -5.140  -3.928  0.00  0.00    +0.000 A 
ATOM      6  C   UNL     1      -5.239  -4.133  -3.654  0.00  0.00    +0.000 A 
ATOM      7  C   UNL     1      -3.287  -3.409  -2.460  0.00  0.00    +0.000 A 
ATOM      8  C   UNL     1      -5.848  -4.918  -4.625  0.00  0.00    +0.000 A 
ATOM      9  C   UNL     1      -5.079  -5.787  -5.392  0.00  0.00    +0.000 A 
ATOM     10  C   UNL     1      -1.917  -3.463  -2.218  0.00  0.00    +0.000 A 
ATOM     11  C   UNL     1      -1.118  -4.330  -2.951  0.00  0.00    +0.000 A 
BRANCH   9  12
ATOM     12  O   UNL     1      -5.747  -6.521  -6.337  0.00  0.00    +0.000 OA
ATOM     13  H   UNL     1      -5.162  -6.610  -7.111  0.00  0.00    +0.000 HD
ENDBRANCH   9  12
ENDBRANCH   1   2
BRANCH   1  14
ATOM     14  S   UNL     1      -3.177  -8.837  -5.388  0.00  0.00    +0.000 S 
BRANCH  14  15
ATOM     15  C   UNL     1      -2.502  -8.647  -3.732  0.00  0.00    +0.000 A 
ATOM     16  C   UNL     1      -1.115  -8.787  -3.487  0.00  0.00    +0.000 A 
ATOM     17  C   UNL     1      -0.629  -8.600  -2.172  0.00  0.00    +0.000 A 
ATOM     18  C   UNL     1      -0.175  -9.092  -4.488  0.00  0.00    +0.000 A 
ATOM     19  C   UNL     1      -1.504  -8.300  -1.131  0.00  0.00    +0.000 A 
ATOM     20  C   UNL     1       0.734  -8.707  -1.897  0.00  0.00    +0.000 A 
ATOM     21  C   UNL     1      -2.868  -8.179  -1.370  0.00  0.00    +0.000 A 
ATOM     22  C   UNL     1      -3.359  -8.349  -2.660  0.00  0.00    +0.000 A 
ATOM     23  C   UNL     1       1.640  -9.001  -2.912  0.00  0.00    +0.000 A 
ATOM     24  C   UNL     1       1.185  -9.196  -4.210  0.00  0.00    +0.000 A 
BRANCH  22  25
ATOM     25  O   UNL     1      -4.712  -8.205  -2.820  0.00  0.00    +0.000 OA
ATOM     26  H   UNL     1      -5.103  -8.086  -1.935  0.00  0.00    +0.000 HD
ENDBRANCH  22  25
ENDBRANCH  14  15
ENDBRANCH   1  14
TORSDOF 5
ENDMDL
