MODEL 1
REMARK VINA RESULT:      -7.9      0.000      0.000
REMARK  Name = 
REMARK  8 active torsions:
REMARK  status: ('A' for Active; 'I' for Inactive)
REMARK    1  A    between atoms: O_1  and  C_21
REMARK    2  A    between atoms: O_1  and  C_38
REMARK    3  A    between atoms: O_4  and  C_26
REMARK    4  A    between atoms: N_7  and  C_11
REMARK    5  A    between atoms: C_26  and  C_33
REMARK    6  A    between atoms: C_29  and  C_37
REMARK    7  A    between atoms: C_33  and  C_42
REMARK    8  A    between atoms: C_37  and  C_43
REMARK                            x       y       z     vdW  Elec       q    Type
REMARK                         _______ _______ _______ _____ _____    ______ ____
ROOT
ATOM      1  O   UNL     1       3.551 -18.807  14.329  0.00  0.00    +0.000 OA
ATOM      2  O   UNL     1       7.199 -17.369  12.789  0.00  0.00    +0.000 OA
ATOM      3  O   UNL     1       1.755 -18.091  15.475  0.00  0.00    +0.000 OA
ATOM      4  N   UNL     1       6.349 -15.254  12.523  0.00  0.00    +0.000 N 
ATOM      5  N   UNL     1       5.032 -11.951  12.050  0.00  0.00    +0.000 NA
ATOM      6  C   UNL     1       5.286 -14.374  12.561  0.00  0.00    +0.000 A 
ATOM      7  C   UNL     1       7.127 -13.170  11.873  0.00  0.00    +0.000 A 
ATOM      8  C   UNL     1       7.580 -14.583  12.095  0.00  0.00    +0.000 C 
ATOM      9  C   UNL     1       3.860 -16.173  13.293  0.00  0.00    +0.000 A 
ATOM     10  C   UNL     1       2.482 -16.661  13.664  0.00  0.00    +0.000 C 
ATOM     11  C   UNL     1       5.769 -13.060  12.150  0.00  0.00    +0.000 A 
ATOM     12  C   UNL     1       4.893 -17.038  13.258  0.00  0.00    +0.000 A 
ATOM     13  C   UNL     1       7.825 -12.046  11.454  0.00  0.00    +0.000 A 
ATOM     14  C   UNL     1       4.065 -14.776  12.926  0.00  0.00    +0.000 A 
ATOM     15  C   UNL     1       6.258 -16.584  12.841  0.00  0.00    +0.000 A 
ATOM     16  C   UNL     1       7.082 -10.838  11.316  0.00  0.00    +0.000 A 
ATOM     17  C   UNL     1       4.754 -18.479  13.604  0.00  0.00    +0.000 C 
ATOM     18  C   UNL     1       5.685 -10.856  11.634  0.00  0.00    +0.000 A 
ATOM     19  C   UNL     1       2.581 -17.902  14.580  0.00  0.00    +0.000 C 
ATOM     20  C   UNL     1       6.866  -8.477  10.753  0.00  0.00    +0.000 A 
ATOM     21  C   UNL     1       7.651  -9.622  10.879  0.00  0.00    +0.000 A 
ATOM     22  C   UNL     1       4.947  -9.685  11.514  0.00  0.00    +0.000 A 
ATOM     23  C   UNL     1       5.522  -8.489  11.083  0.00  0.00    +0.000 A 
ENDROOT
BRANCH  10  24
ATOM     24  O   UNL     1       1.804 -15.621  14.383  0.00  0.00    +0.000 OA
ATOM     25  H   UNL     1       2.478 -14.939  14.577  0.00  0.00    +0.000 HD
ENDBRANCH  10  24
BRANCH  10  26
ATOM     26  C   UNL     1       1.671 -17.005  12.397  0.00  0.00    +0.000 C 
ATOM     27  C   UNL     1       2.520 -17.369  11.181  0.00  0.00    +0.000 C 
ENDBRANCH  10  26
BRANCH  13  28
ATOM     28  C   UNL     1       9.297 -12.153  11.136  0.00  0.00    +0.000 C 
ATOM     29  C   UNL     1      10.167 -11.945  12.367  0.00  0.00    +0.000 C 
ENDBRANCH  13  28
BRANCH  20  30
ATOM     30  O   UNL     1       7.468  -7.281  10.361  0.00  0.00    +0.000 OA
BRANCH  30  38
ATOM     31  O   UNL     1       6.426  -7.000   8.311  0.00  0.00    +0.000 OA
ATOM     32  N   UNL     1       6.396  -5.296   9.860  0.00  0.00    +0.000 N 
ATOM     33  C   UNL     1       6.528  -2.400  10.260  0.00  0.00    +0.000 C 
ATOM     34  C   UNL     1       7.359  -3.406  11.096  0.00  0.00    +0.000 C 
ATOM     35  C   UNL     1       6.216  -3.049   8.888  0.00  0.00    +0.000 C 
ATOM     36  C   UNL     1       6.703  -4.781  11.183  0.00  0.00    +0.000 C 
ATOM     37  C   UNL     1       5.584  -4.430   9.026  0.00  0.00    +0.000 C 
ATOM     38  C   UNL     1       6.735  -6.566   9.417  0.00  0.00    +0.000 C 
BRANCH  33  39
ATOM     39  N   UNL     1       7.226  -1.085  10.108  0.00  0.00    +0.000 NA
ATOM     40  C   UNL     1       8.060  -1.037   8.888  0.00  0.00    +0.000 C 
ATOM     41  C   UNL     1       6.282   0.053  10.117  0.00  0.00    +0.000 C 
ATOM     42  C   UNL     1       8.806   0.290   8.730  0.00  0.00    +0.000 C 
ATOM     43  C   UNL     1       6.983   1.407   9.988  0.00  0.00    +0.000 C 
ATOM     44  C   UNL     1       7.850   1.471   8.744  0.00  0.00    +0.000 C 
ENDBRANCH  33  39
ENDBRANCH  30  38
ENDBRANCH  20  30
TORSDOF 6
ENDMDL
MODEL 2
REMARK VINA RESULT:      -7.3     15.695     17.833
REMARK  Name = 
REMARK  8 active torsions:
REMARK  status: ('A' for Active; 'I' for Inactive)
REMARK    1  A    between atoms: O_1  and  C_21
REMARK    2  A    between atoms: O_1  and  C_38
REMARK    3  A    between atoms: O_4  and  C_26
REMARK    4  A    between atoms: N_7  and  C_11
REMARK    5  A    between atoms: C_26  and  C_33
REMARK    6  A    between atoms: C_29  and  C_37
REMARK    7  A    between atoms: C_33  and  C_42
REMARK    8  A    between atoms: C_37  and  C_43
REMARK                            x       y       z     vdW  Elec       q    Type
REMARK                         _______ _______ _______ _____ _____    ______ ____
ROOT
ATOM      1  O   UNL     1      -1.924 -21.394   4.017  0.00  0.00    +0.000 OA
ATOM      2  O   UNL     1      -3.901 -19.925   0.599  0.00  0.00    +0.000 OA
ATOM      3  O   UNL     1      -1.288 -20.727   6.067  0.00  0.00    +0.000 OA
ATOM      4  N   UNL     1      -5.155 -18.465   1.849  0.00  0.00    +0.000 N 
ATOM      5  N   UNL     1      -7.164 -16.209   3.783  0.00  0.00    +0.000 NA
ATOM      6  C   UNL     1      -5.559 -17.974   3.074  0.00  0.00    +0.000 A 
ATOM      7  C   UNL     1      -6.705 -16.784   1.468  0.00  0.00    +0.000 A 
ATOM      8  C   UNL     1      -5.830 -17.770   0.749  0.00  0.00    +0.000 C 
ATOM      9  C   UNL     1      -4.083 -19.542   4.156  0.00  0.00    +0.000 A 
ATOM     10  C   UNL     1      -3.549 -20.146   5.430  0.00  0.00    +0.000 C 
ATOM     11  C   UNL     1      -6.536 -16.917   2.841  0.00  0.00    +0.000 A 
ATOM     12  C   UNL     1      -3.685 -20.027   2.963  0.00  0.00    +0.000 A 
ATOM     13  C   UNL     1      -7.596 -15.837   0.983  0.00  0.00    +0.000 A 
ATOM     14  C   UNL     1      -5.067 -18.467   4.215  0.00  0.00    +0.000 A 
ATOM     15  C   UNL     1      -4.245 -19.476   1.687  0.00  0.00    +0.000 A 
ATOM     16  C   UNL     1      -8.305 -15.064   1.948  0.00  0.00    +0.000 A 
ATOM     17  C   UNL     1      -2.698 -21.132   2.828  0.00  0.00    +0.000 C 
ATOM     18  C   UNL     1      -8.040 -15.296   3.337  0.00  0.00    +0.000 A 
ATOM     19  C   UNL     1      -2.151 -20.759   5.187  0.00  0.00    +0.000 C 
ATOM     20  C   UNL     1      -9.926 -13.366   2.599  0.00  0.00    +0.000 A 
ATOM     21  C   UNL     1      -9.257 -14.080   1.606  0.00  0.00    +0.000 A 
ATOM     22  C   UNL     1      -8.716 -14.545   4.291  0.00  0.00    +0.000 A 
ATOM     23  C   UNL     1      -9.653 -13.574   3.940  0.00  0.00    +0.000 A 
ENDROOT
BRANCH  10  24
ATOM     24  O   UNL     1      -3.422 -19.109   6.413  0.00  0.00    +0.000 OA
ATOM     25  H   UNL     1      -4.327 -18.930   6.739  0.00  0.00    +0.000 HD
ENDBRANCH  10  24
BRANCH  10  26
ATOM     26  C   UNL     1      -4.513 -21.227   5.963  0.00  0.00    +0.000 C 
ATOM     27  C   UNL     1      -5.187 -20.877   7.287  0.00  0.00    +0.000 C 
ENDBRANCH  10  26
BRANCH  13  28
ATOM     28  C   UNL     1      -7.800 -15.692  -0.506  0.00  0.00    +0.000 C 
ATOM     29  C   UNL     1      -6.808 -14.720  -1.128  0.00  0.00    +0.000 C 
ENDBRANCH  13  28
BRANCH  20  30
ATOM     30  O   UNL     1     -10.830 -12.369   2.228  0.00  0.00    +0.000 OA
BRANCH  30  38
ATOM     31  O   UNL     1      -9.108 -10.833   2.034  0.00  0.00    +0.000 OA
ATOM     32  N   UNL     1     -11.238 -10.116   2.535  0.00  0.00    +0.000 N 
ATOM     33  C   UNL     1     -12.843  -8.220   4.081  0.00  0.00    +0.000 C 
ATOM     34  C   UNL     1     -13.159  -9.735   4.016  0.00  0.00    +0.000 C 
ATOM     35  C   UNL     1     -11.328  -8.027   3.820  0.00  0.00    +0.000 C 
ATOM     36  C   UNL     1     -12.652 -10.386   2.733  0.00  0.00    +0.000 C 
ATOM     37  C   UNL     1     -10.864  -8.715   2.540  0.00  0.00    +0.000 C 
ATOM     38  C   UNL     1     -10.291 -11.086   2.245  0.00  0.00    +0.000 C 
BRANCH  33  39
ATOM     39  N   UNL     1     -13.265  -7.613   5.383  0.00  0.00    +0.000 NA
ATOM     40  C   UNL     1     -14.497  -6.807   5.246  0.00  0.00    +0.000 C 
ATOM     41  C   UNL     1     -13.444  -8.628   6.442  0.00  0.00    +0.000 C 
ATOM     42  C   UNL     1     -14.928  -6.152   6.561  0.00  0.00    +0.000 C 
ATOM     43  C   UNL     1     -13.849  -8.020   7.786  0.00  0.00    +0.000 C 
ATOM     44  C   UNL     1     -15.110  -7.182   7.662  0.00  0.00    +0.000 C 
ENDBRANCH  33  39
ENDBRANCH  30  38
ENDBRANCH  20  30
TORSDOF 6
ENDMDL
MODEL 3
REMARK VINA RESULT:      -6.9     27.199     29.790
REMARK  Name = 
REMARK  8 active torsions:
REMARK  status: ('A' for Active; 'I' for Inactive)
REMARK    1  A    between atoms: O_1  and  C_21
REMARK    2  A    between atoms: O_1  and  C_38
REMARK    3  A    between atoms: O_4  and  C_26
REMARK    4  A    between atoms: N_7  and  C_11
REMARK    5  A    between atoms: C_26  and  C_33
REMARK    6  A    between atoms: C_29  and  C_37
REMARK    7  A    between atoms: C_33  and  C_42
REMARK    8  A    between atoms: C_37  and  C_43
REMARK                            x       y       z     vdW  Elec       q    Type
REMARK                         _______ _______ _______ _____ _____    ______ ____
ROOT
ATOM      1  O   UNL     1     -19.241   0.706  29.268  0.00  0.00    +0.000 OA
ATOM      2  O   UNL     1     -18.857   2.104  25.313  0.00  0.00    +0.000 OA
ATOM      3  O   UNL     1     -20.287  -0.901  30.440  0.00  0.00    +0.000 OA
ATOM      4  N   UNL     1     -19.227   0.010  24.448  0.00  0.00    +0.000 N 
ATOM      5  N   UNL     1     -19.752  -3.260  23.071  0.00  0.00    +0.000 NA
ATOM      6  C   UNL     1     -19.413  -1.345  24.625  0.00  0.00    +0.000 A 
ATOM      7  C   UNL     1     -19.470  -0.955  22.355  0.00  0.00    +0.000 A 
ATOM      8  C   UNL     1     -19.247   0.369  23.027  0.00  0.00    +0.000 C 
ATOM      9  C   UNL     1     -19.251  -1.027  27.008  0.00  0.00    +0.000 A 
ATOM     10  C   UNL     1     -19.220  -1.624  28.393  0.00  0.00    +0.000 C 
ATOM     11  C   UNL     1     -19.565  -1.959  23.311  0.00  0.00    +0.000 A 
ATOM     12  C   UNL     1     -19.068   0.298  26.842  0.00  0.00    +0.000 A 
ATOM     13  C   UNL     1     -19.579  -1.286  21.011  0.00  0.00    +0.000 A 
ATOM     14  C   UNL     1     -19.430  -1.890  25.846  0.00  0.00    +0.000 A 
ATOM     15  C   UNL     1     -19.042   0.902  25.472  0.00  0.00    +0.000 A 
ATOM     16  C   UNL     1     -19.765  -2.663  20.699  0.00  0.00    +0.000 A 
ATOM     17  C   UNL     1     -18.863   1.235  27.980  0.00  0.00    +0.000 C 
ATOM     18  C   UNL     1     -19.847  -3.603  21.777  0.00  0.00    +0.000 A 
ATOM     19  C   UNL     1     -19.648  -0.570  29.440  0.00  0.00    +0.000 C 
ATOM     20  C   UNL     1     -20.039  -4.515  19.139  0.00  0.00    +0.000 A 
ATOM     21  C   UNL     1     -19.871  -3.153  19.379  0.00  0.00    +0.000 A 
ATOM     22  C   UNL     1     -20.038  -4.949  21.491  0.00  0.00    +0.000 A 
ATOM     23  C   UNL     1     -20.143  -5.420  20.182  0.00  0.00    +0.000 A 
ENDROOT
BRANCH  10  24
ATOM     24  O   UNL     1     -20.149  -2.715  28.444  0.00  0.00    +0.000 OA
ATOM     25  H   UNL     1     -19.749  -3.387  29.032  0.00  0.00    +0.000 HD
ENDBRANCH  10  24
BRANCH  10  26
ATOM     26  C   UNL     1     -17.808  -2.152  28.723  0.00  0.00    +0.000 C 
ATOM     27  C   UNL     1     -17.665  -3.669  28.646  0.00  0.00    +0.000 C 
ENDBRANCH  10  26
BRANCH  13  28
ATOM     28  C   UNL     1     -19.464  -0.207  19.962  0.00  0.00    +0.000 C 
ATOM     29  C   UNL     1     -20.824   0.321  19.531  0.00  0.00    +0.000 C 
ENDBRANCH  13  28
BRANCH  20  30
ATOM     30  O   UNL     1     -20.184  -4.961  17.825  0.00  0.00    +0.000 OA
BRANCH  30  38
ATOM     31  O   UNL     1     -17.908  -5.368  17.697  0.00  0.00    +0.000 OA
ATOM     32  N   UNL     1     -19.360  -6.515  16.326  0.00  0.00    +0.000 N 
ATOM     33  C   UNL     1     -19.777  -7.637  13.656  0.00  0.00    +0.000 C 
ATOM     34  C   UNL     1     -20.838  -6.772  14.381  0.00  0.00    +0.000 C 
ATOM     35  C   UNL     1     -18.378  -7.250  14.200  0.00  0.00    +0.000 C 
ATOM     36  C   UNL     1     -20.711  -6.840  15.901  0.00  0.00    +0.000 C 
ATOM     37  C   UNL     1     -18.308  -7.309  15.722  0.00  0.00    +0.000 C 
ATOM     38  C   UNL     1     -19.054  -5.596  17.318  0.00  0.00    +0.000 C 
BRANCH  33  39
ATOM     39  N   UNL     1     -19.854  -7.491  12.168  0.00  0.00    +0.000 NA
ATOM     40  C   UNL     1     -21.121  -6.861  11.737  0.00  0.00    +0.000 C 
ATOM     41  C   UNL     1     -18.707  -6.738  11.619  0.00  0.00    +0.000 C 
ATOM     42  C   UNL     1     -21.233  -6.731  10.216  0.00  0.00    +0.000 C 
ATOM     43  C   UNL     1     -18.758  -6.604  10.095  0.00  0.00    +0.000 C 
ATOM     44  C   UNL     1     -20.057  -5.965   9.635  0.00  0.00    +0.000 C 
ENDBRANCH  33  39
ENDBRANCH  30  38
ENDBRANCH  20  30
TORSDOF 6
ENDMDL
MODEL 4
REMARK VINA RESULT:      -6.8     14.872     21.631
REMARK  Name = 
REMARK  8 active torsions:
REMARK  status: ('A' for Active; 'I' for Inactive)
REMARK    1  A    between atoms: O_1  and  C_21
REMARK    2  A    between atoms: O_1  and  C_38
REMARK    3  A    between atoms: O_4  and  C_26
REMARK    4  A    between atoms: N_7  and  C_11
REMARK    5  A    between atoms: C_26  and  C_33
REMARK    6  A    between atoms: C_29  and  C_37
REMARK    7  A    between atoms: C_33  and  C_42
REMARK    8  A    between atoms: C_37  and  C_43
REMARK                            x       y       z     vdW  Elec       q    Type
REMARK                         _______ _______ _______ _____ _____    ______ ____
ROOT
ATOM      1  O   UNL     1      -6.309  11.497  11.843  0.00  0.00    +0.000 OA
ATOM      2  O   UNL     1      -2.285  10.687  12.793  0.00  0.00    +0.000 OA
ATOM      3  O   UNL     1      -7.572  12.199  10.122  0.00  0.00    +0.000 OA
ATOM      4  N   UNL     1      -1.796  10.138  10.619  0.00  0.00    +0.000 N 
ATOM      5  N   UNL     1      -1.014   9.227   7.239  0.00  0.00    +0.000 NA
ATOM      6  C   UNL     1      -2.199   9.905   9.320  0.00  0.00    +0.000 A 
ATOM      7  C   UNL     1       0.078   9.558   9.384  0.00  0.00    +0.000 A 
ATOM      8  C   UNL     1      -0.351   9.945  10.770  0.00  0.00    +0.000 C 
ATOM      9  C   UNL     1      -4.465  10.413   9.964  0.00  0.00    +0.000 A 
ATOM     10  C   UNL     1      -5.923  10.510   9.592  0.00  0.00    +0.000 C 
ATOM     11  C   UNL     1      -1.024   9.538   8.538  0.00  0.00    +0.000 A 
ATOM     12  C   UNL     1      -4.078  10.642  11.234  0.00  0.00    +0.000 A 
ATOM     13  C   UNL     1       1.329   9.238   8.876  0.00  0.00    +0.000 A 
ATOM     14  C   UNL     1      -3.480  10.025   8.960  0.00  0.00    +0.000 A 
ATOM     15  C   UNL     1      -2.642  10.498  11.635  0.00  0.00    +0.000 A 
ATOM     16  C   UNL     1       1.394   8.884   7.497  0.00  0.00    +0.000 A 
ATOM     17  C   UNL     1      -5.029  11.026  12.313  0.00  0.00    +0.000 C 
ATOM     18  C   UNL     1       0.184   8.901   6.730  0.00  0.00    +0.000 A 
ATOM     19  C   UNL     1      -6.654  11.490  10.538  0.00  0.00    +0.000 C 
ATOM     20  C   UNL     1       2.585   8.166   5.496  0.00  0.00    +0.000 A 
ATOM     21  C   UNL     1       2.591   8.514   6.846  0.00  0.00    +0.000 A 
ATOM     22  C   UNL     1       0.230   8.567   5.382  0.00  0.00    +0.000 A 
ATOM     23  C   UNL     1       1.420   8.206   4.750  0.00  0.00    +0.000 A 
ENDROOT
BRANCH  10  24
ATOM     24  O   UNL     1      -6.024  11.015   8.253  0.00  0.00    +0.000 OA
ATOM     25  H   UNL     1      -5.118  11.271   7.988  0.00  0.00    +0.000 HD
ENDBRANCH  10  24
BRANCH  10  26
ATOM     26  C   UNL     1      -6.591   9.120   9.655  0.00  0.00    +0.000 C 
ATOM     27  C   UNL     1      -7.602   8.852   8.544  0.00  0.00    +0.000 C 
ENDBRANCH  10  26
BRANCH  13  28
ATOM     28  C   UNL     1       2.533   9.244   9.786  0.00  0.00    +0.000 C 
ATOM     29  C   UNL     1       3.101  10.642   9.979  0.00  0.00    +0.000 C 
ENDBRANCH  13  28
BRANCH  20  30
ATOM     30  O   UNL     1       3.792   7.848   4.871  0.00  0.00    +0.000 OA
BRANCH  30  38
ATOM     31  O   UNL     1       3.401   5.934   3.626  0.00  0.00    +0.000 OA
ATOM     32  N   UNL     1       4.744   5.837   5.495  0.00  0.00    +0.000 N 
ATOM     33  C   UNL     1       5.528   4.242   7.820  0.00  0.00    +0.000 C 
ATOM     34  C   UNL     1       5.180   5.749   7.910  0.00  0.00    +0.000 C 
ATOM     35  C   UNL     1       4.788   3.644   6.597  0.00  0.00    +0.000 C 
ATOM     36  C   UNL     1       5.429   6.489   6.598  0.00  0.00    +0.000 C 
ATOM     37  C   UNL     1       5.047   4.430   5.316  0.00  0.00    +0.000 C 
ATOM     38  C   UNL     1       3.934   6.494   4.580  0.00  0.00    +0.000 C 
BRANCH  33  39
ATOM     39  N   UNL     1       5.196   3.512   9.083  0.00  0.00    +0.000 NA
ATOM     40  C   UNL     1       5.875   2.201   9.162  0.00  0.00    +0.000 C 
ATOM     41  C   UNL     1       5.503   4.310  10.288  0.00  0.00    +0.000 C 
ATOM     42  C   UNL     1       5.524   1.424  10.434  0.00  0.00    +0.000 C 
ATOM     43  C   UNL     1       5.143   3.587  11.589  0.00  0.00    +0.000 C 
ATOM     44  C   UNL     1       5.827   2.235  11.682  0.00  0.00    +0.000 C 
ENDBRANCH  33  39
ENDBRANCH  30  38
ENDBRANCH  20  30
TORSDOF 6
ENDMDL
MODEL 5
REMARK VINA RESULT:      -6.5     14.203     18.253
REMARK  Name = 
REMARK  8 active torsions:
REMARK  status: ('A' for Active; 'I' for Inactive)
REMARK    1  A    between atoms: O_1  and  C_21
REMARK    2  A    between atoms: O_1  and  C_38
REMARK    3  A    between atoms: O_4  and  C_26
REMARK    4  A    between atoms: N_7  and  C_11
REMARK    5  A    between atoms: C_26  and  C_33
REMARK    6  A    between atoms: C_29  and  C_37
REMARK    7  A    between atoms: C_33  and  C_42
REMARK    8  A    between atoms: C_37  and  C_43
REMARK                            x       y       z     vdW  Elec       q    Type
REMARK                         _______ _______ _______ _____ _____    ______ ____
ROOT
ATOM      1  O   UNL     1       2.058 -20.874   4.644  0.00  0.00    +0.000 OA
ATOM      2  O   UNL     1      -1.424 -20.430   2.314  0.00  0.00    +0.000 OA
ATOM      3  O   UNL     1       2.911 -20.226   6.620  0.00  0.00    +0.000 OA
ATOM      4  N   UNL     1      -2.736 -20.160   4.177  0.00  0.00    +0.000 N 
ATOM      5  N   UNL     1      -4.819 -19.783   7.073  0.00  0.00    +0.000 NA
ATOM      6  C   UNL     1      -2.888 -20.159   5.549  0.00  0.00    +0.000 A 
ATOM      7  C   UNL     1      -4.954 -19.680   4.649  0.00  0.00    +0.000 A 
ATOM      8  C   UNL     1      -4.003 -19.861   3.502  0.00  0.00    +0.000 C 
ATOM      9  C   UNL     1      -0.547 -20.681   5.778  0.00  0.00    +0.000 A 
ATOM     10  C   UNL     1       0.623 -21.010   6.672  0.00  0.00    +0.000 C 
ATOM     11  C   UNL     1      -4.283 -19.860   5.852  0.00  0.00    +0.000 A 
ATOM     12  C   UNL     1      -0.392 -20.683   4.439  0.00  0.00    +0.000 A 
ATOM     13  C   UNL     1      -6.311 -19.386   4.667  0.00  0.00    +0.000 A 
ATOM     14  C   UNL     1      -1.856 -20.408   6.360  0.00  0.00    +0.000 A 
ATOM     15  C   UNL     1      -1.553 -20.412   3.533  0.00  0.00    +0.000 A 
ATOM     16  C   UNL     1      -6.936 -19.307   5.945  0.00  0.00    +0.000 A 
ATOM     17  C   UNL     1       0.910 -20.969   3.776  0.00  0.00    +0.000 C 
ATOM     18  C   UNL     1      -6.133 -19.512   7.113  0.00  0.00    +0.000 A 
ATOM     19  C   UNL     1       1.952 -20.648   5.971  0.00  0.00    +0.000 C 
ATOM     20  C   UNL     1      -8.866 -18.986   7.398  0.00  0.00    +0.000 A 
ATOM     21  C   UNL     1      -8.311 -19.037   6.121  0.00  0.00    +0.000 A 
ATOM     22  C   UNL     1      -6.725 -19.430   8.367  0.00  0.00    +0.000 A 
ATOM     23  C   UNL     1      -8.084 -19.161   8.528  0.00  0.00    +0.000 A 
ENDROOT
BRANCH  10  24
ATOM     24  O   UNL     1       0.518 -20.231   7.872  0.00  0.00    +0.000 OA
ATOM     25  H   UNL     1       1.295 -19.637   7.880  0.00  0.00    +0.000 HD
ENDBRANCH  10  24
BRANCH  10  26
ATOM     26  C   UNL     1       0.615 -22.508   7.044  0.00  0.00    +0.000 C 
ATOM     27  C   UNL     1       0.687 -22.788   8.542  0.00  0.00    +0.000 C 
ENDBRANCH  10  26
BRANCH  13  28
ATOM     28  C   UNL     1      -7.056 -19.201   3.367  0.00  0.00    +0.000 C 
ATOM     29  C   UNL     1      -7.011 -17.761   2.880  0.00  0.00    +0.000 C 
ENDBRANCH  13  28
BRANCH  20  30
ATOM     30  O   UNL     1     -10.219 -18.674   7.540  0.00  0.00    +0.000 OA
BRANCH  30  38
ATOM     31  O   UNL     1     -11.191 -20.430   8.697  0.00  0.00    +0.000 OA
ATOM     32  N   UNL     1     -10.957 -18.374   9.709  0.00  0.00    +0.000 N 
ATOM     33  C   UNL     1     -12.181 -16.423  11.514  0.00  0.00    +0.000 C 
ATOM     34  C   UNL     1     -11.565 -16.035  10.145  0.00  0.00    +0.000 C 
ATOM     35  C   UNL     1     -12.628 -17.905  11.444  0.00  0.00    +0.000 C 
ATOM     36  C   UNL     1     -10.474 -17.004   9.697  0.00  0.00    +0.000 C 
ATOM     37  C   UNL     1     -11.512 -18.830  10.969  0.00  0.00    +0.000 C 
ATOM     38  C   UNL     1     -10.818 -19.260   8.651  0.00  0.00    +0.000 C 
BRANCH  33  39
ATOM     39  N   UNL     1     -13.310 -15.518  11.899  0.00  0.00    +0.000 NA
ATOM     40  C   UNL     1     -14.357 -15.463  10.856  0.00  0.00    +0.000 C 
ATOM     41  C   UNL     1     -13.911 -15.895  13.195  0.00  0.00    +0.000 C 
ATOM     42  C   UNL     1     -15.506 -14.519  11.218  0.00  0.00    +0.000 C 
ATOM     43  C   UNL     1     -15.049 -14.963  13.616  0.00  0.00    +0.000 C 
ATOM     44  C   UNL     1     -16.131 -14.889  12.552  0.00  0.00    +0.000 C 
ENDBRANCH  33  39
ENDBRANCH  30  38
ENDBRANCH  20  30
TORSDOF 6
ENDMDL
MODEL 6
REMARK VINA RESULT:      -6.4     24.293     28.176
REMARK  Name = 
REMARK  8 active torsions:
REMARK  status: ('A' for Active; 'I' for Inactive)
REMARK    1  A    between atoms: O_1  and  C_21
REMARK    2  A    between atoms: O_1  and  C_38
REMARK    3  A    between atoms: O_4  and  C_26
REMARK    4  A    between atoms: N_7  and  C_11
REMARK    5  A    between atoms: C_26  and  C_33
REMARK    6  A    between atoms: C_29  and  C_37
REMARK    7  A    between atoms: C_33  and  C_42
REMARK    8  A    between atoms: C_37  and  C_43
REMARK                            x       y       z     vdW  Elec       q    Type
REMARK                         _______ _______ _______ _____ _____    ______ ____
ROOT
ATOM      1  O   UNL     1     -20.690   4.697  10.837  0.00  0.00    +0.000 OA
ATOM      2  O   UNL     1     -19.202   8.043  12.919  0.00  0.00    +0.000 OA
ATOM      3  O   UNL     1     -20.057   2.639  10.193  0.00  0.00    +0.000 OA
ATOM      4  N   UNL     1     -17.825   6.734  14.206  0.00  0.00    +0.000 N 
ATOM      5  N   UNL     1     -15.698   4.709  16.266  0.00  0.00    +0.000 NA
ATOM      6  C   UNL     1     -17.382   5.490  14.608  0.00  0.00    +0.000 A 
ATOM      7  C   UNL     1     -16.193   7.046  15.823  0.00  0.00    +0.000 A 
ATOM      8  C   UNL     1     -17.125   7.804  14.923  0.00  0.00    +0.000 C 
ATOM      9  C   UNL     1     -18.924   4.475  13.060  0.00  0.00    +0.000 A 
ATOM     10  C   UNL     1     -19.542   3.226  12.483  0.00  0.00    +0.000 C 
ATOM     11  C   UNL     1     -16.356   5.680  15.627  0.00  0.00    +0.000 A 
ATOM     12  C   UNL     1     -19.361   5.686  12.663  0.00  0.00    +0.000 A 
ATOM     13  C   UNL     1     -15.266   7.491  16.755  0.00  0.00    +0.000 A 
ATOM     14  C   UNL     1     -17.888   4.371  14.081  0.00  0.00    +0.000 A 
ATOM     15  C   UNL     1     -18.797   6.938  13.262  0.00  0.00    +0.000 A 
ATOM     16  C   UNL     1     -14.547   6.494  17.476  0.00  0.00    +0.000 A 
ATOM     17  C   UNL     1     -20.425   5.867  11.638  0.00  0.00    +0.000 C 
ATOM     18  C   UNL     1     -14.807   5.117  17.182  0.00  0.00    +0.000 A 
ATOM     19  C   UNL     1     -20.097   3.506  11.068  0.00  0.00    +0.000 C 
ATOM     20  C   UNL     1     -12.928   5.773  19.148  0.00  0.00    +0.000 A 
ATOM     21  C   UNL     1     -13.589   6.794  18.469  0.00  0.00    +0.000 A 
ATOM     22  C   UNL     1     -14.108   4.132  17.869  0.00  0.00    +0.000 A 
ATOM     23  C   UNL     1     -13.162   4.442  18.847  0.00  0.00    +0.000 A 
ENDROOT
BRANCH  10  24
ATOM     24  O   UNL     1     -18.529   2.216  12.379  0.00  0.00    +0.000 OA
ATOM     25  H   UNL     1     -18.863   1.442  12.875  0.00  0.00    +0.000 HD
ENDBRANCH  10  24
BRANCH  10  26
ATOM     26  C   UNL     1     -20.672   2.709  13.399  0.00  0.00    +0.000 C 
ATOM     27  C   UNL     1     -21.731   1.872  12.687  0.00  0.00    +0.000 C 
ENDBRANCH  10  26
BRANCH  13  28
ATOM     28  C   UNL     1     -15.088   8.972  16.987  0.00  0.00    +0.000 C 
ATOM     29  C   UNL     1     -14.050   9.578  16.054  0.00  0.00    +0.000 C 
ENDBRANCH  13  28
BRANCH  20  30
ATOM     30  O   UNL     1     -11.956   6.103  20.094  0.00  0.00    +0.000 OA
BRANCH  30  38
ATOM     31  O   UNL     1     -13.292   6.470  21.950  0.00  0.00    +0.000 OA
ATOM     32  N   UNL     1     -11.571   4.943  22.055  0.00  0.00    +0.000 N 
ATOM     33  C   UNL     1      -9.451   3.812  23.725  0.00  0.00    +0.000 C 
ATOM     34  C   UNL     1      -9.220   4.262  22.260  0.00  0.00    +0.000 C 
ATOM     35  C   UNL     1     -10.638   4.623  24.303  0.00  0.00    +0.000 C 
ATOM     36  C   UNL     1     -10.493   4.203  21.421  0.00  0.00    +0.000 C 
ATOM     37  C   UNL     1     -11.878   4.554  23.418  0.00  0.00    +0.000 C 
ATOM     38  C   UNL     1     -12.355   5.888  21.410  0.00  0.00    +0.000 C 
BRANCH  33  39
ATOM     39  N   UNL     1      -8.217   3.960  24.559  0.00  0.00    +0.000 NA
ATOM     40  C   UNL     1      -6.991   4.009  23.734  0.00  0.00    +0.000 C 
ATOM     41  C   UNL     1      -8.277   5.145  25.440  0.00  0.00    +0.000 C 
ATOM     42  C   UNL     1      -5.715   4.129  24.571  0.00  0.00    +0.000 C 
ATOM     43  C   UNL     1      -7.033   5.296  26.319  0.00  0.00    +0.000 C 
ATOM     44  C   UNL     1      -5.764   5.340  25.487  0.00  0.00    +0.000 C 
ENDBRANCH  33  39
ENDBRANCH  30  38
ENDBRANCH  20  30
TORSDOF 6
ENDMDL
MODEL 7
REMARK VINA RESULT:      -6.2      2.445      3.764
REMARK  Name = 
REMARK  8 active torsions:
REMARK  status: ('A' for Active; 'I' for Inactive)
REMARK    1  A    between atoms: O_1  and  C_21
REMARK    2  A    between atoms: O_1  and  C_38
REMARK    3  A    between atoms: O_4  and  C_26
REMARK    4  A    between atoms: N_7  and  C_11
REMARK    5  A    between atoms: C_26  and  C_33
REMARK    6  A    between atoms: C_29  and  C_37
REMARK    7  A    between atoms: C_33  and  C_42
REMARK    8  A    between atoms: C_37  and  C_43
REMARK                            x       y       z     vdW  Elec       q    Type
REMARK                         _______ _______ _______ _____ _____    ______ ____
ROOT
ATOM      1  O   UNL     1       3.150 -22.662  12.513  0.00  0.00    +0.000 OA
ATOM      2  O   UNL     1       6.839 -20.636  12.707  0.00  0.00    +0.000 OA
ATOM      3  O   UNL     1       0.980 -22.354  13.007  0.00  0.00    +0.000 OA
ATOM      4  N   UNL     1       5.821 -18.590  12.497  0.00  0.00    +0.000 N 
ATOM      5  N   UNL     1       4.261 -15.382  12.122  0.00  0.00    +0.000 NA
ATOM      6  C   UNL     1       4.691 -17.828  12.281  0.00  0.00    +0.000 A 
ATOM      7  C   UNL     1       6.447 -16.358  12.540  0.00  0.00    +0.000 A 
ATOM      8  C   UNL     1       7.005 -17.745  12.678  0.00  0.00    +0.000 C 
ATOM      9  C   UNL     1       3.394 -19.852  12.119  0.00  0.00    +0.000 A 
ATOM     10  C   UNL     1       2.066 -20.519  11.863  0.00  0.00    +0.000 C 
ATOM     11  C   UNL     1       5.078 -16.422  12.304  0.00  0.00    +0.000 A 
ATOM     12  C   UNL     1       4.493 -20.602  12.330  0.00  0.00    +0.000 A 
ATOM     13  C   UNL     1       7.066 -15.118  12.604  0.00  0.00    +0.000 A 
ATOM     14  C   UNL     1       3.497 -18.398  12.092  0.00  0.00    +0.000 A 
ATOM     15  C   UNL     1       5.831 -19.960  12.533  0.00  0.00    +0.000 A 
ATOM     16  C   UNL     1       6.241 -13.974  12.401  0.00  0.00    +0.000 A 
ATOM     17  C   UNL     1       4.465 -22.090  12.355  0.00  0.00    +0.000 C 
ATOM     18  C   UNL     1       4.842 -14.173  12.167  0.00  0.00    +0.000 A 
ATOM     19  C   UNL     1       2.027 -21.913  12.531  0.00  0.00    +0.000 C 
ATOM     20  C   UNL     1       5.876 -11.573  12.197  0.00  0.00    +0.000 A 
ATOM     21  C   UNL     1       6.733 -12.650  12.416  0.00  0.00    +0.000 A 
ATOM     22  C   UNL     1       4.022 -13.068  11.976  0.00  0.00    +0.000 A 
ATOM     23  C   UNL     1       4.519 -11.765  11.995  0.00  0.00    +0.000 A 
ENDROOT
BRANCH  10  24
ATOM     24  O   UNL     1       1.027 -19.714  12.438  0.00  0.00    +0.000 OA
ATOM     25  H   UNL     1       1.362 -19.418  13.308  0.00  0.00    +0.000 HD
ENDBRANCH  10  24
BRANCH  10  26
ATOM     26  C   UNL     1       1.813 -20.655  10.346  0.00  0.00    +0.000 C 
ATOM     27  C   UNL     1       0.490 -21.324   9.982  0.00  0.00    +0.000 C 
ENDBRANCH  10  26
BRANCH  13  28
ATOM     28  C   UNL     1       8.554 -15.034  12.846  0.00  0.00    +0.000 C 
ATOM     29  C   UNL     1       9.350 -15.099  11.551  0.00  0.00    +0.000 C 
ENDBRANCH  13  28
BRANCH  20  30
ATOM     30  O   UNL     1       6.384 -10.276  12.262  0.00  0.00    +0.000 OA
BRANCH  30  38
ATOM     31  O   UNL     1       6.925 -10.187  10.012  0.00  0.00    +0.000 OA
ATOM     32  N   UNL     1       6.039  -8.335  11.056  0.00  0.00    +0.000 N 
ATOM     33  C   UNL     1       6.104  -5.417  11.252  0.00  0.00    +0.000 C 
ATOM     34  C   UNL     1       6.125  -6.346  12.492  0.00  0.00    +0.000 C 
ATOM     35  C   UNL     1       6.696  -6.195  10.050  0.00  0.00    +0.000 C 
ATOM     36  C   UNL     1       5.464  -7.695  12.226  0.00  0.00    +0.000 C 
ATOM     37  C   UNL     1       6.020  -7.546   9.839  0.00  0.00    +0.000 C 
ATOM     38  C   UNL     1       6.485  -9.648  11.024  0.00  0.00    +0.000 C 
BRANCH  33  39
ATOM     39  N   UNL     1       6.834  -4.133  11.498  0.00  0.00    +0.000 NA
ATOM     40  C   UNL     1       8.146  -4.356  12.143  0.00  0.00    +0.000 C 
ATOM     41  C   UNL     1       7.010  -3.344  10.261  0.00  0.00    +0.000 C 
ATOM     42  C   UNL     1       8.896  -3.053  12.431  0.00  0.00    +0.000 C 
ATOM     43  C   UNL     1       7.732  -2.016  10.501  0.00  0.00    +0.000 C 
ATOM     44  C   UNL     1       9.079  -2.226  11.170  0.00  0.00    +0.000 C 
ENDBRANCH  33  39
ENDBRANCH  30  38
ENDBRANCH  20  30
TORSDOF 6
ENDMDL
MODEL 8
REMARK VINA RESULT:      -6.1     22.811     26.952
REMARK  Name = 
REMARK  8 active torsions:
REMARK  status: ('A' for Active; 'I' for Inactive)
REMARK    1  A    between atoms: O_1  and  C_21
REMARK    2  A    between atoms: O_1  and  C_38
REMARK    3  A    between atoms: O_4  and  C_26
REMARK    4  A    between atoms: N_7  and  C_11
REMARK    5  A    between atoms: C_26  and  C_33
REMARK    6  A    between atoms: C_29  and  C_37
REMARK    7  A    between atoms: C_33  and  C_42
REMARK    8  A    between atoms: C_37  and  C_43
REMARK                            x       y       z     vdW  Elec       q    Type
REMARK                         _______ _______ _______ _____ _____    ______ ____
ROOT
ATOM      1  O   UNL     1      -3.793  11.940  10.422  0.00  0.00    +0.000 OA
ATOM      2  O   UNL     1      -7.726  12.629   9.076  0.00  0.00    +0.000 OA
ATOM      3  O   UNL     1      -2.379  10.243  10.834  0.00  0.00    +0.000 OA
ATOM      4  N   UNL     1      -7.716  10.717   7.808  0.00  0.00    +0.000 N 
ATOM      5  N   UNL     1      -7.710   7.759   5.778  0.00  0.00    +0.000 NA
ATOM      6  C   UNL     1      -7.052   9.623   7.290  0.00  0.00    +0.000 A 
ATOM      7  C   UNL     1      -9.211   9.533   6.491  0.00  0.00    +0.000 A 
ATOM      8  C   UNL     1      -9.110  10.753   7.358  0.00  0.00    +0.000 C 
ATOM      9  C   UNL     1      -5.058  10.322   8.450  0.00  0.00    +0.000 A 
ATOM     10  C   UNL     1      -3.595  10.111   8.747  0.00  0.00    +0.000 C 
ATOM     11  C   UNL     1      -7.987   8.875   6.458  0.00  0.00    +0.000 A 
ATOM     12  C   UNL     1      -5.701  11.392   8.958  0.00  0.00    +0.000 A 
ATOM     13  C   UNL     1     -10.277   9.016   5.768  0.00  0.00    +0.000 A 
ATOM     14  C   UNL     1      -5.766   9.395   7.573  0.00  0.00    +0.000 A 
ATOM     15  C   UNL     1      -7.140  11.648   8.632  0.00  0.00    +0.000 A 
ATOM     16  C   UNL     1     -10.031   7.834   5.011  0.00  0.00    +0.000 A 
ATOM     17  C   UNL     1      -5.038  12.387   9.846  0.00  0.00    +0.000 C 
ATOM     18  C   UNL     1      -8.724   7.250   5.061  0.00  0.00    +0.000 A 
ATOM     19  C   UNL     1      -3.224  10.759  10.100  0.00  0.00    +0.000 C 
ATOM     20  C   UNL     1     -10.704   6.058   3.485  0.00  0.00    +0.000 A 
ATOM     21  C   UNL     1     -11.011   7.206   4.212  0.00  0.00    +0.000 A 
ATOM     22  C   UNL     1      -8.470   6.092   4.337  0.00  0.00    +0.000 A 
ATOM     23  C   UNL     1      -9.447   5.480   3.552  0.00  0.00    +0.000 A 
ENDROOT
BRANCH  10  24
ATOM     24  O   UNL     1      -3.342   8.702   8.836  0.00  0.00    +0.000 OA
ATOM     25  H   UNL     1      -2.576   8.600   9.437  0.00  0.00    +0.000 HD
ENDBRANCH  10  24
BRANCH  10  26
ATOM     26  C   UNL     1      -2.723  10.707   7.621  0.00  0.00    +0.000 C 
ATOM     27  C   UNL     1      -1.428   9.945   7.353  0.00  0.00    +0.000 C 
ENDBRANCH  10  26
BRANCH  13  28
ATOM     28  C   UNL     1     -11.608   9.728   5.783  0.00  0.00    +0.000 C 
ATOM     29  C   UNL     1     -11.698  10.802   4.709  0.00  0.00    +0.000 C 
ENDBRANCH  13  28
BRANCH  20  30
ATOM     30  O   UNL     1     -11.707   5.437   2.738  0.00  0.00    +0.000 OA
BRANCH  30  38
ATOM     31  O   UNL     1     -11.624   6.969   1.003  0.00  0.00    +0.000 OA
ATOM     32  N   UNL     1     -11.871   4.725   0.546  0.00  0.00    +0.000 N 
ATOM     33  C   UNL     1     -13.160   2.744  -1.179  0.00  0.00    +0.000 C 
ATOM     34  C   UNL     1     -13.130   2.625   0.366  0.00  0.00    +0.000 C 
ATOM     35  C   UNL     1     -13.048   4.244  -1.554  0.00  0.00    +0.000 C 
ATOM     36  C   UNL     1     -11.935   3.342   0.987  0.00  0.00    +0.000 C 
ATOM     37  C   UNL     1     -11.854   4.923  -0.890  0.00  0.00    +0.000 C 
ATOM     38  C   UNL     1     -11.723   5.810   1.398  0.00  0.00    +0.000 C 
BRANCH  33  39
ATOM     39  N   UNL     1     -14.384   2.114  -1.768  0.00  0.00    +0.000 NA
ATOM     40  C   UNL     1     -14.260   0.644  -1.863  0.00  0.00    +0.000 C 
ATOM     41  C   UNL     1     -15.609   2.468  -1.021  0.00  0.00    +0.000 C 
ATOM     42  C   UNL     1     -15.490  -0.017  -2.491  0.00  0.00    +0.000 C 
ATOM     43  C   UNL     1     -16.873   1.852  -1.626  0.00  0.00    +0.000 C 
ATOM     44  C   UNL     1     -16.759   0.342  -1.739  0.00  0.00    +0.000 C 
ENDBRANCH  33  39
ENDBRANCH  30  38
ENDBRANCH  20  30
TORSDOF 6
ENDMDL
MODEL 9
REMARK VINA RESULT:      -5.8     23.302     26.150
REMARK  Name = 
REMARK  8 active torsions:
REMARK  status: ('A' for Active; 'I' for Inactive)
REMARK    1  A    between atoms: O_1  and  C_21
REMARK    2  A    between atoms: O_1  and  C_38
REMARK    3  A    between atoms: O_4  and  C_26
REMARK    4  A    between atoms: N_7  and  C_11
REMARK    5  A    between atoms: C_26  and  C_33
REMARK    6  A    between atoms: C_29  and  C_37
REMARK    7  A    between atoms: C_33  and  C_42
REMARK    8  A    between atoms: C_37  and  C_43
REMARK                            x       y       z     vdW  Elec       q    Type
REMARK                         _______ _______ _______ _____ _____    ______ ____
ROOT
ATOM      1  O   UNL     1      -3.042   9.909  -5.267  0.00  0.00    +0.000 OA
ATOM      2  O   UNL     1      -2.788  11.950  -1.590  0.00  0.00    +0.000 OA
ATOM      3  O   UNL     1      -3.233   7.821  -6.076  0.00  0.00    +0.000 OA
ATOM      4  N   UNL     1      -4.010  10.333  -0.513  0.00  0.00    +0.000 N 
ATOM      5  N   UNL     1      -5.960   7.846   1.184  0.00  0.00    +0.000 NA
ATOM      6  C   UNL     1      -4.765   9.178  -0.546  0.00  0.00    +0.000 A 
ATOM      7  C   UNL     1      -4.693   9.866   1.652  0.00  0.00    +0.000 A 
ATOM      8  C   UNL     1      -3.900  10.857   0.851  0.00  0.00    +0.000 C 
ATOM      9  C   UNL     1      -4.428   9.060  -2.929  0.00  0.00    +0.000 A 
ATOM     10  C   UNL     1      -4.710   8.373  -4.242  0.00  0.00    +0.000 C 
ATOM     11  C   UNL     1      -5.200   8.880   0.814  0.00  0.00    +0.000 A 
ATOM     12  C   UNL     1      -3.690  10.187  -2.904  0.00  0.00    +0.000 A 
ATOM     13  C   UNL     1      -4.972   9.810   3.011  0.00  0.00    +0.000 A 
ATOM     14  C   UNL     1      -4.994   8.531  -1.693  0.00  0.00    +0.000 A 
ATOM     15  C   UNL     1      -3.443  10.913  -1.617  0.00  0.00    +0.000 A 
ATOM     16  C   UNL     1      -5.793   8.734   3.457  0.00  0.00    +0.000 A 
ATOM     17  C   UNL     1      -3.095  10.792  -4.127  0.00  0.00    +0.000 C 
ATOM     18  C   UNL     1      -6.253   7.780   2.492  0.00  0.00    +0.000 A 
ATOM     19  C   UNL     1      -3.582   8.671  -5.256  0.00  0.00    +0.000 C 
ATOM     20  C   UNL     1      -6.993   7.491   5.175  0.00  0.00    +0.000 A 
ATOM     21  C   UNL     1      -6.178   8.558   4.804  0.00  0.00    +0.000 A 
ATOM     22  C   UNL     1      -7.046   6.720   2.912  0.00  0.00    +0.000 A 
ATOM     23  C   UNL     1      -7.418   6.556   4.246  0.00  0.00    +0.000 A 
ENDROOT
BRANCH  10  24
ATOM     24  O   UNL     1      -4.755   6.957  -4.020  0.00  0.00    +0.000 OA
ATOM     25  H   UNL     1      -4.748   6.832  -3.050  0.00  0.00    +0.000 HD
ENDBRANCH  10  24
BRANCH  10  26
ATOM     26  C   UNL     1      -6.067   8.835  -4.813  0.00  0.00    +0.000 C 
ATOM     27  C   UNL     1      -6.693  10.018  -4.079  0.00  0.00    +0.000 C 
ENDBRANCH  10  26
BRANCH  13  28
ATOM     28  C   UNL     1      -4.439  10.882   3.930  0.00  0.00    +0.000 C 
ATOM     29  C   UNL     1      -5.384  12.070   4.036  0.00  0.00    +0.000 C 
ENDBRANCH  13  28
BRANCH  20  30
ATOM     30  O   UNL     1      -7.320   7.321   6.521  0.00  0.00    +0.000 OA
BRANCH  30  38
ATOM     31  O   UNL     1      -8.943   8.965   6.685  0.00  0.00    +0.000 OA
ATOM     32  N   UNL     1      -7.213   8.901   8.203  0.00  0.00    +0.000 N 
ATOM     33  C   UNL     1      -5.348  10.492   9.801  0.00  0.00    +0.000 C 
ATOM     34  C   UNL     1      -4.904   9.276   8.951  0.00  0.00    +0.000 C 
ATOM     35  C   UNL     1      -6.637  11.081   9.173  0.00  0.00    +0.000 C 
ATOM     36  C   UNL     1      -6.026   8.262   8.745  0.00  0.00    +0.000 C 
ATOM     37  C   UNL     1      -7.719  10.026   8.965  0.00  0.00    +0.000 C 
ATOM     38  C   UNL     1      -7.915   8.438   7.100  0.00  0.00    +0.000 C 
BRANCH  33  39
ATOM     39  N   UNL     1      -4.267  11.521   9.919  0.00  0.00    +0.000 NA
ATOM     40  C   UNL     1      -3.805  11.995   8.597  0.00  0.00    +0.000 C 
ATOM     41  C   UNL     1      -4.678  12.671  10.751  0.00  0.00    +0.000 C 
ATOM     42  C   UNL     1      -2.678  13.025   8.696  0.00  0.00    +0.000 C 
ATOM     43  C   UNL     1      -3.573  13.719  10.903  0.00  0.00    +0.000 C 
ATOM     44  C   UNL     1      -3.082  14.212   9.553  0.00  0.00    +0.000 C 
ENDBRANCH  33  39
ENDBRANCH  30  38
ENDBRANCH  20  30
TORSDOF 6
ENDMDL
