MODEL 1
REMARK VINA RESULT:      -6.5      0.000      0.000
REMARK  Name = 
REMARK  8 active torsions:
REMARK  status: ('A' for Active; 'I' for Inactive)
REMARK    1  A    between atoms: O_1  and  C_21
REMARK    2  A    between atoms: O_1  and  C_38
REMARK    3  A    between atoms: O_4  and  C_26
REMARK    4  A    between atoms: N_7  and  C_11
REMARK    5  A    between atoms: C_26  and  C_33
REMARK    6  A    between atoms: C_29  and  C_37
REMARK    7  A    between atoms: C_33  and  C_42
REMARK    8  A    between atoms: C_37  and  C_43
REMARK                            x       y       z     vdW  Elec       q    Type
REMARK                         _______ _______ _______ _____ _____    ______ ____
ROOT
ATOM      1  O   UNL     1     -21.404   4.061  10.178  0.00  0.00    +0.000 OA
ATOM      2  O   UNL     1     -19.918   7.481  12.140  0.00  0.00    +0.000 OA
ATOM      3  O   UNL     1     -20.765   1.986   9.599  0.00  0.00    +0.000 OA
ATOM      4  N   UNL     1     -18.526   6.221  13.460  0.00  0.00    +0.000 N 
ATOM      5  N   UNL     1     -16.377   4.273  15.571  0.00  0.00    +0.000 NA
ATOM      6  C   UNL     1     -18.076   4.993  13.900  0.00  0.00    +0.000 A 
ATOM      7  C   UNL     1     -16.885   6.593  15.055  0.00  0.00    +0.000 A 
ATOM      8  C   UNL     1     -17.827   7.317  14.136  0.00  0.00    +0.000 C 
ATOM      9  C   UNL     1     -19.623   3.920  12.396  0.00  0.00    +0.000 A 
ATOM     10  C   UNL     1     -20.238   2.650  11.865  0.00  0.00    +0.000 C 
ATOM     11  C   UNL     1     -17.044   5.220  14.906  0.00  0.00    +0.000 A 
ATOM     12  C   UNL     1     -20.067   5.116  11.962  0.00  0.00    +0.000 A 
ATOM     13  C   UNL     1     -15.955   7.072  15.966  0.00  0.00    +0.000 A 
ATOM     14  C   UNL     1     -18.579   3.854  13.413  0.00  0.00    +0.000 A 
ATOM     15  C   UNL     1     -19.505   6.389  12.516  0.00  0.00    +0.000 A 
ATOM     16  C   UNL     1     -15.226   6.103  16.714  0.00  0.00    +0.000 A 
ATOM     17  C   UNL     1     -21.139   5.258  10.939  0.00  0.00    +0.000 C 
ATOM     18  C   UNL     1     -15.482   4.715  16.467  0.00  0.00    +0.000 A 
ATOM     19  C   UNL     1     -20.803   2.881  10.445  0.00  0.00    +0.000 C 
ATOM     20  C   UNL     1     -13.593   5.444  18.399  0.00  0.00    +0.000 A 
ATOM     21  C   UNL     1     -14.264   6.440  17.691  0.00  0.00    +0.000 A 
ATOM     22  C   UNL     1     -14.774   3.757  17.182  0.00  0.00    +0.000 A 
ATOM     23  C   UNL     1     -13.823   4.103  18.143  0.00  0.00    +0.000 A 
ENDROOT
BRANCH  10  24
ATOM     24  O   UNL     1     -19.221   1.642  11.788  0.00  0.00    +0.000 OA
ATOM     25  H   UNL     1     -19.512   0.914  12.374  0.00  0.00    +0.000 HD
ENDBRANCH  10  24
BRANCH  10  26
ATOM     26  C   UNL     1     -21.360   2.159  12.805  0.00  0.00    +0.000 C 
ATOM     27  C   UNL     1     -22.647   1.747  12.094  0.00  0.00    +0.000 C 
ENDBRANCH  10  26
BRANCH  13  28
ATOM     28  C   UNL     1     -15.782   8.561  16.148  0.00  0.00    +0.000 C 
ATOM     29  C   UNL     1     -14.765   9.143  15.177  0.00  0.00    +0.000 C 
ENDBRANCH  13  28
BRANCH  20  30
ATOM     30  O   UNL     1     -12.617   5.809  19.326  0.00  0.00    +0.000 OA
BRANCH  30  38
ATOM     31  O   UNL     1     -14.016   6.094  21.150  0.00  0.00    +0.000 OA
ATOM     32  N   UNL     1     -12.099   4.833  21.356  0.00  0.00    +0.000 N 
ATOM     33  C   UNL     1      -9.864   4.111  23.101  0.00  0.00    +0.000 C 
ATOM     34  C   UNL     1      -9.680   4.502  21.613  0.00  0.00    +0.000 C 
ATOM     35  C   UNL     1     -11.161   4.780  23.623  0.00  0.00    +0.000 C 
ATOM     36  C   UNL     1     -10.921   4.215  20.772  0.00  0.00    +0.000 C 
ATOM     37  C   UNL     1     -12.367   4.485  22.738  0.00  0.00    +0.000 C 
ATOM     38  C   UNL     1     -13.000   5.618  20.651  0.00  0.00    +0.000 C 
BRANCH  33  39
ATOM     39  N   UNL     1      -8.674   4.480  23.931  0.00  0.00    +0.000 NA
ATOM     40  C   UNL     1      -8.917   4.267  25.374  0.00  0.00    +0.000 C 
ATOM     41  C   UNL     1      -7.456   3.756  23.514  0.00  0.00    +0.000 C 
ATOM     42  C   UNL     1      -7.722   4.668  26.243  0.00  0.00    +0.000 C 
ATOM     43  C   UNL     1      -6.224   4.142  24.336  0.00  0.00    +0.000 C 
ATOM     44  C   UNL     1      -6.459   3.937  25.822  0.00  0.00    +0.000 C 
ENDBRANCH  33  39
ENDBRANCH  30  38
ENDBRANCH  20  30
TORSDOF 6
ENDMDL
MODEL 2
REMARK VINA RESULT:      -6.2     22.242     25.611
REMARK  Name = 
REMARK  8 active torsions:
REMARK  status: ('A' for Active; 'I' for Inactive)
REMARK    1  A    between atoms: O_1  and  C_21
REMARK    2  A    between atoms: O_1  and  C_38
REMARK    3  A    between atoms: O_4  and  C_26
REMARK    4  A    between atoms: N_7  and  C_11
REMARK    5  A    between atoms: C_26  and  C_33
REMARK    6  A    between atoms: C_29  and  C_37
REMARK    7  A    between atoms: C_33  and  C_42
REMARK    8  A    between atoms: C_37  and  C_43
REMARK                            x       y       z     vdW  Elec       q    Type
REMARK                         _______ _______ _______ _____ _____    ______ ____
ROOT
ATOM      1  O   UNL     1     -14.561 -19.315  18.607  0.00  0.00    +0.000 OA
ATOM      2  O   UNL     1     -16.192 -16.558  15.869  0.00  0.00    +0.000 OA
ATOM      3  O   UNL     1     -13.258 -21.145  18.649  0.00  0.00    +0.000 OA
ATOM      4  N   UNL     1     -14.439 -16.840  14.414  0.00  0.00    +0.000 N 
ATOM      5  N   UNL     1     -11.689 -17.223  12.144  0.00  0.00    +0.000 NA
ATOM      6  C   UNL     1     -13.206 -17.379  14.111  0.00  0.00    +0.000 A 
ATOM      7  C   UNL     1     -13.843 -16.110  12.296  0.00  0.00    +0.000 A 
ATOM      8  C   UNL     1     -14.941 -16.009  13.316  0.00  0.00    +0.000 C 
ATOM      9  C   UNL     1     -13.188 -18.470  16.260  0.00  0.00    +0.000 A 
ATOM     10  C   UNL     1     -12.463 -19.324  17.270  0.00  0.00    +0.000 C 
ATOM     11  C   UNL     1     -12.824 -16.922  12.780  0.00  0.00    +0.000 A 
ATOM     12  C   UNL     1     -14.392 -17.947  16.562  0.00  0.00    +0.000 A 
ATOM     13  C   UNL     1     -13.717 -15.542  11.037  0.00  0.00    +0.000 A 
ATOM     14  C   UNL     1     -12.564 -18.171  14.975  0.00  0.00    +0.000 A 
ATOM     15  C   UNL     1     -15.104 -17.053  15.594  0.00  0.00    +0.000 A 
ATOM     16  C   UNL     1     -12.517 -15.820  10.321  0.00  0.00    +0.000 A 
ATOM     17  C   UNL     1     -15.080 -18.196  17.858  0.00  0.00    +0.000 C 
ATOM     18  C   UNL     1     -11.540 -16.673  10.929  0.00  0.00    +0.000 A 
ATOM     19  C   UNL     1     -13.474 -20.013  18.214  0.00  0.00    +0.000 C 
ATOM     20  C   UNL     1     -11.038 -15.595   8.397  0.00  0.00    +0.000 A 
ATOM     21  C   UNL     1     -12.238 -15.295   9.040  0.00  0.00    +0.000 A 
ATOM     22  C   UNL     1     -10.368 -16.961  10.241  0.00  0.00    +0.000 A 
ATOM     23  C   UNL     1     -10.105 -16.439   8.975  0.00  0.00    +0.000 A 
ENDROOT
BRANCH  10  24
ATOM     24  O   UNL     1     -11.731 -20.341  16.572  0.00  0.00    +0.000 OA
ATOM     25  H   UNL     1     -10.881 -19.934  16.308  0.00  0.00    +0.000 HD
ENDBRANCH  10  24
BRANCH  10  26
ATOM     26  C   UNL     1     -11.474 -18.469  18.090  0.00  0.00    +0.000 C 
ATOM     27  C   UNL     1     -10.157 -19.166  18.420  0.00  0.00    +0.000 C 
ENDBRANCH  10  26
BRANCH  13  28
ATOM     28  C   UNL     1     -14.811 -14.648  10.504  0.00  0.00    +0.000 C 
ATOM     29  C   UNL     1     -15.884 -15.432   9.765  0.00  0.00    +0.000 C 
ENDBRANCH  13  28
BRANCH  20  30
ATOM     30  O   UNL     1     -10.812 -15.096   7.113  0.00  0.00    +0.000 OA
BRANCH  30  38
ATOM     31  O   UNL     1     -11.843 -16.978   6.241  0.00  0.00    +0.000 OA
ATOM     32  N   UNL     1     -10.505 -15.673   4.897  0.00  0.00    +0.000 N 
ATOM     33  C   UNL     1      -8.537 -15.668   2.731  0.00  0.00    +0.000 C 
ATOM     34  C   UNL     1      -8.357 -14.850   4.034  0.00  0.00    +0.000 C 
ATOM     35  C   UNL     1      -9.451 -16.882   3.039  0.00  0.00    +0.000 C 
ATOM     36  C   UNL     1      -9.688 -14.489   4.689  0.00  0.00    +0.000 C 
ATOM     37  C   UNL     1     -10.756 -16.473   3.714  0.00  0.00    +0.000 C 
ATOM     38  C   UNL     1     -11.118 -15.998   6.098  0.00  0.00    +0.000 C 
BRANCH  33  39
ATOM     39  N   UNL     1      -7.225 -16.092   2.148  0.00  0.00    +0.000 NA
ATOM     40  C   UNL     1      -7.332 -16.395   0.704  0.00  0.00    +0.000 C 
ATOM     41  C   UNL     1      -6.163 -15.091   2.374  0.00  0.00    +0.000 C 
ATOM     42  C   UNL     1      -6.007 -16.861   0.096  0.00  0.00    +0.000 C 
ATOM     43  C   UNL     1      -4.808 -15.522   1.807  0.00  0.00    +0.000 C 
ATOM     44  C   UNL     1      -4.901 -15.845   0.326  0.00  0.00    +0.000 C 
ENDBRANCH  33  39
ENDBRANCH  30  38
ENDBRANCH  20  30
TORSDOF 6
ENDMDL
MODEL 3
REMARK VINA RESULT:      -5.8     12.419     16.144
REMARK  Name = 
REMARK  8 active torsions:
REMARK  status: ('A' for Active; 'I' for Inactive)
REMARK    1  A    between atoms: O_1  and  C_21
REMARK    2  A    between atoms: O_1  and  C_38
REMARK    3  A    between atoms: O_4  and  C_26
REMARK    4  A    between atoms: N_7  and  C_11
REMARK    5  A    between atoms: C_26  and  C_33
REMARK    6  A    between atoms: C_29  and  C_37
REMARK    7  A    between atoms: C_33  and  C_42
REMARK    8  A    between atoms: C_37  and  C_43
REMARK                            x       y       z     vdW  Elec       q    Type
REMARK                         _______ _______ _______ _____ _____    ______ ____
ROOT
ATOM      1  O   UNL     1      -9.642  -9.651  28.841  0.00  0.00    +0.000 OA
ATOM      2  O   UNL     1      -6.627  -6.723  28.541  0.00  0.00    +0.000 OA
ATOM      3  O   UNL     1     -11.814  -9.847  29.381  0.00  0.00    +0.000 OA
ATOM      4  N   UNL     1      -8.154  -5.080  28.060  0.00  0.00    +0.000 N 
ATOM      5  N   UNL     1     -10.515  -2.501  27.257  0.00  0.00    +0.000 NA
ATOM      6  C   UNL     1      -9.448  -4.688  27.779  0.00  0.00    +0.000 A 
ATOM      7  C   UNL     1      -8.147  -2.787  27.721  0.00  0.00    +0.000 A 
ATOM      8  C   UNL     1      -7.238  -3.936  28.049  0.00  0.00    +0.000 C 
ATOM      9  C   UNL     1     -10.158  -6.980  27.998  0.00  0.00    +0.000 A 
ATOM     10  C   UNL     1     -11.261  -8.005  27.912  0.00  0.00    +0.000 C 
ATOM     11  C   UNL     1      -9.449  -3.245  27.563  0.00  0.00    +0.000 A 
ATOM     12  C   UNL     1      -8.897  -7.370  28.273  0.00  0.00    +0.000 A 
ATOM     13  C   UNL     1      -7.881  -1.434  27.560  0.00  0.00    +0.000 A 
ATOM     14  C   UNL     1     -10.447  -5.574  27.738  0.00  0.00    +0.000 A 
ATOM     15  C   UNL     1      -7.779  -6.374  28.310  0.00  0.00    +0.000 A 
ATOM     16  C   UNL     1      -8.982  -0.597  27.218  0.00  0.00    +0.000 A 
ATOM     17  C   UNL     1      -8.527  -8.787  28.533  0.00  0.00    +0.000 C 
ATOM     18  C   UNL     1     -10.278  -1.192  27.084  0.00  0.00    +0.000 A 
ATOM     19  C   UNL     1     -10.924  -9.230  28.792  0.00  0.00    +0.000 C 
ATOM     20  C   UNL     1      -9.975   1.557  26.657  0.00  0.00    +0.000 A 
ATOM     21  C   UNL     1      -8.861   0.794  27.002  0.00  0.00    +0.000 A 
ATOM     22  C   UNL     1     -11.363  -0.388  26.760  0.00  0.00    +0.000 A 
ATOM     23  C   UNL     1     -11.232   0.985  26.551  0.00  0.00    +0.000 A 
ENDROOT
BRANCH  10  24
ATOM     24  O   UNL     1     -12.475  -7.418  28.402  0.00  0.00    +0.000 OA
ATOM     25  H   UNL     1     -13.181  -7.697  27.785  0.00  0.00    +0.000 HD
ENDBRANCH  10  24
BRANCH  10  26
ATOM     26  C   UNL     1     -11.473  -8.450  26.449  0.00  0.00    +0.000 C 
ATOM     27  C   UNL     1     -12.921  -8.767  26.088  0.00  0.00    +0.000 C 
ENDBRANCH  10  26
BRANCH  13  28
ATOM     28  C   UNL     1      -6.469  -0.924  27.716  0.00  0.00    +0.000 C 
ATOM     29  C   UNL     1      -6.134  -0.594  29.163  0.00  0.00    +0.000 C 
ENDBRANCH  13  28
BRANCH  20  30
ATOM     30  O   UNL     1      -9.831   2.935  26.493  0.00  0.00    +0.000 OA
BRANCH  30  38
ATOM     31  O   UNL     1      -9.179   3.165  24.282  0.00  0.00    +0.000 OA
ATOM     32  N   UNL     1      -7.753   3.802  25.974  0.00  0.00    +0.000 N 
ATOM     33  C   UNL     1      -4.970   3.901  26.872  0.00  0.00    +0.000 C 
ATOM     34  C   UNL     1      -6.129   3.406  27.773  0.00  0.00    +0.000 C 
ATOM     35  C   UNL     1      -5.372   3.674  25.392  0.00  0.00    +0.000 C 
ATOM     36  C   UNL     1      -7.475   4.012  27.384  0.00  0.00    +0.000 C 
ATOM     37  C   UNL     1      -6.733   4.276  25.059  0.00  0.00    +0.000 C 
ATOM     38  C   UNL     1      -8.944   3.291  25.481  0.00  0.00    +0.000 C 
BRANCH  33  39
ATOM     39  N   UNL     1      -3.673   3.230  27.205  0.00  0.00    +0.000 NA
ATOM     40  C   UNL     1      -3.868   1.831  27.642  0.00  0.00    +0.000 C 
ATOM     41  C   UNL     1      -2.715   3.277  26.081  0.00  0.00    +0.000 C 
ATOM     42  C   UNL     1      -2.556   1.138  28.017  0.00  0.00    +0.000 C 
ATOM     43  C   UNL     1      -1.374   2.619  26.415  0.00  0.00    +0.000 C 
ATOM     44  C   UNL     1      -1.557   1.183  26.873  0.00  0.00    +0.000 C 
ENDBRANCH  33  39
ENDBRANCH  30  38
ENDBRANCH  20  30
TORSDOF 6
ENDMDL
MODEL 4
REMARK VINA RESULT:      -5.7     13.741     20.769
REMARK  Name = 
REMARK  8 active torsions:
REMARK  status: ('A' for Active; 'I' for Inactive)
REMARK    1  A    between atoms: O_1  and  C_21
REMARK    2  A    between atoms: O_1  and  C_38
REMARK    3  A    between atoms: O_4  and  C_26
REMARK    4  A    between atoms: N_7  and  C_11
REMARK    5  A    between atoms: C_26  and  C_33
REMARK    6  A    between atoms: C_29  and  C_37
REMARK    7  A    between atoms: C_33  and  C_42
REMARK    8  A    between atoms: C_37  and  C_43
REMARK                            x       y       z     vdW  Elec       q    Type
REMARK                         _______ _______ _______ _____ _____    ______ ____
ROOT
ATOM      1  O   UNL     1      -7.760   7.964   7.476  0.00  0.00    +0.000 OA
ATOM      2  O   UNL     1     -11.151   9.410   5.437  0.00  0.00    +0.000 OA
ATOM      3  O   UNL     1      -6.829   6.024   8.123  0.00  0.00    +0.000 OA
ATOM      4  N   UNL     1     -11.307   7.502   4.171  0.00  0.00    +0.000 N 
ATOM      5  N   UNL     1     -11.546   4.552   2.145  0.00  0.00    +0.000 NA
ATOM      6  C   UNL     1     -10.802   6.281   3.773  0.00  0.00    +0.000 A 
ATOM      7  C   UNL     1     -12.750   6.615   2.588  0.00  0.00    +0.000 A 
ATOM      8  C   UNL     1     -12.558   7.813   3.473  0.00  0.00    +0.000 C 
ATOM      9  C   UNL     1      -8.952   6.587   5.287  0.00  0.00    +0.000 A 
ATOM     10  C   UNL     1      -7.644   6.087   5.846  0.00  0.00    +0.000 C 
ATOM     11  C   UNL     1     -11.705   5.719   2.774  0.00  0.00    +0.000 A 
ATOM     12  C   UNL     1      -9.440   7.780   5.680  0.00  0.00    +0.000 A 
ATOM     13  C   UNL     1     -13.750   6.310   1.676  0.00  0.00    +0.000 A 
ATOM     14  C   UNL     1      -9.665   5.801   4.285  0.00  0.00    +0.000 A 
ATOM     15  C   UNL     1     -10.711   8.317   5.097  0.00  0.00    +0.000 A 
ATOM     16  C   UNL     1     -13.621   5.082   0.965  0.00  0.00    +0.000 A 
ATOM     17  C   UNL     1      -8.759   8.641   6.685  0.00  0.00    +0.000 C 
ATOM     18  C   UNL     1     -12.495   4.242   1.248  0.00  0.00    +0.000 A 
ATOM     19  C   UNL     1      -7.399   6.682   7.251  0.00  0.00    +0.000 C 
ATOM     20  C   UNL     1     -14.358   3.440  -0.679  0.00  0.00    +0.000 A 
ATOM     21  C   UNL     1     -14.548   4.647  -0.008  0.00  0.00    +0.000 A 
ATOM     22  C   UNL     1     -12.359   3.037   0.571  0.00  0.00    +0.000 A 
ATOM     23  C   UNL     1     -13.283   2.618  -0.387  0.00  0.00    +0.000 A 
ENDROOT
BRANCH  10  24
ATOM     24  O   UNL     1      -7.709   4.659   5.965  0.00  0.00    +0.000 OA
ATOM     25  H   UNL     1      -8.400   4.472   6.632  0.00  0.00    +0.000 HD
ENDBRANCH  10  24
BRANCH  10  26
ATOM     26  C   UNL     1      -6.477   6.459   4.906  0.00  0.00    +0.000 C 
ATOM     27  C   UNL     1      -6.901   6.837   3.490  0.00  0.00    +0.000 C 
ENDBRANCH  10  26
BRANCH  13  28
ATOM     28  C   UNL     1     -14.885   7.280   1.454  0.00  0.00    +0.000 C 
ATOM     29  C   UNL     1     -16.041   7.041   2.413  0.00  0.00    +0.000 C 
ENDBRANCH  13  28
BRANCH  20  30
ATOM     30  O   UNL     1     -15.315   3.019  -1.603  0.00  0.00    +0.000 OA
BRANCH  30  38
ATOM     31  O   UNL     1     -14.156   3.491  -3.553  0.00  0.00    +0.000 OA
ATOM     32  N   UNL     1     -15.062   1.398  -3.231  0.00  0.00    +0.000 N 
ATOM     33  C   UNL     1     -16.407  -0.868  -4.503  0.00  0.00    +0.000 C 
ATOM     34  C   UNL     1     -16.889  -0.242  -3.170  0.00  0.00    +0.000 C 
ATOM     35  C   UNL     1     -15.644   0.218  -5.303  0.00  0.00    +0.000 C 
ATOM     36  C   UNL     1     -15.760   0.434  -2.398  0.00  0.00    +0.000 C 
ATOM     37  C   UNL     1     -14.542   0.881  -4.483  0.00  0.00    +0.000 C 
ATOM     38  C   UNL     1     -14.788   2.704  -2.853  0.00  0.00    +0.000 C 
BRANCH  33  39
ATOM     39  N   UNL     1     -17.539  -1.448  -5.293  0.00  0.00    +0.000 NA
ATOM     40  C   UNL     1     -18.041  -2.707  -4.702  0.00  0.00    +0.000 C 
ATOM     41  C   UNL     1     -18.654  -0.491  -5.458  0.00  0.00    +0.000 C 
ATOM     42  C   UNL     1     -19.178  -3.332  -5.513  0.00  0.00    +0.000 C 
ATOM     43  C   UNL     1     -19.808  -1.061  -6.287  0.00  0.00    +0.000 C 
ATOM     44  C   UNL     1     -20.330  -2.359  -5.697  0.00  0.00    +0.000 C 
ENDBRANCH  33  39
ENDBRANCH  30  38
ENDBRANCH  20  30
TORSDOF 6
ENDMDL
MODEL 5
REMARK VINA RESULT:      -5.6     23.881     27.812
REMARK  Name = 
REMARK  8 active torsions:
REMARK  status: ('A' for Active; 'I' for Inactive)
REMARK    1  A    between atoms: O_1  and  C_21
REMARK    2  A    between atoms: O_1  and  C_38
REMARK    3  A    between atoms: O_4  and  C_26
REMARK    4  A    between atoms: N_7  and  C_11
REMARK    5  A    between atoms: C_26  and  C_33
REMARK    6  A    between atoms: C_29  and  C_37
REMARK    7  A    between atoms: C_33  and  C_42
REMARK    8  A    between atoms: C_37  and  C_43
REMARK                            x       y       z     vdW  Elec       q    Type
REMARK                         _______ _______ _______ _____ _____    ______ ____
ROOT
ATOM      1  O   UNL     1       0.019 -19.593  21.985  0.00  0.00    +0.000 OA
ATOM      2  O   UNL     1       0.067 -15.383  21.846  0.00  0.00    +0.000 OA
ATOM      3  O   UNL     1      -0.045 -21.368  20.609  0.00  0.00    +0.000 OA
ATOM      4  N   UNL     1       1.114 -15.379  19.804  0.00  0.00    +0.000 N 
ATOM      5  N   UNL     1       2.796 -15.343  16.635  0.00  0.00    +0.000 NA
ATOM      6  C   UNL     1       1.731 -16.054  18.770  0.00  0.00    +0.000 A 
ATOM      7  C   UNL     1       1.777 -13.815  18.226  0.00  0.00    +0.000 A 
ATOM      8  C   UNL     1       1.089 -13.935  19.555  0.00  0.00    +0.000 C 
ATOM      9  C   UNL     1       1.340 -18.129  19.931  0.00  0.00    +0.000 A 
ATOM     10  C   UNL     1       1.518 -19.625  19.999  0.00  0.00    +0.000 C 
ATOM     11  C   UNL     1       2.153 -15.075  17.774  0.00  0.00    +0.000 A 
ATOM     12  C   UNL     1       0.737 -17.476  20.944  0.00  0.00    +0.000 A 
ATOM     13  C   UNL     1       2.072 -12.702  17.452  0.00  0.00    +0.000 A 
ATOM     14  C   UNL     1       1.863 -17.384  18.791  0.00  0.00    +0.000 A 
ATOM     15  C   UNL     1       0.598 -15.985  20.919  0.00  0.00    +0.000 A 
ATOM     16  C   UNL     1       2.772 -12.932  16.232  0.00  0.00    +0.000 A 
ATOM     17  C   UNL     1       0.194 -18.170  22.143  0.00  0.00    +0.000 C 
ATOM     18  C   UNL     1       3.102 -14.280  15.877  0.00  0.00    +0.000 A 
ATOM     19  C   UNL     1       0.414 -20.257  20.878  0.00  0.00    +0.000 C 
ATOM     20  C   UNL     1       3.852 -12.186  14.179  0.00  0.00    +0.000 A 
ATOM     21  C   UNL     1       3.158 -11.897  15.352  0.00  0.00    +0.000 A 
ATOM     22  C   UNL     1       3.776 -14.522  14.687  0.00  0.00    +0.000 A 
ATOM     23  C   UNL     1       4.150 -13.491  13.825  0.00  0.00    +0.000 A 
ENDROOT
BRANCH  10  24
ATOM     24  O   UNL     1       1.404 -20.163  18.675  0.00  0.00    +0.000 OA
ATOM     25  H   UNL     1       2.144 -19.782  18.160  0.00  0.00    +0.000 HD
ENDBRANCH  10  24
BRANCH  10  26
ATOM     26  C   UNL     1       2.909 -19.979  20.567  0.00  0.00    +0.000 C 
ATOM     27  C   UNL     1       3.846 -20.654  19.569  0.00  0.00    +0.000 C 
ENDBRANCH  10  26
BRANCH  13  28
ATOM     28  C   UNL     1       1.682 -11.327  17.937  0.00  0.00    +0.000 C 
ATOM     29  C   UNL     1       0.271 -10.947  17.513  0.00  0.00    +0.000 C 
ENDBRANCH  13  28
BRANCH  20  30
ATOM     30  O   UNL     1       4.181 -11.146  13.309  0.00  0.00    +0.000 OA
BRANCH  30  38
ATOM     31  O   UNL     1       6.080 -10.724  14.567  0.00  0.00    +0.000 OA
ATOM     32  N   UNL     1       5.944  -9.961  12.398  0.00  0.00    +0.000 N 
ATOM     33  C   UNL     1       6.592  -7.772  10.567  0.00  0.00    +0.000 C 
ATOM     34  C   UNL     1       5.192  -8.434  10.628  0.00  0.00    +0.000 C 
ATOM     35  C   UNL     1       7.273  -7.948  11.948  0.00  0.00    +0.000 C 
ATOM     36  C   UNL     1       5.245  -9.876  11.127  0.00  0.00    +0.000 C 
ATOM     37  C   UNL     1       7.281  -9.400  12.415  0.00  0.00    +0.000 C 
ATOM     38  C   UNL     1       5.454 -10.622  13.515  0.00  0.00    +0.000 C 
BRANCH  33  39
ATOM     39  N   UNL     1       6.516  -6.333  10.163  0.00  0.00    +0.000 NA
ATOM     40  C   UNL     1       5.557  -6.116   9.059  0.00  0.00    +0.000 C 
ATOM     41  C   UNL     1       6.181  -5.450  11.300  0.00  0.00    +0.000 C 
ATOM     42  C   UNL     1       5.488  -4.655   8.610  0.00  0.00    +0.000 C 
ATOM     43  C   UNL     1       6.126  -3.971  10.908  0.00  0.00    +0.000 C 
ATOM     44  C   UNL     1       5.151  -3.732   9.769  0.00  0.00    +0.000 C 
ENDBRANCH  33  39
ENDBRANCH  30  38
ENDBRANCH  20  30
TORSDOF 6
ENDMDL
MODEL 6
REMARK VINA RESULT:      -5.6     24.337     28.005
REMARK  Name = 
REMARK  8 active torsions:
REMARK  status: ('A' for Active; 'I' for Inactive)
REMARK    1  A    between atoms: O_1  and  C_21
REMARK    2  A    between atoms: O_1  and  C_38
REMARK    3  A    between atoms: O_4  and  C_26
REMARK    4  A    between atoms: N_7  and  C_11
REMARK    5  A    between atoms: C_26  and  C_33
REMARK    6  A    between atoms: C_29  and  C_37
REMARK    7  A    between atoms: C_33  and  C_42
REMARK    8  A    between atoms: C_37  and  C_43
REMARK                            x       y       z     vdW  Elec       q    Type
REMARK                         _______ _______ _______ _____ _____    ______ ____
ROOT
ATOM      1  O   UNL     1       5.678  -9.995  27.436  0.00  0.00    +0.000 OA
ATOM      2  O   UNL     1       7.712 -10.069  23.747  0.00  0.00    +0.000 OA
ATOM      3  O   UNL     1       3.648  -9.534  28.282  0.00  0.00    +0.000 OA
ATOM      4  N   UNL     1       5.780 -10.528  22.596  0.00  0.00    +0.000 N 
ATOM      5  N   UNL     1       2.784 -11.293  20.778  0.00  0.00    +0.000 NA
ATOM      6  C   UNL     1       4.434 -10.832  22.584  0.00  0.00    +0.000 A 
ATOM      7  C   UNL     1       5.124 -10.766  20.386  0.00  0.00    +0.000 A 
ATOM      8  C   UNL     1       6.322 -10.459  21.236  0.00  0.00    +0.000 C 
ATOM      9  C   UNL     1       4.420 -10.736  24.991  0.00  0.00    +0.000 A 
ATOM     10  C   UNL     1       3.666 -10.902  26.287  0.00  0.00    +0.000 C 
ATOM     11  C   UNL     1       4.015 -10.986  21.195  0.00  0.00    +0.000 A 
ATOM     12  C   UNL     1       5.734 -10.438  25.011  0.00  0.00    +0.000 A 
ATOM     13  C   UNL     1       4.986 -10.859  19.008  0.00  0.00    +0.000 A 
ATOM     14  C   UNL     1       3.738 -10.945  23.719  0.00  0.00    +0.000 A 
ATOM     15  C   UNL     1       6.512 -10.322  23.736  0.00  0.00    +0.000 A 
ATOM     16  C   UNL     1       3.695 -11.200  18.510  0.00  0.00    +0.000 A 
ATOM     17  C   UNL     1       6.497 -10.228  26.271  0.00  0.00    +0.000 C 
ATOM     18  C   UNL     1       2.632 -11.401  19.449  0.00  0.00    +0.000 A 
ATOM     19  C   UNL     1       4.330 -10.066  27.405  0.00  0.00    +0.000 C 
ATOM     20  C   UNL     1       2.126 -11.698  16.713  0.00  0.00    +0.000 A 
ATOM     21  C   UNL     1       3.408 -11.351  17.136  0.00  0.00    +0.000 A 
ATOM     22  C   UNL     1       1.365 -11.725  18.980  0.00  0.00    +0.000 A 
ATOM     23  C   UNL     1       1.094 -11.869  17.620  0.00  0.00    +0.000 A 
ENDROOT
BRANCH  10  24
ATOM     24  O   UNL     1       2.325 -10.427  26.104  0.00  0.00    +0.000 OA
ATOM     25  H   UNL     1       2.403  -9.501  25.799  0.00  0.00    +0.000 HD
ENDBRANCH  10  24
BRANCH  10  26
ATOM     26  C   UNL     1       3.619 -12.389  26.699  0.00  0.00    +0.000 C 
ATOM     27  C   UNL     1       2.251 -13.046  26.542  0.00  0.00    +0.000 C 
ENDBRANCH  10  26
BRANCH  13  28
ATOM     28  C   UNL     1       6.185 -10.636  18.118  0.00  0.00    +0.000 C 
ATOM     29  C   UNL     1       6.983 -11.912  17.900  0.00  0.00    +0.000 C 
ENDBRANCH  13  28
BRANCH  20  30
ATOM     30  O   UNL     1       1.865 -11.797  15.346  0.00  0.00    +0.000 OA
BRANCH  30  38
ATOM     31  O   UNL     1       2.667 -13.949  15.047  0.00  0.00    +0.000 OA
ATOM     32  N   UNL     1       3.318 -12.269  13.613  0.00  0.00    +0.000 N 
ATOM     33  C   UNL     1       5.525 -11.160  12.043  0.00  0.00    +0.000 C 
ATOM     34  C   UNL     1       4.622 -10.294  12.958  0.00  0.00    +0.000 C 
ATOM     35  C   UNL     1       5.523 -12.610  12.590  0.00  0.00    +0.000 C 
ATOM     36  C   UNL     1       3.232 -10.895  13.150  0.00  0.00    +0.000 C 
ATOM     37  C   UNL     1       4.113 -13.158  12.787  0.00  0.00    +0.000 C 
ATOM     38  C   UNL     1       2.618 -12.773  14.699  0.00  0.00    +0.000 C 
BRANCH  33  39
ATOM     39  N   UNL     1       6.912 -10.607  11.937  0.00  0.00    +0.000 NA
ATOM     40  C   UNL     1       7.643 -11.163  10.779  0.00  0.00    +0.000 C 
ATOM     41  C   UNL     1       6.922  -9.130  11.875  0.00  0.00    +0.000 C 
ATOM     42  C   UNL     1       9.075 -10.633  10.670  0.00  0.00    +0.000 C 
ATOM     43  C   UNL     1       8.335  -8.548  11.792  0.00  0.00    +0.000 C 
ATOM     44  C   UNL     1       9.104  -9.116  10.612  0.00  0.00    +0.000 C 
ENDBRANCH  33  39
ENDBRANCH  30  38
ENDBRANCH  20  30
TORSDOF 6
ENDMDL
MODEL 7
REMARK VINA RESULT:      -5.5     23.743     27.872
REMARK  Name = 
REMARK  8 active torsions:
REMARK  status: ('A' for Active; 'I' for Inactive)
REMARK    1  A    between atoms: O_1  and  C_21
REMARK    2  A    between atoms: O_1  and  C_38
REMARK    3  A    between atoms: O_4  and  C_26
REMARK    4  A    between atoms: N_7  and  C_11
REMARK    5  A    between atoms: C_26  and  C_33
REMARK    6  A    between atoms: C_29  and  C_37
REMARK    7  A    between atoms: C_33  and  C_42
REMARK    8  A    between atoms: C_37  and  C_43
REMARK                            x       y       z     vdW  Elec       q    Type
REMARK                         _______ _______ _______ _____ _____    ______ ____
ROOT
ATOM      1  O   UNL     1      -3.089 -16.397  31.979  0.00  0.00    +0.000 OA
ATOM      2  O   UNL     1      -5.974 -16.250  28.912  0.00  0.00    +0.000 OA
ATOM      3  O   UNL     1      -1.071 -17.285  32.413  0.00  0.00    +0.000 OA
ATOM      4  N   UNL     1      -4.376 -16.498  27.283  0.00  0.00    +0.000 N 
ATOM      5  N   UNL     1      -1.895 -16.835  24.714  0.00  0.00    +0.000 NA
ATOM      6  C   UNL     1      -3.052 -16.581  26.903  0.00  0.00    +0.000 A 
ATOM      7  C   UNL     1      -4.309 -16.743  24.979  0.00  0.00    +0.000 A 
ATOM      8  C   UNL     1      -5.268 -16.593  26.124  0.00  0.00    +0.000 C 
ATOM      9  C   UNL     1      -2.406 -16.360  29.214  0.00  0.00    +0.000 A 
ATOM     10  C   UNL     1      -1.311 -16.239  30.245  0.00  0.00    +0.000 C 
ATOM     11  C   UNL     1      -3.003 -16.733  25.454  0.00  0.00    +0.000 A 
ATOM     12  C   UNL     1      -3.697 -16.278  29.592  0.00  0.00    +0.000 A 
ATOM     13  C   UNL     1      -4.534 -16.874  23.616  0.00  0.00    +0.000 A 
ATOM     14  C   UNL     1      -2.067 -16.517  27.805  0.00  0.00    +0.000 A 
ATOM     15  C   UNL     1      -4.797 -16.343  28.578  0.00  0.00    +0.000 A 
ATOM     16  C   UNL     1      -3.385 -16.971  22.779  0.00  0.00    +0.000 A 
ATOM     17  C   UNL     1      -4.116 -16.102  31.010  0.00  0.00    +0.000 C 
ATOM     18  C   UNL     1      -2.089 -16.949  23.391  0.00  0.00    +0.000 A 
ATOM     19  C   UNL     1      -1.822 -16.705  31.627  0.00  0.00    +0.000 C 
ATOM     20  C   UNL     1      -2.293 -17.165  20.609  0.00  0.00    +0.000 A 
ATOM     21  C   UNL     1      -3.455 -17.087  21.374  0.00  0.00    +0.000 A 
ATOM     22  C   UNL     1      -0.959 -17.052  22.591  0.00  0.00    +0.000 A 
ATOM     23  C   UNL     1      -1.042 -17.168  21.203  0.00  0.00    +0.000 A 
ENDROOT
BRANCH  10  24
ATOM     24  O   UNL     1      -0.220 -17.086  29.858  0.00  0.00    +0.000 OA
ATOM     25  H   UNL     1       0.523 -16.864  30.455  0.00  0.00    +0.000 HD
ENDBRANCH  10  24
BRANCH  10  26
ATOM     26  C   UNL     1      -0.809 -14.782  30.332  0.00  0.00    +0.000 C 
ATOM     27  C   UNL     1       0.406 -14.478  29.461  0.00  0.00    +0.000 C 
ENDBRANCH  10  26
BRANCH  13  28
ATOM     28  C   UNL     1      -5.947 -16.873  23.085  0.00  0.00    +0.000 C 
ATOM     29  C   UNL     1      -6.558 -18.266  23.076  0.00  0.00    +0.000 C 
ENDBRANCH  13  28
BRANCH  20  30
ATOM     30  O   UNL     1      -2.397 -17.323  19.227  0.00  0.00    +0.000 OA
BRANCH  30  38
ATOM     31  O   UNL     1      -2.948 -15.249  18.353  0.00  0.00    +0.000 OA
ATOM     32  N   UNL     1      -4.503 -16.948  18.351  0.00  0.00    +0.000 N 
ATOM     33  C   UNL     1      -7.329 -17.631  18.684  0.00  0.00    +0.000 C 
ATOM     34  C   UNL     1      -6.185 -18.416  19.374  0.00  0.00    +0.000 C 
ATOM     35  C   UNL     1      -6.835 -16.186  18.416  0.00  0.00    +0.000 C 
ATOM     36  C   UNL     1      -4.868 -18.331  18.607  0.00  0.00    +0.000 C 
ATOM     37  C   UNL     1      -5.506 -16.153  17.670  0.00  0.00    +0.000 C 
ATOM     38  C   UNL     1      -3.254 -16.408  18.620  0.00  0.00    +0.000 C 
BRANCH  33  39
ATOM     39  N   UNL     1      -8.589 -17.648  19.492  0.00  0.00    +0.000 NA
ATOM     40  C   UNL     1      -8.832 -18.967  20.114  0.00  0.00    +0.000 C 
ATOM     41  C   UNL     1      -8.603 -16.593  20.528  0.00  0.00    +0.000 C 
ATOM     42  C   UNL     1     -10.133 -19.013  20.920  0.00  0.00    +0.000 C 
ATOM     43  C   UNL     1      -9.897 -16.580  21.345  0.00  0.00    +0.000 C 
ATOM     44  C   UNL     1     -10.166 -17.931  21.985  0.00  0.00    +0.000 C 
ENDBRANCH  33  39
ENDBRANCH  30  38
ENDBRANCH  20  30
TORSDOF 6
ENDMDL
MODEL 8
REMARK VINA RESULT:      -5.4     14.068     20.744
REMARK  Name = 
REMARK  8 active torsions:
REMARK  status: ('A' for Active; 'I' for Inactive)
REMARK    1  A    between atoms: O_1  and  C_21
REMARK    2  A    between atoms: O_1  and  C_38
REMARK    3  A    between atoms: O_4  and  C_26
REMARK    4  A    between atoms: N_7  and  C_11
REMARK    5  A    between atoms: C_26  and  C_33
REMARK    6  A    between atoms: C_29  and  C_37
REMARK    7  A    between atoms: C_33  and  C_42
REMARK    8  A    between atoms: C_37  and  C_43
REMARK                            x       y       z     vdW  Elec       q    Type
REMARK                         _______ _______ _______ _____ _____    ______ ____
ROOT
ATOM      1  O   UNL     1      -8.502   9.493   7.464  0.00  0.00    +0.000 OA
ATOM      2  O   UNL     1     -11.951  10.276   5.174  0.00  0.00    +0.000 OA
ATOM      3  O   UNL     1      -7.355   7.764   8.325  0.00  0.00    +0.000 OA
ATOM      4  N   UNL     1     -11.791   8.259   4.091  0.00  0.00    +0.000 N 
ATOM      5  N   UNL     1     -11.538   5.135   2.347  0.00  0.00    +0.000 NA
ATOM      6  C   UNL     1     -11.110   7.088   3.829  0.00  0.00    +0.000 A 
ATOM      7  C   UNL     1     -13.025   7.047   2.548  0.00  0.00    +0.000 A 
ATOM      8  C   UNL     1     -13.037   8.333   3.321  0.00  0.00    +0.000 C 
ATOM      9  C   UNL     1      -9.393   7.777   5.373  0.00  0.00    +0.000 A 
ATOM     10  C   UNL     1      -8.059   7.512   6.025  0.00  0.00    +0.000 C 
ATOM     11  C   UNL     1     -11.880   6.321   2.857  0.00  0.00    +0.000 A 
ATOM     12  C   UNL     1     -10.053   8.923   5.634  0.00  0.00    +0.000 A 
ATOM     13  C   UNL     1     -13.930   6.528   1.633  0.00  0.00    +0.000 A 
ATOM     14  C   UNL     1      -9.945   6.815   4.426  0.00  0.00    +0.000 A 
ATOM     15  C   UNL     1     -11.354   9.228   4.956  0.00  0.00    +0.000 A 
ATOM     16  C   UNL     1     -13.605   5.270   1.047  0.00  0.00    +0.000 A 
ATOM     17  C   UNL     1      -9.542   9.955   6.576  0.00  0.00    +0.000 C 
ATOM     18  C   UNL     1     -12.393   4.621   1.450  0.00  0.00    +0.000 A 
ATOM     19  C   UNL     1      -7.964   8.258   7.375  0.00  0.00    +0.000 C 
ATOM     20  C   UNL     1     -14.037   3.403  -0.459  0.00  0.00    +0.000 A 
ATOM     21  C   UNL     1     -14.417   4.628   0.086  0.00  0.00    +0.000 A 
ATOM     22  C   UNL     1     -12.066   3.390   0.895  0.00  0.00    +0.000 A 
ATOM     23  C   UNL     1     -12.878   2.765  -0.052  0.00  0.00    +0.000 A 
ENDROOT
BRANCH  10  24
ATOM     24  O   UNL     1      -7.940   6.105   6.276  0.00  0.00    +0.000 OA
ATOM     25  H   UNL     1      -7.019   5.864   6.051  0.00  0.00    +0.000 HD
ENDBRANCH  10  24
BRANCH  10  26
ATOM     26  C   UNL     1      -6.907   7.954   5.097  0.00  0.00    +0.000 C 
ATOM     27  C   UNL     1      -6.540   6.940   4.017  0.00  0.00    +0.000 C 
ENDBRANCH  10  26
BRANCH  13  28
ATOM     28  C   UNL     1     -15.171   7.311   1.279  0.00  0.00    +0.000 C 
ATOM     29  C   UNL     1     -16.342   6.974   2.190  0.00  0.00    +0.000 C 
ENDBRANCH  13  28
BRANCH  20  30
ATOM     30  O   UNL     1     -14.883   2.775  -1.373  0.00  0.00    +0.000 OA
BRANCH  30  38
ATOM     31  O   UNL     1     -14.456   3.974  -3.309  0.00  0.00    +0.000 OA
ATOM     32  N   UNL     1     -14.105   1.698  -3.264  0.00  0.00    +0.000 N 
ATOM     33  C   UNL     1     -14.292  -0.800  -4.777  0.00  0.00    +0.000 C 
ATOM     34  C   UNL     1     -14.804  -0.655  -3.322  0.00  0.00    +0.000 C 
ATOM     35  C   UNL     1     -14.327   0.597  -5.447  0.00  0.00    +0.000 C 
ATOM     36  C   UNL     1     -14.070   0.435  -2.546  0.00  0.00    +0.000 C 
ATOM     37  C   UNL     1     -13.602   1.657  -4.624  0.00  0.00    +0.000 C 
ATOM     38  C   UNL     1     -14.478   2.908  -2.698  0.00  0.00    +0.000 C 
BRANCH  33  39
ATOM     39  N   UNL     1     -15.080  -1.809  -5.553  0.00  0.00    +0.000 NA
ATOM     40  C   UNL     1     -15.614  -1.247  -6.812  0.00  0.00    +0.000 C 
ATOM     41  C   UNL     1     -14.297  -3.029  -5.839  0.00  0.00    +0.000 C 
ATOM     42  C   UNL     1     -16.449  -2.255  -7.605  0.00  0.00    +0.000 C 
ATOM     43  C   UNL     1     -15.098  -4.082  -6.610  0.00  0.00    +0.000 C 
ATOM     44  C   UNL     1     -15.661  -3.519  -7.902  0.00  0.00    +0.000 C 
ENDBRANCH  33  39
ENDBRANCH  30  38
ENDBRANCH  20  30
TORSDOF 6
ENDMDL
MODEL 9
REMARK VINA RESULT:      -4.9     19.263     23.561
REMARK  Name = 
REMARK  8 active torsions:
REMARK  status: ('A' for Active; 'I' for Inactive)
REMARK    1  A    between atoms: O_1  and  C_21
REMARK    2  A    between atoms: O_1  and  C_38
REMARK    3  A    between atoms: O_4  and  C_26
REMARK    4  A    between atoms: N_7  and  C_11
REMARK    5  A    between atoms: C_26  and  C_33
REMARK    6  A    between atoms: C_29  and  C_37
REMARK    7  A    between atoms: C_33  and  C_42
REMARK    8  A    between atoms: C_37  and  C_43
REMARK                            x       y       z     vdW  Elec       q    Type
REMARK                         _______ _______ _______ _____ _____    ______ ____
ROOT
ATOM      1  O   UNL     1      -6.123   8.793  -6.342  0.00  0.00    +0.000 OA
ATOM      2  O   UNL     1     -10.187   9.206  -5.311  0.00  0.00    +0.000 OA
ATOM      3  O   UNL     1      -4.386   7.408  -6.006  0.00  0.00    +0.000 OA
ATOM      4  N   UNL     1     -10.458   6.934  -5.130  0.00  0.00    +0.000 N 
ATOM      5  N   UNL     1     -10.923   3.386  -4.889  0.00  0.00    +0.000 NA
ATOM      6  C   UNL     1      -9.968   5.652  -5.271  0.00  0.00    +0.000 A 
ATOM      7  C   UNL     1     -12.130   5.458  -4.500  0.00  0.00    +0.000 A 
ATOM      8  C   UNL     1     -11.839   6.924  -4.639  0.00  0.00    +0.000 C 
ATOM      9  C   UNL     1      -7.874   6.568  -6.034  0.00  0.00    +0.000 A 
ATOM     10  C   UNL     1      -6.483   6.342  -6.571  0.00  0.00    +0.000 C 
ATOM     11  C   UNL     1     -11.016   4.718  -4.877  0.00  0.00    +0.000 A 
ATOM     12  C   UNL     1      -8.346   7.823  -5.900  0.00  0.00    +0.000 A 
ATOM     13  C   UNL     1     -13.276   4.795  -4.083  0.00  0.00    +0.000 A 
ATOM     14  C   UNL     1      -8.724   5.429  -5.707  0.00  0.00    +0.000 A 
ATOM     15  C   UNL     1      -9.744   8.068  -5.418  0.00  0.00    +0.000 A 
ATOM     16  C   UNL     1     -13.234   3.370  -4.091  0.00  0.00    +0.000 A 
ATOM     17  C   UNL     1      -7.541   9.031  -6.230  0.00  0.00    +0.000 C 
ATOM     18  C   UNL     1     -12.024   2.724  -4.502  0.00  0.00    +0.000 A 
ATOM     19  C   UNL     1      -5.582   7.559  -6.259  0.00  0.00    +0.000 C 
ATOM     20  C   UNL     1     -14.228   1.171  -3.755  0.00  0.00    +0.000 A 
ATOM     21  C   UNL     1     -14.328   2.560  -3.714  0.00  0.00    +0.000 A 
ATOM     22  C   UNL     1     -11.964   1.336  -4.506  0.00  0.00    +0.000 A 
ATOM     23  C   UNL     1     -13.051   0.546  -4.130  0.00  0.00    +0.000 A 
ENDROOT
BRANCH  10  24
ATOM     24  O   UNL     1      -5.923   5.188  -5.927  0.00  0.00    +0.000 OA
ATOM     25  H   UNL     1      -4.990   5.140  -6.218  0.00  0.00    +0.000 HD
ENDBRANCH  10  24
BRANCH  10  26
ATOM     26  C   UNL     1      -6.525   6.094  -8.094  0.00  0.00    +0.000 C 
ATOM     27  C   UNL     1      -6.266   4.648  -8.508  0.00  0.00    +0.000 C 
ENDBRANCH  10  26
BRANCH  13  28
ATOM     28  C   UNL     1     -14.497   5.586  -3.683  0.00  0.00    +0.000 C 
ATOM     29  C   UNL     1     -14.485   5.952  -2.206  0.00  0.00    +0.000 C 
ENDBRANCH  13  28
BRANCH  20  30
ATOM     30  O   UNL     1     -15.312   0.399  -3.335  0.00  0.00    +0.000 OA
BRANCH  30  38
ATOM     31  O   UNL     1     -14.574  -0.036  -1.183  0.00  0.00    +0.000 OA
ATOM     32  N   UNL     1     -16.716   0.735  -1.531  0.00  0.00    +0.000 N 
ATOM     33  C   UNL     1     -19.509   0.561  -0.677  0.00  0.00    +0.000 C 
ATOM     34  C   UNL     1     -19.078   0.511  -2.164  0.00  0.00    +0.000 C 
ATOM     35  C   UNL     1     -18.328   0.055   0.190  0.00  0.00    +0.000 C 
ATOM     36  C   UNL     1     -17.756   1.231  -2.416  0.00  0.00    +0.000 C 
ATOM     37  C   UNL     1     -17.025   0.786  -0.115  0.00  0.00    +0.000 C 
ATOM     38  C   UNL     1     -15.456   0.336  -1.952  0.00  0.00    +0.000 C 
BRANCH  33  39
ATOM     39  N   UNL     1     -20.759  -0.224  -0.427  0.00  0.00    +0.000 NA
ATOM     40  C   UNL     1     -21.481  -0.531  -1.681  0.00  0.00    +0.000 C 
ATOM     41  C   UNL     1     -20.496  -1.472   0.320  0.00  0.00    +0.000 C 
ATOM     42  C   UNL     1     -22.779  -1.308  -1.444  0.00  0.00    +0.000 C 
ATOM     43  C   UNL     1     -21.768  -2.273   0.606  0.00  0.00    +0.000 C 
ATOM     44  C   UNL     1     -22.526  -2.591  -0.671  0.00  0.00    +0.000 C 
ENDBRANCH  33  39
ENDBRANCH  30  38
ENDBRANCH  20  30
TORSDOF 6
ENDMDL
