MODEL 1
REMARK VINA RESULT:      -4.6      0.000      0.000
REMARK  Name = 
REMARK  4 active torsions:
REMARK  status: ('A' for Active; 'I' for Inactive)
REMARK    1  A    between atoms: C_1  and  C_6
REMARK    2  A    between atoms: C_1  and  C_7
REMARK    3  A    between atoms: C_9  and  C_14
REMARK    4  A    between atoms: C_11  and  C_15
REMARK                            x       y       z     vdW  Elec       q    Type
REMARK                         _______ _______ _______ _____ _____    ______ ____
ROOT
ATOM      1  C   UNL     1     -21.114  -3.493  18.215  0.00  0.00    +0.000 C 
ATOM      2  C   UNL     1     -21.475  -3.011  19.616  0.00  0.00    +0.000 C 
ATOM      3  C   UNL     1     -20.828  -2.062  18.639  0.00  0.00    +0.000 C 
ATOM      4  C   UNL     1     -20.774  -3.547  20.781  0.00  0.00    +0.000 C 
ATOM      5  C   UNL     1     -19.461  -1.505  18.889  0.00  0.00    +0.000 C 
ATOM      6  C   UNL     1     -19.973  -4.458  17.991  0.00  0.00    +0.000 C 
ATOM      7  C   UNL     1     -22.254  -3.704  17.248  0.00  0.00    +0.000 C 
ATOM      8  C   UNL     1     -19.780  -3.029  21.528  0.00  0.00    +0.000 C 
ATOM      9  C   UNL     1     -21.184  -4.915  21.292  0.00  0.00    +0.000 C 
ATOM     10  C   UNL     1     -19.418  -0.791  20.239  0.00  0.00    +0.000 C 
ATOM     11  C   UNL     1     -19.043  -1.715  21.415  0.00  0.00    +0.000 C 
ATOM     12  C   UNL     1     -19.365  -3.997  22.607  0.00  0.00    +0.000 C 
ATOM     13  C   UNL     1     -19.982  -5.312  22.150  0.00  0.00    +0.000 C 
ATOM     14  C   UNL     1     -22.478  -4.865  22.100  0.00  0.00    +0.000 C 
ATOM     15  C   UNL     1     -19.159  -0.912  22.719  0.00  0.00    +0.000 C 
ENDROOT
TORSDOF 0
ENDMDL
MODEL 2
REMARK VINA RESULT:      -4.6     16.540     18.962
REMARK  Name = 
REMARK  4 active torsions:
REMARK  status: ('A' for Active; 'I' for Inactive)
REMARK    1  A    between atoms: C_1  and  C_6
REMARK    2  A    between atoms: C_1  and  C_7
REMARK    3  A    between atoms: C_9  and  C_14
REMARK    4  A    between atoms: C_11  and  C_15
REMARK                            x       y       z     vdW  Elec       q    Type
REMARK                         _______ _______ _______ _____ _____    ______ ____
ROOT
ATOM      1  C   UNL     1     -10.098 -17.016   9.480  0.00  0.00    +0.000 C 
ATOM      2  C   UNL     1     -11.526 -17.503   9.708  0.00  0.00    +0.000 C 
ATOM      3  C   UNL     1     -11.155 -16.850   8.401  0.00  0.00    +0.000 C 
ATOM      4  C   UNL     1     -12.374 -16.852  10.705  0.00  0.00    +0.000 C 
ATOM      5  C   UNL     1     -11.754 -15.541   7.990  0.00  0.00    +0.000 C 
ATOM      6  C   UNL     1      -9.562 -15.804  10.206  0.00  0.00    +0.000 C 
ATOM      7  C   UNL     1      -9.044 -18.071   9.248  0.00  0.00    +0.000 C 
ATOM      8  C   UNL     1     -13.362 -15.947  10.567  0.00  0.00    +0.000 C 
ATOM      9  C   UNL     1     -12.163 -17.210  12.163  0.00  0.00    +0.000 C 
ATOM     10  C   UNL     1     -13.279 -15.636   7.979  0.00  0.00    +0.000 C 
ATOM     11  C   UNL     1     -13.930 -15.287   9.332  0.00  0.00    +0.000 C 
ATOM     12  C   UNL     1     -13.910 -15.548  11.913  0.00  0.00    +0.000 C 
ATOM     13  C   UNL     1     -12.848 -16.049  12.883  0.00  0.00    +0.000 C 
ATOM     14  C   UNL     1     -12.783 -18.558  12.522  0.00  0.00    +0.000 C 
ATOM     15  C   UNL     1     -15.440 -15.543   9.225  0.00  0.00    +0.000 C 
ENDROOT
TORSDOF 0
ENDMDL
MODEL 3
REMARK VINA RESULT:      -4.3     28.231     29.658
REMARK  Name = 
REMARK  4 active torsions:
REMARK  status: ('A' for Active; 'I' for Inactive)
REMARK    1  A    between atoms: C_1  and  C_6
REMARK    2  A    between atoms: C_1  and  C_7
REMARK    3  A    between atoms: C_9  and  C_14
REMARK    4  A    between atoms: C_11  and  C_15
REMARK                            x       y       z     vdW  Elec       q    Type
REMARK                         _______ _______ _______ _____ _____    ______ ____
ROOT
ATOM      1  C   UNL     1       5.458  -9.135  11.829  0.00  0.00    +0.000 C 
ATOM      2  C   UNL     1       6.167  -8.690  10.554  0.00  0.00    +0.000 C 
ATOM      3  C   UNL     1       6.771  -9.775  11.410  0.00  0.00    +0.000 C 
ATOM      4  C   UNL     1       6.737  -7.348  10.461  0.00  0.00    +0.000 C 
ATOM      5  C   UNL     1       8.078  -9.574  12.109  0.00  0.00    +0.000 C 
ATOM      6  C   UNL     1       5.408  -8.242  13.047  0.00  0.00    +0.000 C 
ATOM      7  C   UNL     1       4.208  -9.966  11.664  0.00  0.00    +0.000 C 
ATOM      8  C   UNL     1       8.008  -6.918  10.582  0.00  0.00    +0.000 C 
ATOM      9  C   UNL     1       5.796  -6.192  10.180  0.00  0.00    +0.000 C 
ATOM     10  C   UNL     1       9.165  -9.197  11.104  0.00  0.00    +0.000 C 
ATOM     11  C   UNL     1       9.284  -7.679  10.863  0.00  0.00    +0.000 C 
ATOM     12  C   UNL     1       8.080  -5.419  10.443  0.00  0.00    +0.000 C 
ATOM     13  C   UNL     1       6.629  -4.985  10.612  0.00  0.00    +0.000 C 
ATOM     14  C   UNL     1       5.395  -6.119   8.709  0.00  0.00    +0.000 C 
ATOM     15  C   UNL     1      10.313  -7.443   9.748  0.00  0.00    +0.000 C 
ENDROOT
TORSDOF 0
ENDMDL
MODEL 4
REMARK VINA RESULT:      -4.3      1.655      4.718
REMARK  Name = 
REMARK  4 active torsions:
REMARK  status: ('A' for Active; 'I' for Inactive)
REMARK    1  A    between atoms: C_1  and  C_6
REMARK    2  A    between atoms: C_1  and  C_7
REMARK    3  A    between atoms: C_9  and  C_14
REMARK    4  A    between atoms: C_11  and  C_15
REMARK                            x       y       z     vdW  Elec       q    Type
REMARK                         _______ _______ _______ _____ _____    ______ ____
ROOT
ATOM      1  C   UNL     1     -20.604  -1.765  23.362  0.00  0.00    +0.000 C 
ATOM      2  C   UNL     1     -21.278  -2.367  22.132  0.00  0.00    +0.000 C 
ATOM      3  C   UNL     1     -20.620  -3.269  23.146  0.00  0.00    +0.000 C 
ATOM      4  C   UNL     1     -20.720  -2.135  20.802  0.00  0.00    +0.000 C 
ATOM      5  C   UNL     1     -19.422  -4.092  22.790  0.00  0.00    +0.000 C 
ATOM      6  C   UNL     1     -19.307  -0.999  23.244  0.00  0.00    +0.000 C 
ATOM      7  C   UNL     1     -21.508  -1.219  24.441  0.00  0.00    +0.000 C 
ATOM      8  C   UNL     1     -19.966  -2.922  20.011  0.00  0.00    +0.000 C 
ATOM      9  C   UNL     1     -20.999  -0.801  20.136  0.00  0.00    +0.000 C 
ATOM     10  C   UNL     1     -19.729  -4.985  21.589  0.00  0.00    +0.000 C 
ATOM     11  C   UNL     1     -19.431  -4.318  20.231  0.00  0.00    +0.000 C 
ATOM     12  C   UNL     1     -19.605  -2.206  18.734  0.00  0.00    +0.000 C 
ATOM     13  C   UNL     1     -19.922  -0.750  19.052  0.00  0.00    +0.000 C 
ATOM     14  C   UNL     1     -22.408  -0.731  19.553  0.00  0.00    +0.000 C 
ATOM     15  C   UNL     1     -19.899  -5.262  19.114  0.00  0.00    +0.000 C 
ENDROOT
TORSDOF 0
ENDMDL
MODEL 5
REMARK VINA RESULT:      -4.3      1.275      3.907
REMARK  Name = 
REMARK  4 active torsions:
REMARK  status: ('A' for Active; 'I' for Inactive)
REMARK    1  A    between atoms: C_1  and  C_6
REMARK    2  A    between atoms: C_1  and  C_7
REMARK    3  A    between atoms: C_9  and  C_14
REMARK    4  A    between atoms: C_11  and  C_15
REMARK                            x       y       z     vdW  Elec       q    Type
REMARK                         _______ _______ _______ _____ _____    ______ ____
ROOT
ATOM      1  C   UNL     1     -20.163  -0.621  21.015  0.00  0.00    +0.000 C 
ATOM      2  C   UNL     1     -21.091  -1.813  20.796  0.00  0.00    +0.000 C 
ATOM      3  C   UNL     1     -20.668  -1.437  22.193  0.00  0.00    +0.000 C 
ATOM      4  C   UNL     1     -20.600  -3.010  20.116  0.00  0.00    +0.000 C 
ATOM      5  C   UNL     1     -19.821  -2.353  23.020  0.00  0.00    +0.000 C 
ATOM      6  C   UNL     1     -18.706  -0.683  20.621  0.00  0.00    +0.000 C 
ATOM      7  C   UNL     1     -20.759   0.754  20.830  0.00  0.00    +0.000 C 
ATOM      8  C   UNL     1     -20.198  -4.199  20.604  0.00  0.00    +0.000 C 
ATOM      9  C   UNL     1     -20.501  -2.980  18.603  0.00  0.00    +0.000 C 
ATOM     10  C   UNL     1     -20.490  -3.720  23.151  0.00  0.00    +0.000 C 
ATOM     11  C   UNL     1     -20.111  -4.704  22.026  0.00  0.00    +0.000 C 
ATOM     12  C   UNL     1     -19.737  -5.104  19.490  0.00  0.00    +0.000 C 
ATOM     13  C   UNL     1     -19.555  -4.147  18.319  0.00  0.00    +0.000 C 
ATOM     14  C   UNL     1     -21.860  -3.162  17.932  0.00  0.00    +0.000 C 
ATOM     15  C   UNL     1     -20.940  -5.984  22.201  0.00  0.00    +0.000 C 
ENDROOT
TORSDOF 0
ENDMDL
MODEL 6
REMARK VINA RESULT:      -4.0      1.918      4.652
REMARK  Name = 
REMARK  4 active torsions:
REMARK  status: ('A' for Active; 'I' for Inactive)
REMARK    1  A    between atoms: C_1  and  C_6
REMARK    2  A    between atoms: C_1  and  C_7
REMARK    3  A    between atoms: C_9  and  C_14
REMARK    4  A    between atoms: C_11  and  C_15
REMARK                            x       y       z     vdW  Elec       q    Type
REMARK                         _______ _______ _______ _____ _____    ______ ____
ROOT
ATOM      1  C   UNL     1     -23.025  -6.310  22.645  0.00  0.00    +0.000 C 
ATOM      2  C   UNL     1     -22.650  -5.023  21.917  0.00  0.00    +0.000 C 
ATOM      3  C   UNL     1     -23.493  -6.062  21.221  0.00  0.00    +0.000 C 
ATOM      4  C   UNL     1     -21.258  -4.763  21.555  0.00  0.00    +0.000 C 
ATOM      5  C   UNL     1     -22.986  -6.794  20.019  0.00  0.00    +0.000 C 
ATOM      6  C   UNL     1     -21.993  -7.377  22.927  0.00  0.00    +0.000 C 
ATOM      7  C   UNL     1     -24.064  -6.202  23.736  0.00  0.00    +0.000 C 
ATOM      8  C   UNL     1     -20.614  -4.887  20.379  0.00  0.00    +0.000 C 
ATOM      9  C   UNL     1     -20.322  -4.263  22.639  0.00  0.00    +0.000 C 
ATOM     10  C   UNL     1     -22.578  -5.804  18.928  0.00  0.00    +0.000 C 
ATOM     11  C   UNL     1     -21.109  -5.347  19.027  0.00  0.00    +0.000 C 
ATOM     12  C   UNL     1     -19.157  -4.531  20.529  0.00  0.00    +0.000 C 
ATOM     13  C   UNL     1     -18.947  -4.556  22.038  0.00  0.00    +0.000 C 
ATOM     14  C   UNL     1     -20.519  -2.778  22.932  0.00  0.00    +0.000 C 
ATOM     15  C   UNL     1     -20.864  -4.267  17.963  0.00  0.00    +0.000 C 
ENDROOT
TORSDOF 0
ENDMDL
MODEL 7
REMARK VINA RESULT:      -4.0     27.852     29.310
REMARK  Name = 
REMARK  4 active torsions:
REMARK  status: ('A' for Active; 'I' for Inactive)
REMARK    1  A    between atoms: C_1  and  C_6
REMARK    2  A    between atoms: C_1  and  C_7
REMARK    3  A    between atoms: C_9  and  C_14
REMARK    4  A    between atoms: C_11  and  C_15
REMARK                            x       y       z     vdW  Elec       q    Type
REMARK                         _______ _______ _______ _____ _____    ______ ____
ROOT
ATOM      1  C   UNL     1       5.334 -13.546  12.972  0.00  0.00    +0.000 C 
ATOM      2  C   UNL     1       5.975 -12.216  13.357  0.00  0.00    +0.000 C 
ATOM      3  C   UNL     1       4.485 -12.297  13.142  0.00  0.00    +0.000 C 
ATOM      4  C   UNL     1       6.872 -11.536  12.424  0.00  0.00    +0.000 C 
ATOM      5  C   UNL     1       3.821 -11.559  12.022  0.00  0.00    +0.000 C 
ATOM      6  C   UNL     1       5.536 -14.141  11.597  0.00  0.00    +0.000 C 
ATOM      7  C   UNL     1       5.232 -14.595  14.053  0.00  0.00    +0.000 C 
ATOM      8  C   UNL     1       6.662 -10.491  11.601  0.00  0.00    +0.000 C 
ATOM      9  C   UNL     1       8.299 -12.038  12.314  0.00  0.00    +0.000 C 
ATOM     10  C   UNL     1       4.139 -10.067  12.108  0.00  0.00    +0.000 C 
ATOM     11  C   UNL     1       5.422  -9.664  11.353  0.00  0.00    +0.000 C 
ATOM     12  C   UNL     1       7.903 -10.185  10.801  0.00  0.00    +0.000 C 
ATOM     13  C   UNL     1       8.751 -11.437  10.983  0.00  0.00    +0.000 C 
ATOM     14  C   UNL     1       9.166 -11.573  13.481  0.00  0.00    +0.000 C 
ATOM     15  C   UNL     1       5.696  -8.178  11.622  0.00  0.00    +0.000 C 
ENDROOT
TORSDOF 0
ENDMDL
MODEL 8
REMARK VINA RESULT:      -4.0      1.941      4.636
REMARK  Name = 
REMARK  4 active torsions:
REMARK  status: ('A' for Active; 'I' for Inactive)
REMARK    1  A    between atoms: C_1  and  C_6
REMARK    2  A    between atoms: C_1  and  C_7
REMARK    3  A    between atoms: C_9  and  C_14
REMARK    4  A    between atoms: C_11  and  C_15
REMARK                            x       y       z     vdW  Elec       q    Type
REMARK                         _______ _______ _______ _____ _____    ______ ____
ROOT
ATOM      1  C   UNL     1     -20.130  -3.978  21.663  0.00  0.00    +0.000 C 
ATOM      2  C   UNL     1     -20.397  -5.430  21.278  0.00  0.00    +0.000 C 
ATOM      3  C   UNL     1     -19.535  -4.564  20.394  0.00  0.00    +0.000 C 
ATOM      4  C   UNL     1     -21.743  -5.854  20.900  0.00  0.00    +0.000 C 
ATOM      5  C   UNL     1     -19.965  -4.204  19.007  0.00  0.00    +0.000 C 
ATOM      6  C   UNL     1     -21.220  -2.934  21.575  0.00  0.00    +0.000 C 
ATOM      7  C   UNL     1     -19.183  -3.737  22.815  0.00  0.00    +0.000 C 
ATOM      8  C   UNL     1     -22.290  -6.079  19.690  0.00  0.00    +0.000 C 
ATOM      9  C   UNL     1     -22.749  -6.104  22.007  0.00  0.00    +0.000 C 
ATOM     10  C   UNL     1     -20.244  -5.466  18.192  0.00  0.00    +0.000 C 
ATOM     11  C   UNL     1     -21.699  -5.964  18.303  0.00  0.00    +0.000 C 
ATOM     12  C   UNL     1     -23.741  -6.465  19.823  0.00  0.00    +0.000 C 
ATOM     13  C   UNL     1     -24.078  -6.057  21.252  0.00  0.00    +0.000 C 
ATOM     14  C   UNL     1     -22.525  -7.446  22.698  0.00  0.00    +0.000 C 
ATOM     15  C   UNL     1     -21.815  -7.297  17.551  0.00  0.00    +0.000 C 
ENDROOT
TORSDOF 0
ENDMDL
MODEL 9
REMARK VINA RESULT:      -3.9     12.631     14.186
REMARK  Name = 
REMARK  4 active torsions:
REMARK  status: ('A' for Active; 'I' for Inactive)
REMARK    1  A    between atoms: C_1  and  C_6
REMARK    2  A    between atoms: C_1  and  C_7
REMARK    3  A    between atoms: C_9  and  C_14
REMARK    4  A    between atoms: C_11  and  C_15
REMARK                            x       y       z     vdW  Elec       q    Type
REMARK                         _______ _______ _______ _____ _____    ______ ____
ROOT
ATOM      1  C   UNL     1      -9.887  -3.763  28.971  0.00  0.00    +0.000 C 
ATOM      2  C   UNL     1      -9.920  -4.364  27.569  0.00  0.00    +0.000 C 
ATOM      3  C   UNL     1     -10.991  -4.726  28.567  0.00  0.00    +0.000 C 
ATOM      4  C   UNL     1      -8.882  -5.302  27.148  0.00  0.00    +0.000 C 
ATOM      5  C   UNL     1     -11.131  -6.125  29.081  0.00  0.00    +0.000 C 
ATOM      6  C   UNL     1      -8.844  -4.189  29.978  0.00  0.00    +0.000 C 
ATOM      7  C   UNL     1     -10.264  -2.307  29.102  0.00  0.00    +0.000 C 
ATOM      8  C   UNL     1      -8.892  -6.646  27.055  0.00  0.00    +0.000 C 
ATOM      9  C   UNL     1      -7.539  -4.738  26.728  0.00  0.00    +0.000 C 
ATOM     10  C   UNL     1     -11.311  -7.101  27.919  0.00  0.00    +0.000 C 
ATOM     11  C   UNL     1      -9.982  -7.648  27.361  0.00  0.00    +0.000 C 
ATOM     12  C   UNL     1      -7.549  -7.160  26.604  0.00  0.00    +0.000 C 
ATOM     13  C   UNL     1      -6.630  -5.963  26.820  0.00  0.00    +0.000 C 
ATOM     14  C   UNL     1      -7.574  -4.151  25.319  0.00  0.00    +0.000 C 
ATOM     15  C   UNL     1     -10.291  -8.509  26.127  0.00  0.00    +0.000 C 
ENDROOT
TORSDOF 0
ENDMDL
