MODEL 1
REMARK VINA RESULT:      -6.4      0.000      0.000
REMARK  Name = JAK3_Inhibitor.pdbqt.pdb
REMARK  1 active torsions:
REMARK  status: ('A' for Active; 'I' for Inactive)
REMARK    1  A    between atoms: C_7  and  C_20
REMARK                            x       y       z     vdW  Elec       q    Type
REMARK                         _______ _______ _______ _____ _____    ______ ____
ROOT
ATOM      1  O   UNL     1      -5.394   9.882   4.528  0.00  0.00    +0.000 OA
ATOM      2  N   UNL     1      -4.349  10.577   2.550  0.00  0.00    +0.000 N 
ATOM      3  C   UNL     1      -5.133   8.998   1.082  0.00  0.00    +0.000 A 
ATOM      4  C   UNL     1      -4.329  10.131   1.228  0.00  0.00    +0.000 A 
ATOM      5  C   UNL     1      -5.682   8.732   2.401  0.00  0.00    +0.000 C 
ATOM      6  C   UNL     1      -5.269   8.375  -0.143  0.00  0.00    +0.000 A 
ATOM      7  C   UNL     1      -4.584   8.900  -1.252  0.00  0.00    +0.000 A 
ATOM      8  C   UNL     1      -5.160   9.771   3.340  0.00  0.00    +0.000 C 
ATOM      9  C   UNL     1      -3.638  10.682   0.172  0.00  0.00    +0.000 A 
ATOM     10  C   UNL     1      -6.484   7.777   2.749  0.00  0.00    +0.000 C 
ATOM     11  C   UNL     1      -3.779  10.049  -1.065  0.00  0.00    +0.000 A 
ATOM     12  H   UNL     1      -3.850  11.378   2.911  0.00  0.00    +0.000 HD
ATOM     13  N   UNL     1      -7.804   6.616   4.471  0.00  0.00    +0.000 N 
ATOM     14  C   UNL     1      -7.362   6.751   3.181  0.00  0.00    +0.000 C 
ATOM     15  C   UNL     1      -7.919   5.738   2.435  0.00  0.00    +0.000 C 
ATOM     16  C   UNL     1      -8.634   5.530   4.556  0.00  0.00    +0.000 C 
ATOM     17  C   UNL     1      -8.723   4.965   3.305  0.00  0.00    +0.000 C 
ATOM     18  H   UNL     1      -7.554   7.224   5.239  0.00  0.00    +0.000 HD
ENDROOT
BRANCH   7  20
ATOM     19  N   UNL     1      -5.777   8.174  -4.758  0.00  0.00    +0.000 NA
ATOM     20  C   UNL     1      -4.699   8.271  -2.573  0.00  0.00    +0.000 A 
ATOM     21  C   UNL     1      -3.894   7.197  -2.958  0.00  0.00    +0.000 A 
ATOM     22  C   UNL     1      -5.617   8.705  -3.525  0.00  0.00    +0.000 A 
ATOM     23  C   UNL     1      -4.018   6.615  -4.215  0.00  0.00    +0.000 A 
ATOM     24  C   UNL     1      -4.969   7.139  -5.071  0.00  0.00    +0.000 A 
ENDBRANCH   7  20
TORSDOF 1
ENDMDL
MODEL 2
REMARK VINA RESULT:      -6.2     17.803     20.053
REMARK  Name = JAK3_Inhibitor.pdbqt.pdb
REMARK  1 active torsions:
REMARK  status: ('A' for Active; 'I' for Inactive)
REMARK    1  A    between atoms: C_7  and  C_20
REMARK                            x       y       z     vdW  Elec       q    Type
REMARK                         _______ _______ _______ _____ _____    ______ ____
ROOT
ATOM      1  O   UNL     1      -9.686  -9.899  -1.313  0.00  0.00    +0.000 OA
ATOM      2  N   UNL     1     -11.262  -8.530  -0.249  0.00  0.00    +0.000 N 
ATOM      3  C   UNL     1     -11.114  -9.312   1.903  0.00  0.00    +0.000 A 
ATOM      4  C   UNL     1     -11.742  -8.397   1.055  0.00  0.00    +0.000 A 
ATOM      5  C   UNL     1     -10.188 -10.055   1.065  0.00  0.00    +0.000 C 
ATOM      6  C   UNL     1     -11.429  -9.368   3.246  0.00  0.00    +0.000 A 
ATOM      7  C   UNL     1     -12.397  -8.485   3.756  0.00  0.00    +0.000 A 
ATOM      8  C   UNL     1     -10.300  -9.531  -0.330  0.00  0.00    +0.000 C 
ATOM      9  C   UNL     1     -12.696  -7.512   1.506  0.00  0.00    +0.000 A 
ATOM     10  C   UNL     1      -9.389 -11.010   1.419  0.00  0.00    +0.000 C 
ATOM     11  C   UNL     1     -13.011  -7.572   2.866  0.00  0.00    +0.000 A 
ATOM     12  H   UNL     1     -11.557  -7.984  -1.045  0.00  0.00    +0.000 HD
ATOM     13  N   UNL     1      -7.671 -12.679   0.853  0.00  0.00    +0.000 N 
ATOM     14  C   UNL     1      -8.496 -12.059   1.755  0.00  0.00    +0.000 C 
ATOM     15  C   UNL     1      -8.287 -12.637   2.986  0.00  0.00    +0.000 C 
ATOM     16  C   UNL     1      -6.939 -13.644   1.494  0.00  0.00    +0.000 C 
ATOM     17  C   UNL     1      -7.303 -13.639   2.821  0.00  0.00    +0.000 C 
ATOM     18  H   UNL     1      -7.612 -12.456  -0.132  0.00  0.00    +0.000 HD
ENDROOT
BRANCH   7  20
ATOM     19  N   UNL     1     -12.105  -8.260   7.511  0.00  0.00    +0.000 NA
ATOM     20  C   UNL     1     -12.762  -8.509   5.177  0.00  0.00    +0.000 A 
ATOM     21  C   UNL     1     -14.061  -8.789   5.606  0.00  0.00    +0.000 A 
ATOM     22  C   UNL     1     -11.838  -8.254   6.186  0.00  0.00    +0.000 A 
ATOM     23  C   UNL     1     -14.388  -8.807   6.957  0.00  0.00    +0.000 A 
ATOM     24  C   UNL     1     -13.378  -8.536   7.863  0.00  0.00    +0.000 A 
ENDBRANCH   7  20
TORSDOF 1
ENDMDL
MODEL 3
REMARK VINA RESULT:      -6.0     21.870     23.677
REMARK  Name = JAK3_Inhibitor.pdbqt.pdb
REMARK  1 active torsions:
REMARK  status: ('A' for Active; 'I' for Inactive)
REMARK    1  A    between atoms: C_7  and  C_20
REMARK                            x       y       z     vdW  Elec       q    Type
REMARK                         _______ _______ _______ _____ _____    ______ ____
ROOT
ATOM      1  O   UNL     1      10.573  -5.681   9.570  0.00  0.00    +0.000 OA
ATOM      2  N   UNL     1      10.328  -7.943  10.126  0.00  0.00    +0.000 N 
ATOM      3  C   UNL     1       8.076  -8.031  10.554  0.00  0.00    +0.000 A 
ATOM      4  C   UNL     1       9.264  -8.763  10.504  0.00  0.00    +0.000 A 
ATOM      5  C   UNL     1       8.434  -6.673  10.182  0.00  0.00    +0.000 C 
ATOM      6  C   UNL     1       6.884  -8.632  10.906  0.00  0.00    +0.000 A 
ATOM      7  C   UNL     1       6.879 -10.003  11.217  0.00  0.00    +0.000 A 
ATOM      8  C   UNL     1       9.903  -6.638   9.908  0.00  0.00    +0.000 C 
ATOM      9  C   UNL     1       9.310 -10.108  10.799  0.00  0.00    +0.000 A 
ATOM     10  C   UNL     1       7.655  -5.642  10.091  0.00  0.00    +0.000 C 
ATOM     11  C   UNL     1       8.102 -10.712  11.155  0.00  0.00    +0.000 A 
ATOM     12  H   UNL     1      11.289  -8.236  10.017  0.00  0.00    +0.000 HD
ATOM     13  N   UNL     1       7.321  -3.252   9.614  0.00  0.00    +0.000 N 
ATOM     14  C   UNL     1       6.845  -4.485   9.977  0.00  0.00    +0.000 C 
ATOM     15  C   UNL     1       5.491  -4.369  10.194  0.00  0.00    +0.000 C 
ATOM     16  C   UNL     1       6.288  -2.352   9.598  0.00  0.00    +0.000 C 
ATOM     17  C   UNL     1       5.139  -3.020   9.954  0.00  0.00    +0.000 C 
ATOM     18  H   UNL     1       8.285  -3.041   9.393  0.00  0.00    +0.000 HD
ENDROOT
BRANCH   7  20
ATOM     19  N   UNL     1       4.468 -12.748  12.161  0.00  0.00    +0.000 NA
ATOM     20  C   UNL     1       5.636 -10.683  11.596  0.00  0.00    +0.000 A 
ATOM     21  C   UNL     1       4.433  -9.995  11.766  0.00  0.00    +0.000 A 
ATOM     22  C   UNL     1       5.576 -12.057  11.810  0.00  0.00    +0.000 A 
ATOM     23  C   UNL     1       3.265 -10.657  12.126  0.00  0.00    +0.000 A 
ATOM     24  C   UNL     1       3.338 -12.026  12.310  0.00  0.00    +0.000 A 
ENDBRANCH   7  20
TORSDOF 1
ENDMDL
MODEL 4
REMARK VINA RESULT:      -5.7     24.435     26.301
REMARK  Name = JAK3_Inhibitor.pdbqt.pdb
REMARK  1 active torsions:
REMARK  status: ('A' for Active; 'I' for Inactive)
REMARK    1  A    between atoms: C_7  and  C_20
REMARK                            x       y       z     vdW  Elec       q    Type
REMARK                         _______ _______ _______ _____ _____    ______ ____
ROOT
ATOM      1  O   UNL     1      10.798  -7.923   9.849  0.00  0.00    +0.000 OA
ATOM      2  N   UNL     1       8.478  -7.661  10.039  0.00  0.00    +0.000 N 
ATOM      3  C   UNL     1       7.914  -9.630  11.071  0.00  0.00    +0.000 A 
ATOM      4  C   UNL     1       7.431  -8.427  10.553  0.00  0.00    +0.000 A 
ATOM      5  C   UNL     1       9.352  -9.602  10.860  0.00  0.00    +0.000 C 
ATOM      6  C   UNL     1       7.059 -10.556  11.635  0.00  0.00    +0.000 A 
ATOM      7  C   UNL     1       5.684 -10.270  11.684  0.00  0.00    +0.000 A 
ATOM      8  C   UNL     1       9.697  -8.312  10.188  0.00  0.00    +0.000 C 
ATOM      9  C   UNL     1       6.093  -8.101  10.578  0.00  0.00    +0.000 A 
ATOM     10  C   UNL     1      10.219 -10.508  11.180  0.00  0.00    +0.000 C 
ATOM     11  C   UNL     1       5.232  -9.040  11.150  0.00  0.00    +0.000 A 
ATOM     12  H   UNL     1       8.389  -6.750   9.611  0.00  0.00    +0.000 HD
ATOM     13  N   UNL     1      12.544 -11.311  11.249  0.00  0.00    +0.000 N 
ATOM     14  C   UNL     1      11.208 -11.469  11.510  0.00  0.00    +0.000 C 
ATOM     15  C   UNL     1      11.039 -12.687  12.125  0.00  0.00    +0.000 C 
ATOM     16  C   UNL     1      13.228 -12.413  11.689  0.00  0.00    +0.000 C 
ATOM     17  C   UNL     1      12.316 -13.285  12.238  0.00  0.00    +0.000 C 
ATOM     18  H   UNL     1      12.959 -10.505  10.800  0.00  0.00    +0.000 HD
ENDROOT
BRANCH   7  20
ATOM     19  N   UNL     1       2.834 -11.651  13.736  0.00  0.00    +0.000 NA
ATOM     20  C   UNL     1       4.738 -11.224  12.275  0.00  0.00    +0.000 A 
ATOM     21  C   UNL     1       4.784 -12.590  11.990  0.00  0.00    +0.000 A 
ATOM     22  C   UNL     1       3.737 -10.828  13.156  0.00  0.00    +0.000 A 
ATOM     23  C   UNL     1       3.879 -13.479  12.559  0.00  0.00    +0.000 A 
ATOM     24  C   UNL     1       2.929 -12.959  13.421  0.00  0.00    +0.000 A 
ENDBRANCH   7  20
TORSDOF 1
ENDMDL
MODEL 5
REMARK VINA RESULT:      -5.4     24.741     25.951
REMARK  Name = JAK3_Inhibitor.pdbqt.pdb
REMARK  1 active torsions:
REMARK  status: ('A' for Active; 'I' for Inactive)
REMARK    1  A    between atoms: C_7  and  C_20
REMARK                            x       y       z     vdW  Elec       q    Type
REMARK                         _______ _______ _______ _____ _____    ______ ____
ROOT
ATOM      1  O   UNL     1      11.183 -13.804  12.089  0.00  0.00    +0.000 OA
ATOM      2  N   UNL     1      11.808 -11.623  11.506  0.00  0.00    +0.000 N 
ATOM      3  C   UNL     1       9.755 -10.699  11.067  0.00  0.00    +0.000 A 
ATOM      4  C   UNL     1      11.131 -10.468  11.113  0.00  0.00    +0.000 A 
ATOM      5  C   UNL     1       9.575 -12.087  11.457  0.00  0.00    +0.000 C 
ATOM      6  C   UNL     1       8.877  -9.698  10.702  0.00  0.00    +0.000 A 
ATOM      7  C   UNL     1       9.389  -8.430  10.375  0.00  0.00    +0.000 A 
ATOM      8  C   UNL     1      10.923 -12.669  11.738  0.00  0.00    +0.000 C 
ATOM      9  C   UNL     1      11.681  -9.244  10.802  0.00  0.00    +0.000 A 
ATOM     10  C   UNL     1       8.465 -12.747  11.556  0.00  0.00    +0.000 C 
ATOM     11  C   UNL     1      10.789  -8.233  10.434  0.00  0.00    +0.000 A 
ATOM     12  H   UNL     1      12.808 -11.713  11.615  0.00  0.00    +0.000 HD
ATOM     13  N   UNL     1       7.255 -14.829  12.061  0.00  0.00    +0.000 N 
ATOM     14  C   UNL     1       7.278 -13.512  11.681  0.00  0.00    +0.000 C 
ATOM     15  C   UNL     1       5.981 -13.113  11.460  0.00  0.00    +0.000 C 
ATOM     16  C   UNL     1       5.959 -15.273  12.083  0.00  0.00    +0.000 C 
ATOM     17  C   UNL     1       5.147 -14.226  11.713  0.00  0.00    +0.000 C 
ATOM     18  H   UNL     1       8.069 -15.384  12.289  0.00  0.00    +0.000 HD
ENDROOT
BRANCH   7  20
ATOM     19  N   UNL     1       8.163  -5.214   8.828  0.00  0.00    +0.000 NA
ATOM     20  C   UNL     1       8.493  -7.336   9.983  0.00  0.00    +0.000 A 
ATOM     21  C   UNL     1       7.145  -7.312  10.345  0.00  0.00    +0.000 A 
ATOM     22  C   UNL     1       8.930  -6.254   9.225  0.00  0.00    +0.000 A 
ATOM     23  C   UNL     1       6.312  -6.266   9.963  0.00  0.00    +0.000 A 
ATOM     24  C   UNL     1       6.868  -5.249   9.209  0.00  0.00    +0.000 A 
ENDBRANCH   7  20
TORSDOF 1
ENDMDL
MODEL 6
REMARK VINA RESULT:      -5.2     28.671     30.294
REMARK  Name = JAK3_Inhibitor.pdbqt.pdb
REMARK  1 active torsions:
REMARK  status: ('A' for Active; 'I' for Inactive)
REMARK    1  A    between atoms: C_7  and  C_20
REMARK                            x       y       z     vdW  Elec       q    Type
REMARK                         _______ _______ _______ _____ _____    ______ ____
ROOT
ATOM      1  O   UNL     1       5.092 -18.060   1.262  0.00  0.00    +0.000 OA
ATOM      2  N   UNL     1       3.047 -18.793   2.139  0.00  0.00    +0.000 N 
ATOM      3  C   UNL     1       3.620 -19.106   4.338  0.00  0.00    +0.000 A 
ATOM      4  C   UNL     1       2.589 -19.182   3.398  0.00  0.00    +0.000 A 
ATOM      5  C   UNL     1       4.786 -18.639   3.608  0.00  0.00    +0.000 C 
ATOM      6  C   UNL     1       3.404 -19.445   5.659  0.00  0.00    +0.000 A 
ATOM      7  C   UNL     1       2.123 -19.870   6.052  0.00  0.00    +0.000 A 
ATOM      8  C   UNL     1       4.392 -18.442   2.179  0.00  0.00    +0.000 C 
ATOM      9  C   UNL     1       1.318 -19.592   3.734  0.00  0.00    +0.000 A 
ATOM     10  C   UNL     1       5.976 -18.420   4.068  0.00  0.00    +0.000 C 
ATOM     11  C   UNL     1       1.104 -19.933   5.072  0.00  0.00    +0.000 A 
ATOM     12  H   UNL     1       2.495 -18.760   1.294  0.00  0.00    +0.000 HD
ATOM     13  N   UNL     1       8.310 -17.724   3.714  0.00  0.00    +0.000 N 
ATOM     14  C   UNL     1       7.295 -18.165   4.523  0.00  0.00    +0.000 C 
ATOM     15  C   UNL     1       7.796 -18.299   5.797  0.00  0.00    +0.000 C 
ATOM     16  C   UNL     1       9.452 -17.577   4.457  0.00  0.00    +0.000 C 
ATOM     17  C   UNL     1       9.161 -17.928   5.755  0.00  0.00    +0.000 C 
ATOM     18  H   UNL     1       8.227 -17.537   2.724  0.00  0.00    +0.000 HD
ENDROOT
BRANCH   7  20
ATOM     19  N   UNL     1       0.396 -21.327   9.074  0.00  0.00    +0.000 NA
ATOM     20  C   UNL     1       1.848 -20.240   7.445  0.00  0.00    +0.000 A 
ATOM     21  C   UNL     1       2.710 -19.897   8.489  0.00  0.00    +0.000 A 
ATOM     22  C   UNL     1       0.712 -20.954   7.814  0.00  0.00    +0.000 A 
ATOM     23  C   UNL     1       2.432 -20.257   9.803  0.00  0.00    +0.000 A 
ATOM     24  C   UNL     1       1.269 -20.967  10.039  0.00  0.00    +0.000 A 
ENDBRANCH   7  20
TORSDOF 1
ENDMDL
MODEL 7
REMARK VINA RESULT:      -5.2     29.585     32.047
REMARK  Name = JAK3_Inhibitor.pdbqt.pdb
REMARK  1 active torsions:
REMARK  status: ('A' for Active; 'I' for Inactive)
REMARK    1  A    between atoms: C_7  and  C_20
REMARK                            x       y       z     vdW  Elec       q    Type
REMARK                         _______ _______ _______ _____ _____    ______ ____
ROOT
ATOM      1  O   UNL     1     -16.555  -6.883  29.176  0.00  0.00    +0.000 OA
ATOM      2  N   UNL     1     -14.713  -5.445  29.336  0.00  0.00    +0.000 N 
ATOM      3  C   UNL     1     -13.183  -6.575  28.053  0.00  0.00    +0.000 A 
ATOM      4  C   UNL     1     -13.411  -5.440  28.833  0.00  0.00    +0.000 A 
ATOM      5  C   UNL     1     -14.427  -7.327  28.078  0.00  0.00    +0.000 C 
ATOM      6  C   UNL     1     -11.960  -6.790  27.449  0.00  0.00    +0.000 A 
ATOM      7  C   UNL     1     -10.938  -5.842  27.628  0.00  0.00    +0.000 A 
ATOM      8  C   UNL     1     -15.408  -6.574  28.918  0.00  0.00    +0.000 C 
ATOM      9  C   UNL     1     -12.442  -4.483  29.038  0.00  0.00    +0.000 A 
ATOM     10  C   UNL     1     -14.686  -8.454  27.495  0.00  0.00    +0.000 C 
ATOM     11  C   UNL     1     -11.207  -4.704  28.424  0.00  0.00    +0.000 A 
ATOM     12  H   UNL     1     -15.121  -4.734  29.926  0.00  0.00    +0.000 HD
ATOM     13  N   UNL     1     -16.245 -10.288  26.987  0.00  0.00    +0.000 N 
ATOM     14  C   UNL     1     -15.019  -9.685  26.876  0.00  0.00    +0.000 C 
ATOM     15  C   UNL     1     -14.226 -10.480  26.081  0.00  0.00    +0.000 C 
ATOM     16  C   UNL     1     -16.242 -11.458  26.274  0.00  0.00    +0.000 C 
ATOM     17  C   UNL     1     -15.000 -11.602  25.701  0.00  0.00    +0.000 C 
ATOM     18  H   UNL     1     -17.028  -9.925  27.513  0.00  0.00    +0.000 HD
ENDROOT
BRANCH   7  20
ATOM     19  N   UNL     1      -7.904  -7.534  26.154  0.00  0.00    +0.000 NA
ATOM     20  C   UNL     1      -9.623  -6.028  27.004  0.00  0.00    +0.000 A 
ATOM     21  C   UNL     1      -8.808  -4.950  26.651  0.00  0.00    +0.000 A 
ATOM     22  C   UNL     1      -9.105  -7.289  26.725  0.00  0.00    +0.000 A 
ATOM     23  C   UNL     1      -7.565  -5.147  26.060  0.00  0.00    +0.000 A 
ATOM     24  C   UNL     1      -7.164  -6.451  25.835  0.00  0.00    +0.000 A 
ENDBRANCH   7  20
TORSDOF 1
ENDMDL
MODEL 8
REMARK VINA RESULT:      -5.2     30.663     34.022
REMARK  Name = JAK3_Inhibitor.pdbqt.pdb
REMARK  1 active torsions:
REMARK  status: ('A' for Active; 'I' for Inactive)
REMARK    1  A    between atoms: C_7  and  C_20
REMARK                            x       y       z     vdW  Elec       q    Type
REMARK                         _______ _______ _______ _____ _____    ______ ____
ROOT
ATOM      1  O   UNL     1      -7.466 -16.600  27.577  0.00  0.00    +0.000 OA
ATOM      2  N   UNL     1      -8.625 -16.485  25.545  0.00  0.00    +0.000 N 
ATOM      3  C   UNL     1      -6.879 -16.567  24.059  0.00  0.00    +0.000 A 
ATOM      4  C   UNL     1      -8.266 -16.481  24.197  0.00  0.00    +0.000 A 
ATOM      5  C   UNL     1      -6.352 -16.629  25.412  0.00  0.00    +0.000 C 
ATOM      6  C   UNL     1      -6.286 -16.579  22.812  0.00  0.00    +0.000 A 
ATOM      7  C   UNL     1      -7.103 -16.504  21.671  0.00  0.00    +0.000 A 
ATOM      8  C   UNL     1      -7.504 -16.573  26.363  0.00  0.00    +0.000 C 
ATOM      9  C   UNL     1      -9.107 -16.405  23.109  0.00  0.00    +0.000 A 
ATOM     10  C   UNL     1      -5.113 -16.714  25.779  0.00  0.00    +0.000 C 
ATOM     11  C   UNL     1      -8.504 -16.418  21.849  0.00  0.00    +0.000 A 
ATOM     12  H   UNL     1      -9.567 -16.432  25.905  0.00  0.00    +0.000 HD
ATOM     13  N   UNL     1      -3.415 -16.857  27.554  0.00  0.00    +0.000 N 
ATOM     14  C   UNL     1      -3.773 -16.809  26.232  0.00  0.00    +0.000 C 
ATOM     15  C   UNL     1      -2.623 -16.870  25.480  0.00  0.00    +0.000 C 
ATOM     16  C   UNL     1      -2.051 -16.947  27.653  0.00  0.00    +0.000 C 
ATOM     17  C   UNL     1      -1.534 -16.956  26.379  0.00  0.00    +0.000 C 
ATOM     18  H   UNL     1      -4.059 -16.830  28.333  0.00  0.00    +0.000 HD
ENDROOT
BRANCH   7  20
ATOM     19  N   UNL     1      -4.586 -16.891  18.886  0.00  0.00    +0.000 NA
ATOM     20  C   UNL     1      -6.517 -16.514  20.325  0.00  0.00    +0.000 A 
ATOM     21  C   UNL     1      -7.257 -16.177  19.190  0.00  0.00    +0.000 A 
ATOM     22  C   UNL     1      -5.189 -16.860  20.096  0.00  0.00    +0.000 A 
ATOM     23  C   UNL     1      -6.684 -16.193  17.923  0.00  0.00    +0.000 A 
ATOM     24  C   UNL     1      -5.353 -16.556  17.828  0.00  0.00    +0.000 A 
ENDBRANCH   7  20
TORSDOF 1
ENDMDL
MODEL 9
REMARK VINA RESULT:      -5.1      7.457      9.700
REMARK  Name = JAK3_Inhibitor.pdbqt.pdb
REMARK  1 active torsions:
REMARK  status: ('A' for Active; 'I' for Inactive)
REMARK    1  A    between atoms: C_7  and  C_20
REMARK                            x       y       z     vdW  Elec       q    Type
REMARK                         _______ _______ _______ _____ _____    ______ ____
ROOT
ATOM      1  O   UNL     1      -8.202   9.753  11.069  0.00  0.00    +0.000 OA
ATOM      2  N   UNL     1      -6.043  10.455  11.645  0.00  0.00    +0.000 N 
ATOM      3  C   UNL     1      -4.835   9.576   9.904  0.00  0.00    +0.000 A 
ATOM      4  C   UNL     1      -4.772  10.316  11.087  0.00  0.00    +0.000 A 
ATOM      5  C   UNL     1      -6.238   9.240   9.724  0.00  0.00    +0.000 C 
ATOM      6  C   UNL     1      -3.697   9.307   9.171  0.00  0.00    +0.000 A 
ATOM      7  C   UNL     1      -2.460   9.791   9.633  0.00  0.00    +0.000 A 
ATOM      8  C   UNL     1      -7.005   9.821  10.868  0.00  0.00    +0.000 C 
ATOM      9  C   UNL     1      -3.585  10.811  11.580  0.00  0.00    +0.000 A 
ATOM     10  C   UNL     1      -6.774   8.559   8.762  0.00  0.00    +0.000 C 
ATOM     11  C   UNL     1      -2.436  10.537  10.835  0.00  0.00    +0.000 A 
ATOM     12  H   UNL     1      -6.262  10.948  12.499  0.00  0.00    +0.000 HD
ATOM     13  N   UNL     1      -8.757   7.575   7.688  0.00  0.00    +0.000 N 
ATOM     14  C   UNL     1      -7.410   7.821   7.732  0.00  0.00    +0.000 C 
ATOM     15  C   UNL     1      -6.836   7.234   6.627  0.00  0.00    +0.000 C 
ATOM     16  C   UNL     1      -9.049   6.838   6.571  0.00  0.00    +0.000 C 
ATOM     17  C   UNL     1      -7.873   6.613   5.893  0.00  0.00    +0.000 C 
ATOM     18  H   UNL     1      -9.430   7.889   8.375  0.00  0.00    +0.000 HD
ENDROOT
BRANCH   7  20
ATOM     19  N   UNL     1       1.191   9.197   8.889  0.00  0.00    +0.000 NA
ATOM     20  C   UNL     1      -1.224   9.529   8.887  0.00  0.00    +0.000 A 
ATOM     21  C   UNL     1      -1.215   9.358   7.501  0.00  0.00    +0.000 A 
ATOM     22  C   UNL     1       0.015   9.435   9.512  0.00  0.00    +0.000 A 
ATOM     23  C   UNL     1      -0.033   9.111   6.812  0.00  0.00    +0.000 A 
ATOM     24  C   UNL     1       1.135   9.040   7.550  0.00  0.00    +0.000 A 
ENDBRANCH   7  20
TORSDOF 1
ENDMDL
