MODEL 1
REMARK VINA RESULT:      -4.3      0.000      0.000
REMARK  Name = Leptomycin.pdbqt.pdb
REMARK  12 active torsions:
REMARK  status: ('A' for Active; 'I' for Inactive)
REMARK    1  A    between atoms: C_2  and  C_4
REMARK    2  A    between atoms: C_5  and  C_6
REMARK    3  A    between atoms: C_6  and  C_7
REMARK    4  A    between atoms: C_10  and  C_11
REMARK    5  A    between atoms: C_10  and  C_21
REMARK    6  A    between atoms: C_12  and  C_13
REMARK    7  A    between atoms: C_23  and  C_25
REMARK    8  A    between atoms: C_25  and  C_27
REMARK    9  A    between atoms: C_27  and  C_29
REMARK   10  A    between atoms: C_29  and  O_30
REMARK   11  A    between atoms: C_29  and  C_32
REMARK   12  A    between atoms: C_38  and  O_40
REMARK                            x       y       z     vdW  Elec       q    Type
REMARK                         _______ _______ _______ _____ _____    ______ ____
ROOT
ATOM      1  C   UNL     1     -10.377 -19.728   6.855  0.00  0.00    +0.000 C 
ATOM      2  C   UNL     1     -11.631 -20.042   6.910  0.00  0.00    +0.000 C 
ATOM      3  C   UNL     1     -12.006 -21.475   7.152  0.00  0.00    +0.000 C 
ATOM      4  C   UNL     1      -9.020 -19.320   6.835  0.00  0.00    +0.000 C 
ATOM      5  C   UNL     1      -8.294 -19.554   5.519  0.00  0.00    +0.000 C 
ENDROOT
BRANCH   2   6
ATOM      6  C   UNL     1     -12.573 -19.032   7.230  0.00  0.00    +0.000 C 
ATOM      7  C   UNL     1     -13.322 -18.136   7.511  0.00  0.00    +0.000 C 
BRANCH   7   8
ATOM      8  C   UNL     1     -14.175 -16.921   7.887  0.00  0.00    +0.000 C 
BRANCH   8   9
ATOM      9  C   UNL     1     -14.791 -15.693   8.233  0.00  0.00    +0.000 C 
ATOM     10  C   UNL     1     -14.822 -14.576   7.236  0.00  0.00    +0.000 C 
ATOM     11  C   UNL     1     -15.282 -15.461   9.541  0.00  0.00    +0.000 C 
ATOM     12  C   UNL     1     -15.657 -15.425  10.783  0.00  0.00    +0.000 C 
BRANCH  12  13
ATOM     13  C   UNL     1     -15.302 -16.558  11.565  0.00  0.00    +0.000 C 
ATOM     14  C   UNL     1     -15.077 -17.459  12.326  0.00  0.00    +0.000 C 
BRANCH  14  15
ATOM     15  C   UNL     1     -14.897 -18.460  13.315  0.00  0.00    +0.000 A 
ATOM     16  O   UNL     1     -16.002 -19.393  13.505  0.00  0.00    +0.000 OA
ATOM     17  C   UNL     1     -15.938 -20.442  14.420  0.00  0.00    +0.000 A 
ATOM     18  O   UNL     1     -16.819 -21.270  14.591  0.00  0.00    +0.000 OA
ATOM     19  C   UNL     1     -14.693 -20.451  15.129  0.00  0.00    +0.000 A 
ATOM     20  C   UNL     1     -13.764 -19.709  15.015  0.00  0.00    +0.000 A 
ATOM     21  C   UNL     1     -13.683 -18.616  14.124  0.00  0.00    +0.000 A 
ATOM     22  C   UNL     1     -12.444 -17.782  14.036  0.00  0.00    +0.000 C 
ENDBRANCH  14  15
ENDBRANCH  12  13
BRANCH  12  23
ATOM     23  C   UNL     1     -16.351 -14.288  11.265  0.00  0.00    +0.000 C 
ATOM     24  C   UNL     1     -17.096 -13.056  11.792  0.00  0.00    +0.000 C 
ENDBRANCH  12  23
ENDBRANCH   8   9
ENDBRANCH   7   8
ENDBRANCH   2   6
BRANCH   4  25
ATOM     25  C   UNL     1      -8.566 -18.262   7.790  0.00  0.00    +0.000 C 
ATOM     26  O   UNL     1      -7.554 -18.391   8.487  0.00  0.00    +0.000 OA
BRANCH  25  27
ATOM     27  C   UNL     1      -9.427 -17.047   7.916  0.00  0.00    +0.000 C 
ATOM     28  C   UNL     1      -9.665 -16.162   6.695  0.00  0.00    +0.000 C 
BRANCH  27  29
ATOM     29  C   UNL     1      -9.775 -16.575   9.253  0.00  0.00    +0.000 C 
BRANCH  29  30
ATOM     30  C   UNL     1     -10.757 -17.114  10.176  0.00  0.00    +0.000 C 
ATOM     31  C   UNL     1     -11.749 -16.196  10.859  0.00  0.00    +0.000 C 
ATOM     32  C   UNL     1     -10.980 -18.497  10.366  0.00  0.00    +0.000 C 
ATOM     33  C   UNL     1     -11.239 -19.862  10.611  0.00  0.00    +0.000 C 
ATOM     34  C   UNL     1     -10.082 -20.806  10.725  0.00  0.00    +0.000 C 
ATOM     35  C   UNL     1     -12.449 -20.304  10.616  0.00  0.00    +0.000 C 
ATOM     36  C   UNL     1     -13.792 -20.773  10.602  0.00  0.00    +0.000 C 
ATOM     37  O   UNL     1     -14.516 -20.673   9.629  0.00  0.00    +0.000 OA
BRANCH  36  38
ATOM     38  O   UNL     1     -14.195 -21.316  11.761  0.00  0.00    +0.000 OA
ATOM     39  H   UNL     1     -14.473 -20.551  12.306  0.00  0.00    +0.000 HD
ENDBRANCH  36  38
ENDBRANCH  29  30
BRANCH  29  40
ATOM     40  O   UNL     1      -9.039 -15.483   9.719  0.00  0.00    +0.000 OA
ATOM     41  H   UNL     1      -8.141 -15.744  10.011  0.00  0.00    +0.000 HD
ENDBRANCH  29  40
ENDBRANCH  27  29
ENDBRANCH  25  27
ENDBRANCH   4  25
TORSDOF 12
ENDMDL
MODEL 2
REMARK VINA RESULT:      -4.0      4.138      7.661
REMARK  Name = Leptomycin.pdbqt.pdb
REMARK  12 active torsions:
REMARK  status: ('A' for Active; 'I' for Inactive)
REMARK    1  A    between atoms: C_2  and  C_4
REMARK    2  A    between atoms: C_5  and  C_6
REMARK    3  A    between atoms: C_6  and  C_7
REMARK    4  A    between atoms: C_10  and  C_11
REMARK    5  A    between atoms: C_10  and  C_21
REMARK    6  A    between atoms: C_12  and  C_13
REMARK    7  A    between atoms: C_23  and  C_25
REMARK    8  A    between atoms: C_25  and  C_27
REMARK    9  A    between atoms: C_27  and  C_29
REMARK   10  A    between atoms: C_29  and  O_30
REMARK   11  A    between atoms: C_29  and  C_32
REMARK   12  A    between atoms: C_38  and  O_40
REMARK                            x       y       z     vdW  Elec       q    Type
REMARK                         _______ _______ _______ _____ _____    ______ ____
ROOT
ATOM      1  C   UNL     1     -16.031 -13.996   9.511  0.00  0.00    +0.000 C 
ATOM      2  C   UNL     1     -16.025 -13.813  10.791  0.00  0.00    +0.000 C 
ATOM      3  C   UNL     1     -17.160 -13.056  11.417  0.00  0.00    +0.000 C 
ATOM      4  C   UNL     1     -16.013 -14.270   8.120  0.00  0.00    +0.000 C 
ATOM      5  C   UNL     1     -15.513 -13.132   7.244  0.00  0.00    +0.000 C 
ENDROOT
BRANCH   2   6
ATOM      6  C   UNL     1     -15.271 -14.696  11.603  0.00  0.00    +0.000 C 
ATOM      7  C   UNL     1     -14.655 -15.414  12.344  0.00  0.00    +0.000 C 
BRANCH   7   8
ATOM      8  C   UNL     1     -13.914 -16.259  13.384  0.00  0.00    +0.000 C 
BRANCH   8   9
ATOM      9  C   UNL     1     -13.301 -17.201  14.246  0.00  0.00    +0.000 C 
ATOM     10  C   UNL     1     -12.435 -18.277  13.669  0.00  0.00    +0.000 C 
ATOM     11  C   UNL     1     -13.578 -17.213  15.635  0.00  0.00    +0.000 C 
ATOM     12  C   UNL     1     -13.962 -17.081  16.868  0.00  0.00    +0.000 C 
BRANCH  12  13
ATOM     13  C   UNL     1     -14.968 -16.105  17.097  0.00  0.00    +0.000 C 
ATOM     14  C   UNL     1     -15.853 -15.351  17.403  0.00  0.00    +0.000 C 
BRANCH  14  15
ATOM     15  C   UNL     1     -16.915 -14.539  17.877  0.00  0.00    +0.000 A 
ATOM     16  O   UNL     1     -18.229 -14.778  17.289  0.00  0.00    +0.000 OA
ATOM     17  C   UNL     1     -19.359 -14.072  17.692  0.00  0.00    +0.000 A 
ATOM     18  O   UNL     1     -20.486 -14.258  17.258  0.00  0.00    +0.000 OA
ATOM     19  C   UNL     1     -19.049 -13.105  18.703  0.00  0.00    +0.000 A 
ATOM     20  C   UNL     1     -17.995 -12.868  19.210  0.00  0.00    +0.000 A 
ATOM     21  C   UNL     1     -16.771 -13.510  18.913  0.00  0.00    +0.000 A 
ATOM     22  C   UNL     1     -15.517 -13.160  19.649  0.00  0.00    +0.000 C 
ENDBRANCH  14  15
ENDBRANCH  12  13
BRANCH  12  23
ATOM     23  C   UNL     1     -13.387 -17.908  17.865  0.00  0.00    +0.000 C 
ATOM     24  C   UNL     1     -12.767 -18.797  18.949  0.00  0.00    +0.000 C 
ENDBRANCH  12  23
ENDBRANCH   8   9
ENDBRANCH   7   8
ENDBRANCH   2   6
BRANCH   4  25
ATOM     25  C   UNL     1     -15.930 -15.692   7.661  0.00  0.00    +0.000 C 
ATOM     26  O   UNL     1     -16.496 -16.089   6.637  0.00  0.00    +0.000 OA
BRANCH  25  27
ATOM     27  C   UNL     1     -15.175 -16.643   8.531  0.00  0.00    +0.000 C 
ATOM     28  C   UNL     1     -13.654 -16.536   8.621  0.00  0.00    +0.000 C 
BRANCH  27  29
ATOM     29  C   UNL     1     -15.865 -17.825   9.036  0.00  0.00    +0.000 C 
BRANCH  29  30
ATOM     30  C   UNL     1     -16.414 -18.056  10.360  0.00  0.00    +0.000 C 
ATOM     31  C   UNL     1     -15.707 -18.976  11.332  0.00  0.00    +0.000 C 
ATOM     32  C   UNL     1     -17.505 -17.331  10.896  0.00  0.00    +0.000 C 
ATOM     33  C   UNL     1     -18.596 -16.654  11.479  0.00  0.00    +0.000 C 
ATOM     34  C   UNL     1     -19.800 -16.366  10.636  0.00  0.00    +0.000 C 
ATOM     35  C   UNL     1     -18.508 -16.190  12.678  0.00  0.00    +0.000 C 
ATOM     36  C   UNL     1     -18.384 -15.671  13.996  0.00  0.00    +0.000 C 
ATOM     37  O   UNL     1     -17.539 -14.853  14.307  0.00  0.00    +0.000 OA
BRANCH  36  38
ATOM     38  O   UNL     1     -19.266 -16.180  14.870  0.00  0.00    +0.000 OA
ATOM     39  H   UNL     1     -18.822 -16.103  15.739  0.00  0.00    +0.000 HD
ENDBRANCH  36  38
ENDBRANCH  29  30
BRANCH  29  40
ATOM     40  O   UNL     1     -16.056 -18.856   8.113  0.00  0.00    +0.000 OA
ATOM     41  H   UNL     1     -16.909 -18.769   7.639  0.00  0.00    +0.000 HD
ENDBRANCH  29  40
ENDBRANCH  27  29
ENDBRANCH  25  27
ENDBRANCH   4  25
TORSDOF 12
ENDMDL
MODEL 3
REMARK VINA RESULT:      -3.8     20.873     24.941
REMARK  Name = Leptomycin.pdbqt.pdb
REMARK  12 active torsions:
REMARK  status: ('A' for Active; 'I' for Inactive)
REMARK    1  A    between atoms: C_2  and  C_4
REMARK    2  A    between atoms: C_5  and  C_6
REMARK    3  A    between atoms: C_6  and  C_7
REMARK    4  A    between atoms: C_10  and  C_11
REMARK    5  A    between atoms: C_10  and  C_21
REMARK    6  A    between atoms: C_12  and  C_13
REMARK    7  A    between atoms: C_23  and  C_25
REMARK    8  A    between atoms: C_25  and  C_27
REMARK    9  A    between atoms: C_27  and  C_29
REMARK   10  A    between atoms: C_29  and  O_30
REMARK   11  A    between atoms: C_29  and  C_32
REMARK   12  A    between atoms: C_38  and  O_40
REMARK                            x       y       z     vdW  Elec       q    Type
REMARK                         _______ _______ _______ _____ _____    ______ ____
ROOT
ATOM      1  C   UNL     1     -13.251   0.882  27.256  0.00  0.00    +0.000 C 
ATOM      2  C   UNL     1     -13.876   1.999  27.072  0.00  0.00    +0.000 C 
ATOM      3  C   UNL     1     -14.024   2.942  28.230  0.00  0.00    +0.000 C 
ATOM      4  C   UNL     1     -12.532  -0.333  27.389  0.00  0.00    +0.000 C 
ATOM      5  C   UNL     1     -13.314  -1.483  28.005  0.00  0.00    +0.000 C 
ENDROOT
BRANCH   2   6
ATOM      6  C   UNL     1     -13.966   2.522  25.758  0.00  0.00    +0.000 C 
ATOM      7  C   UNL     1     -14.005   3.015  24.663  0.00  0.00    +0.000 C 
BRANCH   7   8
ATOM      8  C   UNL     1     -13.987   3.740  23.314  0.00  0.00    +0.000 C 
BRANCH   8   9
ATOM      9  C   UNL     1     -14.003   4.228  21.984  0.00  0.00    +0.000 C 
ATOM     10  C   UNL     1     -15.305   4.337  21.253  0.00  0.00    +0.000 C 
ATOM     11  C   UNL     1     -12.800   4.513  21.293  0.00  0.00    +0.000 C 
ATOM     12  C   UNL     1     -11.606   4.703  20.819  0.00  0.00    +0.000 C 
BRANCH  12  13
ATOM     13  C   UNL     1     -10.538   4.306  21.668  0.00  0.00    +0.000 C 
ATOM     14  C   UNL     1      -9.676   4.071  22.470  0.00  0.00    +0.000 C 
BRANCH  14  15
ATOM     15  C   UNL     1      -8.714   3.891  23.497  0.00  0.00    +0.000 A 
ATOM     16  O   UNL     1      -7.341   4.264  23.176  0.00  0.00    +0.000 OA
ATOM     17  C   UNL     1      -6.310   4.167  24.106  0.00  0.00    +0.000 A 
ATOM     18  O   UNL     1      -5.152   4.499  23.899  0.00  0.00    +0.000 OA
ATOM     19  C   UNL     1      -6.773   3.649  25.360  0.00  0.00    +0.000 A 
ATOM     20  C   UNL     1      -7.879   3.325  25.669  0.00  0.00    +0.000 A 
ATOM     21  C   UNL     1      -9.021   3.380  24.838  0.00  0.00    +0.000 A 
ATOM     22  C   UNL     1     -10.370   2.991  25.353  0.00  0.00    +0.000 C 
ENDBRANCH  14  15
ENDBRANCH  12  13
BRANCH  12  23
ATOM     23  C   UNL     1     -11.455   5.254  19.522  0.00  0.00    +0.000 C 
ATOM     24  C   UNL     1     -11.285   5.846  18.119  0.00  0.00    +0.000 C 
ENDBRANCH  12  23
ENDBRANCH   8   9
ENDBRANCH   7   8
ENDBRANCH   2   6
BRANCH   4  25
ATOM     25  C   UNL     1     -11.366  -0.588  26.488  0.00  0.00    +0.000 C 
ATOM     26  O   UNL     1     -11.465  -0.568  25.257  0.00  0.00    +0.000 OA
BRANCH  25  27
ATOM     27  C   UNL     1     -10.066  -0.932  27.141  0.00  0.00    +0.000 C 
ATOM     28  C   UNL     1      -9.315   0.135  27.933  0.00  0.00    +0.000 C 
BRANCH  27  29
ATOM     29  C   UNL     1      -9.405  -2.178  26.765  0.00  0.00    +0.000 C 
BRANCH  29  30
ATOM     30  C   UNL     1      -9.344  -3.428  27.500  0.00  0.00    +0.000 C 
ATOM     31  C   UNL     1      -9.858  -3.505  28.922  0.00  0.00    +0.000 C 
ATOM     32  C   UNL     1      -8.987  -4.666  26.916  0.00  0.00    +0.000 C 
ATOM     33  C   UNL     1      -8.626  -5.926  26.396  0.00  0.00    +0.000 C 
ATOM     34  C   UNL     1      -7.469  -6.010  25.448  0.00  0.00    +0.000 C 
ATOM     35  C   UNL     1      -9.350  -6.963  26.640  0.00  0.00    +0.000 C 
ATOM     36  C   UNL     1     -10.174  -8.091  26.908  0.00  0.00    +0.000 C 
ATOM     37  O   UNL     1     -11.345  -8.146  26.584  0.00  0.00    +0.000 OA
BRANCH  36  38
ATOM     38  O   UNL     1      -9.550  -9.079  27.568  0.00  0.00    +0.000 OA
ATOM     39  H   UNL     1      -8.635  -9.067  27.220  0.00  0.00    +0.000 HD
ENDBRANCH  36  38
ENDBRANCH  29  30
BRANCH  29  40
ATOM     40  O   UNL     1      -8.780  -2.178  25.515  0.00  0.00    +0.000 OA
ATOM     41  H   UNL     1      -8.860  -3.044  25.066  0.00  0.00    +0.000 HD
ENDBRANCH  29  40
ENDBRANCH  27  29
ENDBRANCH  25  27
ENDBRANCH   4  25
TORSDOF 12
ENDMDL
MODEL 4
REMARK VINA RESULT:      -3.4     20.450     24.544
REMARK  Name = Leptomycin.pdbqt.pdb
REMARK  12 active torsions:
REMARK  status: ('A' for Active; 'I' for Inactive)
REMARK    1  A    between atoms: C_2  and  C_4
REMARK    2  A    between atoms: C_5  and  C_6
REMARK    3  A    between atoms: C_6  and  C_7
REMARK    4  A    between atoms: C_10  and  C_11
REMARK    5  A    between atoms: C_10  and  C_21
REMARK    6  A    between atoms: C_12  and  C_13
REMARK    7  A    between atoms: C_23  and  C_25
REMARK    8  A    between atoms: C_25  and  C_27
REMARK    9  A    between atoms: C_27  and  C_29
REMARK   10  A    between atoms: C_29  and  O_30
REMARK   11  A    between atoms: C_29  and  C_32
REMARK   12  A    between atoms: C_38  and  O_40
REMARK                            x       y       z     vdW  Elec       q    Type
REMARK                         _______ _______ _______ _____ _____    ______ ____
ROOT
ATOM      1  C   UNL     1       9.868 -11.710  13.549  0.00  0.00    +0.000 C 
ATOM      2  C   UNL     1      11.124 -11.400  13.566  0.00  0.00    +0.000 C 
ATOM      3  C   UNL     1      12.052 -12.203  14.430  0.00  0.00    +0.000 C 
ATOM      4  C   UNL     1       8.492 -12.036  13.454  0.00  0.00    +0.000 C 
ATOM      5  C   UNL     1       7.622 -11.507  14.583  0.00  0.00    +0.000 C 
ENDROOT
BRANCH   2   6
ATOM      6  C   UNL     1      11.667 -10.691  12.466  0.00  0.00    +0.000 C 
ATOM      7  C   UNL     1      12.067 -10.068  11.520  0.00  0.00    +0.000 C 
BRANCH   7   8
ATOM      8  C   UNL     1      12.458  -9.241  10.292  0.00  0.00    +0.000 C 
BRANCH   8   9
ATOM      9  C   UNL     1      12.716  -8.326   9.242  0.00  0.00    +0.000 C 
ATOM     10  C   UNL     1      13.817  -8.610   8.268  0.00  0.00    +0.000 C 
ATOM     11  C   UNL     1      12.027  -7.091   9.159  0.00  0.00    +0.000 C 
ATOM     12  C   UNL     1      11.312  -6.011   9.254  0.00  0.00    +0.000 C 
BRANCH  12  13
ATOM     13  C   UNL     1      10.496  -5.914  10.413  0.00  0.00    +0.000 C 
ATOM     14  C   UNL     1       9.720  -5.758  11.317  0.00  0.00    +0.000 C 
BRANCH  14  15
ATOM     15  C   UNL     1       8.722  -5.508  12.293  0.00  0.00    +0.000 A 
ATOM     16  O   UNL     1       7.406  -5.124  11.793  0.00  0.00    +0.000 OA
ATOM     17  C   UNL     1       6.331  -4.884  12.646  0.00  0.00    +0.000 A 
ATOM     18  O   UNL     1       5.203  -4.596  12.278  0.00  0.00    +0.000 OA
ATOM     19  C   UNL     1       6.701  -5.039  14.022  0.00  0.00    +0.000 A 
ATOM     20  C   UNL     1       7.760  -5.344  14.480  0.00  0.00    +0.000 A 
ATOM     21  C   UNL     1       8.930  -5.629  13.740  0.00  0.00    +0.000 A 
ATOM     22  C   UNL     1      10.193  -6.048  14.423  0.00  0.00    +0.000 C 
ENDBRANCH  14  15
ENDBRANCH  12  13
BRANCH  12  23
ATOM     23  C   UNL     1      11.407  -5.026   8.240  0.00  0.00    +0.000 C 
ATOM     24  C   UNL     1      11.505  -3.965   7.138  0.00  0.00    +0.000 C 
ENDBRANCH  12  23
ENDBRANCH   8   9
ENDBRANCH   7   8
ENDBRANCH   2   6
BRANCH   4  25
ATOM     25  C   UNL     1       7.910 -12.341  12.110  0.00  0.00    +0.000 C 
ATOM     26  O   UNL     1       7.785 -13.497  11.691  0.00  0.00    +0.000 OA
BRANCH  25  27
ATOM     27  C   UNL     1       7.534 -11.177  11.252  0.00  0.00    +0.000 C 
ATOM     28  C   UNL     1       8.599 -10.496  10.395  0.00  0.00    +0.000 C 
BRANCH  27  29
ATOM     29  C   UNL     1       6.241 -10.536  11.474  0.00  0.00    +0.000 C 
BRANCH  29  30
ATOM     30  C   UNL     1       5.926  -9.119  11.501  0.00  0.00    +0.000 C 
ATOM     31  C   UNL     1       6.183  -8.302  12.749  0.00  0.00    +0.000 C 
ATOM     32  C   UNL     1       5.543  -8.378  10.359  0.00  0.00    +0.000 C 
ATOM     33  C   UNL     1       5.143  -7.588   9.261  0.00  0.00    +0.000 C 
ATOM     34  C   UNL     1       4.159  -8.156   8.284  0.00  0.00    +0.000 C 
ATOM     35  C   UNL     1       5.703  -6.449   9.040  0.00  0.00    +0.000 C 
ATOM     36  C   UNL     1       6.345  -5.202   8.806  0.00  0.00    +0.000 C 
ATOM     37  O   UNL     1       7.543  -5.102   8.611  0.00  0.00    +0.000 OA
BRANCH  36  38
ATOM     38  O   UNL     1       5.519  -4.145   8.839  0.00  0.00    +0.000 OA
ATOM     39  H   UNL     1       6.048  -3.434   9.257  0.00  0.00    +0.000 HD
ENDBRANCH  36  38
ENDBRANCH  29  30
BRANCH  29  40
ATOM     40  O   UNL     1       5.158 -11.401  11.645  0.00  0.00    +0.000 OA
ATOM     41  H   UNL     1       4.702 -11.590  10.799  0.00  0.00    +0.000 HD
ENDBRANCH  29  40
ENDBRANCH  27  29
ENDBRANCH  25  27
ENDBRANCH   4  25
TORSDOF 12
ENDMDL
MODEL 5
REMARK VINA RESULT:      -3.4     22.898     25.777
REMARK  Name = Leptomycin.pdbqt.pdb
REMARK  12 active torsions:
REMARK  status: ('A' for Active; 'I' for Inactive)
REMARK    1  A    between atoms: C_2  and  C_4
REMARK    2  A    between atoms: C_5  and  C_6
REMARK    3  A    between atoms: C_6  and  C_7
REMARK    4  A    between atoms: C_10  and  C_11
REMARK    5  A    between atoms: C_10  and  C_21
REMARK    6  A    between atoms: C_12  and  C_13
REMARK    7  A    between atoms: C_23  and  C_25
REMARK    8  A    between atoms: C_25  and  C_27
REMARK    9  A    between atoms: C_27  and  C_29
REMARK   10  A    between atoms: C_29  and  O_30
REMARK   11  A    between atoms: C_29  and  C_32
REMARK   12  A    between atoms: C_38  and  O_40
REMARK                            x       y       z     vdW  Elec       q    Type
REMARK                         _______ _______ _______ _____ _____    ______ ____
ROOT
ATOM      1  C   UNL     1     -12.783   3.620  -0.202  0.00  0.00    +0.000 C 
ATOM      2  C   UNL     1     -12.114   4.365   0.617  0.00  0.00    +0.000 C 
ATOM      3  C   UNL     1     -10.627   4.474   0.442  0.00  0.00    +0.000 C 
ATOM      4  C   UNL     1     -13.571   2.858  -1.101  0.00  0.00    +0.000 C 
ATOM      5  C   UNL     1     -13.601   1.363  -0.827  0.00  0.00    +0.000 C 
ENDROOT
BRANCH   2   6
ATOM      6  C   UNL     1     -12.792   5.401   1.306  0.00  0.00    +0.000 C 
ATOM      7  C   UNL     1     -13.311   6.294   1.920  0.00  0.00    +0.000 C 
BRANCH   7   8
ATOM      8  C   UNL     1     -13.862   7.451   2.759  0.00  0.00    +0.000 C 
BRANCH   8   9
ATOM      9  C   UNL     1     -14.300   8.420   3.694  0.00  0.00    +0.000 C 
ATOM     10  C   UNL     1     -15.354   9.406   3.297  0.00  0.00    +0.000 C 
ATOM     11  C   UNL     1     -13.683   8.547   4.963  0.00  0.00    +0.000 C 
ATOM     12  C   UNL     1     -12.993   8.524   6.062  0.00  0.00    +0.000 C 
BRANCH  12  13
ATOM     13  C   UNL     1     -11.898   7.619   6.082  0.00  0.00    +0.000 C 
ATOM     14  C   UNL     1     -10.918   6.934   6.196  0.00  0.00    +0.000 C 
BRANCH  14  15
ATOM     15  C   UNL     1      -9.722   6.208   6.434  0.00  0.00    +0.000 A 
ATOM     16  O   UNL     1      -9.252   6.166   7.815  0.00  0.00    +0.000 OA
ATOM     17  C   UNL     1      -8.110   5.460   8.187  0.00  0.00    +0.000 A 
ATOM     18  O   UNL     1      -7.695   5.363   9.332  0.00  0.00    +0.000 OA
ATOM     19  C   UNL     1      -7.484   4.832   7.061  0.00  0.00    +0.000 A 
ATOM     20  C   UNL     1      -7.825   4.843   5.917  0.00  0.00    +0.000 A 
ATOM     21  C   UNL     1      -8.962   5.502   5.398  0.00  0.00    +0.000 A 
ATOM     22  C   UNL     1      -9.316   5.404   3.948  0.00  0.00    +0.000 C 
ENDBRANCH  14  15
ENDBRANCH  12  13
BRANCH  12  23
ATOM     23  C   UNL     1     -13.353   9.390   7.124  0.00  0.00    +0.000 C 
ATOM     24  C   UNL     1     -13.738  10.333   8.271  0.00  0.00    +0.000 C 
ENDBRANCH  12  23
ENDBRANCH   8   9
ENDBRANCH   7   8
ENDBRANCH   2   6
BRANCH   4  25
ATOM     25  C   UNL     1     -14.687   3.530  -1.837  0.00  0.00    +0.000 C 
ATOM     26  O   UNL     1     -14.587   4.679  -2.281  0.00  0.00    +0.000 OA
BRANCH  25  27
ATOM     27  C   UNL     1     -15.968   2.772  -1.967  0.00  0.00    +0.000 C 
ATOM     28  C   UNL     1     -16.470   2.373  -3.353  0.00  0.00    +0.000 C 
BRANCH  27  29
ATOM     29  C   UNL     1     -16.850   2.690  -0.808  0.00  0.00    +0.000 C 
BRANCH  29  30
ATOM     30  C   UNL     1     -17.772   3.689  -0.299  0.00  0.00    +0.000 C 
ATOM     31  C   UNL     1     -19.212   3.324  -0.006  0.00  0.00    +0.000 C 
ATOM     32  C   UNL     1     -17.376   4.980   0.122  0.00  0.00    +0.000 C 
ATOM     33  C   UNL     1     -17.047   6.285   0.543  0.00  0.00    +0.000 C 
ATOM     34  C   UNL     1     -16.068   7.079  -0.267  0.00  0.00    +0.000 C 
ATOM     35  C   UNL     1     -17.489   6.738   1.665  0.00  0.00    +0.000 C 
ATOM     36  C   UNL     1     -17.975   7.212   2.915  0.00  0.00    +0.000 C 
ATOM     37  O   UNL     1     -17.723   6.665   3.973  0.00  0.00    +0.000 OA
BRANCH  36  38
ATOM     38  O   UNL     1     -18.752   8.302   2.823  0.00  0.00    +0.000 OA
ATOM     39  H   UNL     1     -18.424   8.771   2.028  0.00  0.00    +0.000 HD
ENDBRANCH  36  38
ENDBRANCH  29  30
BRANCH  29  40
ATOM     40  O   UNL     1     -16.834   1.474  -0.120  0.00  0.00    +0.000 OA
ATOM     41  H   UNL     1     -17.737   1.125   0.030  0.00  0.00    +0.000 HD
ENDBRANCH  29  40
ENDBRANCH  27  29
ENDBRANCH  25  27
ENDBRANCH   4  25
TORSDOF 12
ENDMDL
MODEL 6
REMARK VINA RESULT:      -3.2      2.346      7.235
REMARK  Name = Leptomycin.pdbqt.pdb
REMARK  12 active torsions:
REMARK  status: ('A' for Active; 'I' for Inactive)
REMARK    1  A    between atoms: C_2  and  C_4
REMARK    2  A    between atoms: C_5  and  C_6
REMARK    3  A    between atoms: C_6  and  C_7
REMARK    4  A    between atoms: C_10  and  C_11
REMARK    5  A    between atoms: C_10  and  C_21
REMARK    6  A    between atoms: C_12  and  C_13
REMARK    7  A    between atoms: C_23  and  C_25
REMARK    8  A    between atoms: C_25  and  C_27
REMARK    9  A    between atoms: C_27  and  C_29
REMARK   10  A    between atoms: C_29  and  O_30
REMARK   11  A    between atoms: C_29  and  C_32
REMARK   12  A    between atoms: C_38  and  O_40
REMARK                            x       y       z     vdW  Elec       q    Type
REMARK                         _______ _______ _______ _____ _____    ______ ____
ROOT
ATOM      1  C   UNL     1     -17.044 -14.063  10.190  0.00  0.00    +0.000 C 
ATOM      2  C   UNL     1     -17.268 -13.643  11.393  0.00  0.00    +0.000 C 
ATOM      3  C   UNL     1     -18.523 -12.865  11.663  0.00  0.00    +0.000 C 
ATOM      4  C   UNL     1     -16.773 -14.589   8.902  0.00  0.00    +0.000 C 
ATOM      5  C   UNL     1     -16.170 -13.603   7.914  0.00  0.00    +0.000 C 
ENDROOT
BRANCH   2   6
ATOM      6  C   UNL     1     -16.636 -14.304  12.475  0.00  0.00    +0.000 C 
ATOM      7  C   UNL     1     -16.143 -14.837  13.432  0.00  0.00    +0.000 C 
BRANCH   7   8
ATOM      8  C   UNL     1     -15.602 -15.459  14.723  0.00  0.00    +0.000 C 
BRANCH   8   9
ATOM      9  C   UNL     1     -14.922 -16.033  15.825  0.00  0.00    +0.000 C 
ATOM     10  C   UNL     1     -15.216 -15.545  17.210  0.00  0.00    +0.000 C 
ATOM     11  C   UNL     1     -13.888 -16.982  15.636  0.00  0.00    +0.000 C 
ATOM     12  C   UNL     1     -12.966 -17.819  15.270  0.00  0.00    +0.000 C 
BRANCH  12  13
ATOM     13  C   UNL     1     -12.756 -17.928  13.869  0.00  0.00    +0.000 C 
ATOM     14  C   UNL     1     -12.472 -18.102  12.715  0.00  0.00    +0.000 C 
BRANCH  14  15
ATOM     15  C   UNL     1     -12.041 -18.396  11.396  0.00  0.00    +0.000 A 
ATOM     16  O   UNL     1     -12.501 -19.658  10.827  0.00  0.00    +0.000 OA
ATOM     17  C   UNL     1     -12.177 -20.049   9.530  0.00  0.00    +0.000 A 
ATOM     18  O   UNL     1     -12.565 -21.076   8.995  0.00  0.00    +0.000 OA
ATOM     19  C   UNL     1     -11.342 -19.083   8.879  0.00  0.00    +0.000 A 
ATOM     20  C   UNL     1     -10.935 -18.044   9.301  0.00  0.00    +0.000 A 
ATOM     21  C   UNL     1     -11.192 -17.515  10.586  0.00  0.00    +0.000 A 
ATOM     22  C   UNL     1     -10.665 -16.174  10.989  0.00  0.00    +0.000 C 
ENDBRANCH  14  15
ENDBRANCH  12  13
BRANCH  12  23
ATOM     23  C   UNL     1     -12.241 -18.528  16.260  0.00  0.00    +0.000 C 
ATOM     24  C   UNL     1     -11.450 -19.291  17.329  0.00  0.00    +0.000 C 
ENDBRANCH  12  23
ENDBRANCH   8   9
ENDBRANCH   7   8
ENDBRANCH   2   6
BRANCH   4  25
ATOM     25  C   UNL     1     -16.558 -16.062   8.751  0.00  0.00    +0.000 C 
ATOM     26  O   UNL     1     -17.491 -16.871   8.771  0.00  0.00    +0.000 OA
BRANCH  25  27
ATOM     27  C   UNL     1     -15.145 -16.534   8.633  0.00  0.00    +0.000 C 
ATOM     28  C   UNL     1     -14.130 -16.151   9.708  0.00  0.00    +0.000 C 
BRANCH  27  29
ATOM     29  C   UNL     1     -14.700 -17.091   7.360  0.00  0.00    +0.000 C 
BRANCH  29  30
ATOM     30  C   UNL     1     -13.560 -16.702   6.550  0.00  0.00    +0.000 C 
ATOM     31  C   UNL     1     -13.134 -15.251   6.476  0.00  0.00    +0.000 C 
ATOM     32  C   UNL     1     -12.679 -17.624   5.938  0.00  0.00    +0.000 C 
ATOM     33  C   UNL     1     -11.775 -18.492   5.291  0.00  0.00    +0.000 C 
ATOM     34  C   UNL     1     -12.313 -19.704   4.594  0.00  0.00    +0.000 C 
ATOM     35  C   UNL     1     -10.505 -18.308   5.400  0.00  0.00    +0.000 C 
ATOM     36  C   UNL     1      -9.107 -18.097   5.548  0.00  0.00    +0.000 C 
ATOM     37  O   UNL     1      -8.547 -18.105   6.628  0.00  0.00    +0.000 OA
BRANCH  36  38
ATOM     38  O   UNL     1      -8.463 -17.866   4.393  0.00  0.00    +0.000 OA
ATOM     39  H   UNL     1      -9.051 -17.257   3.902  0.00  0.00    +0.000 HD
ENDBRANCH  36  38
ENDBRANCH  29  30
BRANCH  29  40
ATOM     40  O   UNL     1     -15.448 -18.167   6.875  0.00  0.00    +0.000 OA
ATOM     41  H   UNL     1     -16.230 -17.869   6.366  0.00  0.00    +0.000 HD
ENDBRANCH  29  40
ENDBRANCH  27  29
ENDBRANCH  25  27
ENDBRANCH   4  25
TORSDOF 12
ENDMDL
MODEL 7
REMARK VINA RESULT:      -3.2     21.910     25.527
REMARK  Name = Leptomycin.pdbqt.pdb
REMARK  12 active torsions:
REMARK  status: ('A' for Active; 'I' for Inactive)
REMARK    1  A    between atoms: C_2  and  C_4
REMARK    2  A    between atoms: C_5  and  C_6
REMARK    3  A    between atoms: C_6  and  C_7
REMARK    4  A    between atoms: C_10  and  C_11
REMARK    5  A    between atoms: C_10  and  C_21
REMARK    6  A    between atoms: C_12  and  C_13
REMARK    7  A    between atoms: C_23  and  C_25
REMARK    8  A    between atoms: C_25  and  C_27
REMARK    9  A    between atoms: C_27  and  C_29
REMARK   10  A    between atoms: C_29  and  O_30
REMARK   11  A    between atoms: C_29  and  C_32
REMARK   12  A    between atoms: C_38  and  O_40
REMARK                            x       y       z     vdW  Elec       q    Type
REMARK                         _______ _______ _______ _____ _____    ______ ____
ROOT
ATOM      1  C   UNL     1     -12.830   3.714  -1.484  0.00  0.00    +0.000 C 
ATOM      2  C   UNL     1     -12.868   4.036  -0.232  0.00  0.00    +0.000 C 
ATOM      3  C   UNL     1     -11.597   3.989   0.564  0.00  0.00    +0.000 C 
ATOM      4  C   UNL     1     -12.836   3.420  -2.871  0.00  0.00    +0.000 C 
ATOM      5  C   UNL     1     -12.875   1.941  -3.218  0.00  0.00    +0.000 C 
ENDROOT
BRANCH   2   6
ATOM      6  C   UNL     1     -13.925   4.861   0.228  0.00  0.00    +0.000 C 
ATOM      7  C   UNL     1     -14.812   5.534   0.678  0.00  0.00    +0.000 C 
BRANCH   7   8
ATOM      8  C   UNL     1     -15.924   6.335   1.361  0.00  0.00    +0.000 C 
BRANCH   8   9
ATOM      9  C   UNL     1     -17.002   6.903   2.084  0.00  0.00    +0.000 C 
ATOM     10  C   UNL     1     -18.298   7.175   1.385  0.00  0.00    +0.000 C 
ATOM     11  C   UNL     1     -16.845   7.322   3.428  0.00  0.00    +0.000 C 
ATOM     12  C   UNL     1     -16.512   7.656   4.637  0.00  0.00    +0.000 C 
BRANCH  12  13
ATOM     13  C   UNL     1     -15.141   7.480   4.968  0.00  0.00    +0.000 C 
ATOM     14  C   UNL     1     -13.975   7.468   5.252  0.00  0.00    +0.000 C 
BRANCH  14  15
ATOM     15  C   UNL     1     -12.605   7.592   5.599  0.00  0.00    +0.000 A 
ATOM     16  O   UNL     1     -11.917   6.364   5.981  0.00  0.00    +0.000 OA
ATOM     17  C   UNL     1     -10.564   6.344   6.311  0.00  0.00    +0.000 A 
ATOM     18  O   UNL     1      -9.934   5.339   6.603  0.00  0.00    +0.000 OA
ATOM     19  C   UNL     1      -9.983   7.652   6.245  0.00  0.00    +0.000 A 
ATOM     20  C   UNL     1     -10.502   8.684   5.945  0.00  0.00    +0.000 A 
ATOM     21  C   UNL     1     -11.855   8.854   5.577  0.00  0.00    +0.000 A 
ATOM     22  C   UNL     1     -12.384  10.193   5.173  0.00  0.00    +0.000 C 
ENDBRANCH  14  15
ENDBRANCH  12  13
BRANCH  12  23
ATOM     23  C   UNL     1     -17.500   8.176   5.509  0.00  0.00    +0.000 C 
ATOM     24  C   UNL     1     -18.574   8.739   6.447  0.00  0.00    +0.000 C 
ENDBRANCH  12  23
ENDBRANCH   8   9
ENDBRANCH   7   8
ENDBRANCH   2   6
BRANCH   4  25
ATOM     25  C   UNL     1     -13.344   4.452  -3.829  0.00  0.00    +0.000 C 
ATOM     26  O   UNL     1     -12.705   4.796  -4.829  0.00  0.00    +0.000 OA
BRANCH  25  27
ATOM     27  C   UNL     1     -14.646   5.104  -3.496  0.00  0.00    +0.000 C 
ATOM     28  C   UNL     1     -14.661   6.551  -3.007  0.00  0.00    +0.000 C 
BRANCH  27  29
ATOM     29  C   UNL     1     -15.833   4.266  -3.364  0.00  0.00    +0.000 C 
BRANCH  29  30
ATOM     30  C   UNL     1     -16.525   3.861  -2.153  0.00  0.00    +0.000 C 
ATOM     31  C   UNL     1     -17.643   4.712  -1.590  0.00  0.00    +0.000 C 
ATOM     32  C   UNL     1     -16.347   2.604  -1.530  0.00  0.00    +0.000 C 
ATOM     33  C   UNL     1     -16.203   1.374  -0.855  0.00  0.00    +0.000 C 
ATOM     34  C   UNL     1     -14.831   0.796  -0.694  0.00  0.00    +0.000 C 
ATOM     35  C   UNL     1     -17.243   0.707  -0.489  0.00  0.00    +0.000 C 
ATOM     36  C   UNL     1     -18.404  -0.022  -0.109  0.00  0.00    +0.000 C 
ATOM     37  O   UNL     1     -19.233  -0.408  -0.912  0.00  0.00    +0.000 OA
BRANCH  36  38
ATOM     38  O   UNL     1     -18.514  -0.226   1.212  0.00  0.00    +0.000 OA
ATOM     39  H   UNL     1     -19.132  -0.982   1.293  0.00  0.00    +0.000 HD
ENDBRANCH  36  38
ENDBRANCH  29  30
BRANCH  29  40
ATOM     40  O   UNL     1     -16.400   3.825  -4.562  0.00  0.00    +0.000 OA
ATOM     41  H   UNL     1     -17.364   3.993  -4.595  0.00  0.00    +0.000 HD
ENDBRANCH  29  40
ENDBRANCH  27  29
ENDBRANCH  25  27
ENDBRANCH   4  25
TORSDOF 12
ENDMDL
MODEL 8
REMARK VINA RESULT:      -3.2     20.627     24.912
REMARK  Name = Leptomycin.pdbqt.pdb
REMARK  12 active torsions:
REMARK  status: ('A' for Active; 'I' for Inactive)
REMARK    1  A    between atoms: C_2  and  C_4
REMARK    2  A    between atoms: C_5  and  C_6
REMARK    3  A    between atoms: C_6  and  C_7
REMARK    4  A    between atoms: C_10  and  C_11
REMARK    5  A    between atoms: C_10  and  C_21
REMARK    6  A    between atoms: C_12  and  C_13
REMARK    7  A    between atoms: C_23  and  C_25
REMARK    8  A    between atoms: C_25  and  C_27
REMARK    9  A    between atoms: C_27  and  C_29
REMARK   10  A    between atoms: C_29  and  O_30
REMARK   11  A    between atoms: C_29  and  C_32
REMARK   12  A    between atoms: C_38  and  O_40
REMARK                            x       y       z     vdW  Elec       q    Type
REMARK                         _______ _______ _______ _____ _____    ______ ____
ROOT
ATOM      1  C   UNL     1     -13.279  -0.274  30.099  0.00  0.00    +0.000 C 
ATOM      2  C   UNL     1     -13.212  -1.382  30.764  0.00  0.00    +0.000 C 
ATOM      3  C   UNL     1     -13.319  -1.332  32.260  0.00  0.00    +0.000 C 
ATOM      4  C   UNL     1     -13.395   0.903  29.317  0.00  0.00    +0.000 C 
ATOM      5  C   UNL     1     -12.127   1.735  29.209  0.00  0.00    +0.000 C 
ENDROOT
BRANCH   2   6
ATOM      6  C   UNL     1     -13.529  -2.594  30.103  0.00  0.00    +0.000 C 
ATOM      7  C   UNL     1     -13.788  -3.654  29.599  0.00  0.00    +0.000 C 
BRANCH   7   8
ATOM      8  C   UNL     1     -14.095  -5.057  29.068  0.00  0.00    +0.000 C 
BRANCH   8   9
ATOM      9  C   UNL     1     -14.523  -6.267  28.467  0.00  0.00    +0.000 C 
ATOM     10  C   UNL     1     -15.880  -6.812  28.789  0.00  0.00    +0.000 C 
ATOM     11  C   UNL     1     -13.651  -7.030  27.653  0.00  0.00    +0.000 C 
ATOM     12  C   UNL     1     -12.714  -7.596  26.955  0.00  0.00    +0.000 C 
BRANCH  12  13
ATOM     13  C   UNL     1     -11.444  -6.961  27.001  0.00  0.00    +0.000 C 
ATOM     14  C   UNL     1     -10.436  -6.308  27.010  0.00  0.00    +0.000 C 
BRANCH  14  15
ATOM     15  C   UNL     1      -9.326  -5.425  27.000  0.00  0.00    +0.000 A 
ATOM     16  O   UNL     1      -9.442  -4.224  27.820  0.00  0.00    +0.000 OA
ATOM     17  C   UNL     1      -8.411  -3.294  27.922  0.00  0.00    +0.000 A 
ATOM     18  O   UNL     1      -8.444  -2.293  28.621  0.00  0.00    +0.000 OA
ATOM     19  C   UNL     1      -7.281  -3.664  27.121  0.00  0.00    +0.000 A 
ATOM     20  C   UNL     1      -7.140  -4.628  26.432  0.00  0.00    +0.000 A 
ATOM     21  C   UNL     1      -8.090  -5.657  26.242  0.00  0.00    +0.000 A 
ATOM     22  C   UNL     1      -7.783  -6.845  25.388  0.00  0.00    +0.000 C 
ENDBRANCH  14  15
ENDBRANCH  12  13
BRANCH  12  23
ATOM     23  C   UNL     1     -13.007  -8.782  26.236  0.00  0.00    +0.000 C 
ATOM     24  C   UNL     1     -13.329 -10.061  25.455  0.00  0.00    +0.000 C 
ENDBRANCH  12  23
ENDBRANCH   8   9
ENDBRANCH   7   8
ENDBRANCH   2   6
BRANCH   4  25
ATOM     25  C   UNL     1     -14.457   0.973  28.265  0.00  0.00    +0.000 C 
ATOM     26  O   UNL     1     -15.122   1.995  28.066  0.00  0.00    +0.000 OA
BRANCH  25  27
ATOM     27  C   UNL     1     -14.730  -0.275  27.491  0.00  0.00    +0.000 C 
ATOM     28  C   UNL     1     -13.650  -0.845  26.574  0.00  0.00    +0.000 C 
BRANCH  27  29
ATOM     29  C   UNL     1     -16.106  -0.753  27.400  0.00  0.00    +0.000 C 
BRANCH  29  30
ATOM     30  C   UNL     1     -16.780  -1.736  28.230  0.00  0.00    +0.000 C 
ATOM     31  C   UNL     1     -17.230  -3.055  27.639  0.00  0.00    +0.000 C 
ATOM     32  C   UNL     1     -16.902  -1.627  29.634  0.00  0.00    +0.000 C 
ATOM     33  C   UNL     1     -17.070  -1.569  31.034  0.00  0.00    +0.000 C 
ATOM     34  C   UNL     1     -17.433  -0.259  31.662  0.00  0.00    +0.000 C 
ATOM     35  C   UNL     1     -16.799  -2.595  31.765  0.00  0.00    +0.000 C 
ATOM     36  C   UNL     1     -16.478  -3.733  32.554  0.00  0.00    +0.000 C 
ATOM     37  O   UNL     1     -15.368  -4.232  32.574  0.00  0.00    +0.000 OA
BRANCH  36  38
ATOM     38  O   UNL     1     -17.512  -4.221  33.257  0.00  0.00    +0.000 OA
ATOM     39  H   UNL     1     -18.203  -3.531  33.188  0.00  0.00    +0.000 HD
ENDBRANCH  36  38
ENDBRANCH  29  30
BRANCH  29  40
ATOM     40  O   UNL     1     -16.889  -0.158  26.408  0.00  0.00    +0.000 OA
ATOM     41  H   UNL     1     -17.754   0.143  26.756  0.00  0.00    +0.000 HD
ENDBRANCH  29  40
ENDBRANCH  27  29
ENDBRANCH  25  27
ENDBRANCH   4  25
TORSDOF 12
ENDMDL
MODEL 9
REMARK VINA RESULT:      -3.2     20.067     24.171
REMARK  Name = Leptomycin.pdbqt.pdb
REMARK  12 active torsions:
REMARK  status: ('A' for Active; 'I' for Inactive)
REMARK    1  A    between atoms: C_2  and  C_4
REMARK    2  A    between atoms: C_5  and  C_6
REMARK    3  A    between atoms: C_6  and  C_7
REMARK    4  A    between atoms: C_10  and  C_11
REMARK    5  A    between atoms: C_10  and  C_21
REMARK    6  A    between atoms: C_12  and  C_13
REMARK    7  A    between atoms: C_23  and  C_25
REMARK    8  A    between atoms: C_25  and  C_27
REMARK    9  A    between atoms: C_27  and  C_29
REMARK   10  A    between atoms: C_29  and  O_30
REMARK   11  A    between atoms: C_29  and  C_32
REMARK   12  A    between atoms: C_38  and  O_40
REMARK                            x       y       z     vdW  Elec       q    Type
REMARK                         _______ _______ _______ _____ _____    ______ ____
ROOT
ATOM      1  C   UNL     1     -11.610   1.352  26.607  0.00  0.00    +0.000 C 
ATOM      2  C   UNL     1     -12.744   1.848  26.234  0.00  0.00    +0.000 C 
ATOM      3  C   UNL     1     -12.750   2.953  25.218  0.00  0.00    +0.000 C 
ATOM      4  C   UNL     1     -10.398   0.739  27.015  0.00  0.00    +0.000 C 
ATOM      5  C   UNL     1      -9.619   1.492  28.081  0.00  0.00    +0.000 C 
ENDROOT
BRANCH   2   6
ATOM      6  C   UNL     1     -13.915   1.064  26.387  0.00  0.00    +0.000 C 
ATOM      7  C   UNL     1     -14.914   0.424  26.577  0.00  0.00    +0.000 C 
BRANCH   7   8
ATOM      8  C   UNL     1     -16.193  -0.339  26.933  0.00  0.00    +0.000 C 
BRANCH   8   9
ATOM      9  C   UNL     1     -17.341  -1.153  27.096  0.00  0.00    +0.000 C 
ATOM     10  C   UNL     1     -17.337  -2.238  28.128  0.00  0.00    +0.000 C 
ATOM     11  C   UNL     1     -18.454  -1.034  26.228  0.00  0.00    +0.000 C 
ATOM     12  C   UNL     1     -19.364  -0.794  25.335  0.00  0.00    +0.000 C 
BRANCH  12  13
ATOM     13  C   UNL     1     -19.009   0.149  24.333  0.00  0.00    +0.000 C 
ATOM     14  C   UNL     1     -18.611   0.856  23.447  0.00  0.00    +0.000 C 
BRANCH  14  15
ATOM     15  C   UNL     1     -18.055   1.588  22.367  0.00  0.00    +0.000 A 
ATOM     16  O   UNL     1     -18.996   2.102  21.377  0.00  0.00    +0.000 OA
ATOM     17  C   UNL     1     -18.583   2.864  20.287  0.00  0.00    +0.000 A 
ATOM     18  O   UNL     1     -19.332   3.347  19.452  0.00  0.00    +0.000 OA
ATOM     19  C   UNL     1     -17.161   3.040  20.272  0.00  0.00    +0.000 A 
ATOM     20  C   UNL     1     -16.351   2.637  21.051  0.00  0.00    +0.000 A 
ATOM     21  C   UNL     1     -16.624   1.866  22.204  0.00  0.00    +0.000 A 
ATOM     22  C   UNL     1     -15.528   1.456  23.136  0.00  0.00    +0.000 C 
ENDBRANCH  14  15
ENDBRANCH  12  13
BRANCH  12  23
ATOM     23  C   UNL     1     -20.602  -1.481  25.404  0.00  0.00    +0.000 C 
ATOM     24  C   UNL     1     -21.938  -2.229  25.474  0.00  0.00    +0.000 C 
ENDBRANCH  12  23
ENDBRANCH   8   9
ENDBRANCH   7   8
ENDBRANCH   2   6
BRANCH   4  25
ATOM     25  C   UNL     1     -10.239  -0.739  26.841  0.00  0.00    +0.000 C 
ATOM     26  O   UNL     1     -10.020  -1.255  25.740  0.00  0.00    +0.000 OA
BRANCH  25  27
ATOM     27  C   UNL     1     -10.415  -1.588  28.058  0.00  0.00    +0.000 C 
ATOM     28  C   UNL     1     -11.803  -1.736  28.679  0.00  0.00    +0.000 C 
BRANCH  27  29
ATOM     29  C   UNL     1      -9.227  -2.012  28.791  0.00  0.00    +0.000 C 
BRANCH  29  30
ATOM     30  C   UNL     1      -8.352  -3.139  28.523  0.00  0.00    +0.000 C 
ATOM     31  C   UNL     1      -7.821  -3.984  29.661  0.00  0.00    +0.000 C 
ATOM     32  C   UNL     1      -8.083  -3.634  27.225  0.00  0.00    +0.000 C 
ATOM     33  C   UNL     1      -7.765  -4.163  25.957  0.00  0.00    +0.000 C 
ATOM     34  C   UNL     1      -7.488  -3.217  24.829  0.00  0.00    +0.000 C 
ATOM     35  C   UNL     1      -7.829  -5.433  25.748  0.00  0.00    +0.000 C 
ATOM     36  C   UNL     1      -7.921  -6.835  25.534  0.00  0.00    +0.000 C 
ATOM     37  O   UNL     1      -8.955  -7.460  25.682  0.00  0.00    +0.000 OA
BRANCH  36  38
ATOM     38  O   UNL     1      -6.764  -7.412  25.175  0.00  0.00    +0.000 OA
ATOM     39  H   UNL     1      -6.253  -7.477  26.009  0.00  0.00    +0.000 HD
ENDBRANCH  36  38
ENDBRANCH  29  30
BRANCH  29  40
ATOM     40  O   UNL     1      -8.862  -1.205  29.871  0.00  0.00    +0.000 OA
ATOM     41  H   UNL     1      -9.000  -1.656  30.729  0.00  0.00    +0.000 HD
ENDBRANCH  29  40
ENDBRANCH  27  29
ENDBRANCH  25  27
ENDBRANCH   4  25
TORSDOF 12
ENDMDL
