MODEL 1
REMARK VINA RESULT:      -6.5      0.000      0.000
REMARK  Name = Lobelin.pdbqt.pdb
REMARK  3 active torsions:
REMARK  status: ('A' for Active; 'I' for Inactive)
REMARK    1  A    between atoms: C_9  and  O_10
REMARK    2  A    between atoms: C_9  and  C_12
REMARK    3  A    between atoms: C_19  and  C_21
REMARK                            x       y       z     vdW  Elec       q    Type
REMARK                         _______ _______ _______ _____ _____    ______ ____
ROOT
ATOM      1  N   UNL     1      -5.928   8.297   3.336  0.00  0.00    +0.000 N 
ATOM      2  C   UNL     1      -5.099   9.475   3.101  0.00  0.00    +0.000 C 
ATOM      3  C   UNL     1      -6.472   7.548   2.207  0.00  0.00    +0.000 C 
ATOM      4  C   UNL     1      -4.856   9.772   1.725  0.00  0.00    +0.000 C 
ATOM      5  C   UNL     1      -6.091   8.041   0.922  0.00  0.00    +0.000 C 
ATOM      6  C   UNL     1      -5.254   9.185   0.383  0.00  0.00    +0.000 C 
ATOM      7  C   UNL     1      -6.316   7.943   4.683  0.00  0.00    +0.000 C 
ATOM      8  C   UNL     1      -4.564  10.259   4.159  0.00  0.00    +0.000 C 
ATOM      9  C   UNL     1      -4.013  11.021   5.222  0.00  0.00    +0.000 C 
ATOM     10  C   UNL     1      -7.304   6.413   2.381  0.00  0.00    +0.000 C 
ATOM     11  C   UNL     1      -8.120   5.241   2.558  0.00  0.00    +0.000 C 
ATOM     12  O   UNL     1      -7.812   4.207   1.984  0.00  0.00    +0.000 OA
ENDROOT
BRANCH   9  13
ATOM     13  C   UNL     1      -3.058  10.500   6.200  0.00  0.00    +0.000 A 
ATOM     14  C   UNL     1      -1.858   9.914   5.788  0.00  0.00    +0.000 A 
ATOM     15  C   UNL     1      -0.948   9.418   6.719  0.00  0.00    +0.000 A 
ATOM     16  C   UNL     1      -1.230   9.503   8.079  0.00  0.00    +0.000 A 
ATOM     17  C   UNL     1      -2.421  10.082   8.506  0.00  0.00    +0.000 A 
ATOM     18  C   UNL     1      -3.327  10.576   7.570  0.00  0.00    +0.000 A 
ENDBRANCH   9  13
BRANCH  11  19
ATOM     19  C   UNL     1      -9.311   5.337   3.420  0.00  0.00    +0.000 A 
ATOM     20  C   UNL     1     -10.597   5.329   2.881  0.00  0.00    +0.000 A 
ATOM     21  C   UNL     1     -11.703   5.414   3.722  0.00  0.00    +0.000 A 
ATOM     22  C   UNL     1     -11.524   5.506   5.101  0.00  0.00    +0.000 A 
ATOM     23  C   UNL     1     -10.239   5.510   5.640  0.00  0.00    +0.000 A 
ATOM     24  C   UNL     1      -9.131   5.424   4.800  0.00  0.00    +0.000 A 
ENDBRANCH  11  19
BRANCH   9  25
ATOM     25  O   UNL     1      -4.382  12.340   5.355  0.00  0.00    +0.000 OA
ATOM     26  H   UNL     1      -4.314  12.823   4.514  0.00  0.00    +0.000 HD
ENDBRANCH   9  25
TORSDOF 3
ENDMDL
MODEL 2
REMARK VINA RESULT:      -6.5      3.676      6.349
REMARK  Name = Lobelin.pdbqt.pdb
REMARK  3 active torsions:
REMARK  status: ('A' for Active; 'I' for Inactive)
REMARK    1  A    between atoms: C_9  and  O_10
REMARK    2  A    between atoms: C_9  and  C_12
REMARK    3  A    between atoms: C_19  and  C_21
REMARK                            x       y       z     vdW  Elec       q    Type
REMARK                         _______ _______ _______ _____ _____    ______ ____
ROOT
ATOM      1  N   UNL     1      -9.678   6.933   4.861  0.00  0.00    +0.000 N 
ATOM      2  C   UNL     1      -8.380   6.273   4.767  0.00  0.00    +0.000 C 
ATOM      3  C   UNL     1     -10.503   6.761   6.053  0.00  0.00    +0.000 C 
ATOM      4  C   UNL     1      -8.007   5.519   5.921  0.00  0.00    +0.000 C 
ATOM      5  C   UNL     1      -9.915   5.955   7.076  0.00  0.00    +0.000 C 
ATOM      6  C   UNL     1      -8.622   5.186   7.268  0.00  0.00    +0.000 C 
ATOM      7  C   UNL     1     -10.206   7.656   3.725  0.00  0.00    +0.000 C 
ATOM      8  C   UNL     1      -7.547   6.383   3.621  0.00  0.00    +0.000 C 
ATOM      9  C   UNL     1      -6.709   6.518   2.483  0.00  0.00    +0.000 C 
ATOM     10  C   UNL     1     -11.782   7.358   6.184  0.00  0.00    +0.000 C 
ATOM     11  C   UNL     1     -13.065   7.993   6.330  0.00  0.00    +0.000 C 
ATOM     12  O   UNL     1     -13.288   8.666   7.326  0.00  0.00    +0.000 OA
ENDROOT
BRANCH   9  13
ATOM     13  C   UNL     1      -6.138   7.785   2.027  0.00  0.00    +0.000 A 
ATOM     14  C   UNL     1      -5.791   7.973   0.686  0.00  0.00    +0.000 A 
ATOM     15  C   UNL     1      -5.247   9.180   0.250  0.00  0.00    +0.000 A 
ATOM     16  C   UNL     1      -5.045  10.217   1.155  0.00  0.00    +0.000 A 
ATOM     17  C   UNL     1      -5.384  10.046   2.494  0.00  0.00    +0.000 A 
ATOM     18  C   UNL     1      -5.927   8.836   2.924  0.00  0.00    +0.000 A 
ENDBRANCH   9  13
BRANCH  11  19
ATOM     19  C   UNL     1     -14.072   7.795   5.273  0.00  0.00    +0.000 A 
ATOM     20  C   UNL     1     -13.740   7.926   3.924  0.00  0.00    +0.000 A 
ATOM     21  C   UNL     1     -14.712   7.726   2.948  0.00  0.00    +0.000 A 
ATOM     22  C   UNL     1     -16.013   7.395   3.318  0.00  0.00    +0.000 A 
ATOM     23  C   UNL     1     -16.344   7.261   4.665  0.00  0.00    +0.000 A 
ATOM     24  C   UNL     1     -15.374   7.460   5.644  0.00  0.00    +0.000 A 
ENDBRANCH  11  19
BRANCH   9  25
ATOM     25  O   UNL     1      -6.396   5.395   1.751  0.00  0.00    +0.000 OA
ATOM     26  H   UNL     1      -7.175   4.836   1.592  0.00  0.00    +0.000 HD
ENDBRANCH   9  25
TORSDOF 3
ENDMDL
MODEL 3
REMARK VINA RESULT:      -6.3     16.368     18.664
REMARK  Name = Lobelin.pdbqt.pdb
REMARK  3 active torsions:
REMARK  status: ('A' for Active; 'I' for Inactive)
REMARK    1  A    between atoms: C_9  and  O_10
REMARK    2  A    between atoms: C_9  and  C_12
REMARK    3  A    between atoms: C_19  and  C_21
REMARK                            x       y       z     vdW  Elec       q    Type
REMARK                         _______ _______ _______ _____ _____    ______ ____
ROOT
ATOM      1  N   UNL     1     -12.378  -9.449   2.874  0.00  0.00    +0.000 N 
ATOM      2  C   UNL     1     -12.002 -10.072   1.610  0.00  0.00    +0.000 C 
ATOM      3  C   UNL     1     -13.594  -9.869   3.564  0.00  0.00    +0.000 C 
ATOM      4  C   UNL     1     -12.879 -11.109   1.169  0.00  0.00    +0.000 C 
ATOM      5  C   UNL     1     -14.311 -10.926   2.924  0.00  0.00    +0.000 C 
ATOM      6  C   UNL     1     -14.159 -11.758   1.665  0.00  0.00    +0.000 C 
ATOM      7  C   UNL     1     -11.618  -8.328   3.383  0.00  0.00    +0.000 C 
ATOM      8  C   UNL     1     -10.845  -9.685   0.880  0.00  0.00    +0.000 C 
ATOM      9  C   UNL     1      -9.674  -9.311   0.171  0.00  0.00    +0.000 C 
ATOM     10  C   UNL     1     -14.019  -9.278   4.781  0.00  0.00    +0.000 C 
ATOM     11  C   UNL     1     -14.431  -8.701   6.034  0.00  0.00    +0.000 C 
ATOM     12  O   UNL     1     -14.672  -9.437   6.979  0.00  0.00    +0.000 OA
ENDROOT
BRANCH   9  13
ATOM     13  C   UNL     1      -8.314  -9.458   0.690  0.00  0.00    +0.000 A 
ATOM     14  C   UNL     1      -7.766 -10.725   0.911  0.00  0.00    +0.000 A 
ATOM     15  C   UNL     1      -6.470 -10.866   1.405  0.00  0.00    +0.000 A 
ATOM     16  C   UNL     1      -5.706  -9.737   1.684  0.00  0.00    +0.000 A 
ATOM     17  C   UNL     1      -6.238  -8.469   1.471  0.00  0.00    +0.000 A 
ATOM     18  C   UNL     1      -7.535  -8.334   0.978  0.00  0.00    +0.000 A 
ENDBRANCH   9  13
BRANCH  11  19
ATOM     19  C   UNL     1     -14.560  -7.236   6.125  0.00  0.00    +0.000 A 
ATOM     20  C   UNL     1     -14.215  -6.412   5.054  0.00  0.00    +0.000 A 
ATOM     21  C   UNL     1     -14.354  -5.031   5.168  0.00  0.00    +0.000 A 
ATOM     22  C   UNL     1     -14.838  -4.475   6.350  0.00  0.00    +0.000 A 
ATOM     23  C   UNL     1     -15.186  -5.299   7.419  0.00  0.00    +0.000 A 
ATOM     24  C   UNL     1     -15.048  -6.681   7.307  0.00  0.00    +0.000 A 
ENDBRANCH  11  19
BRANCH   9  25
ATOM     25  O   UNL     1      -9.803  -8.779  -1.092  0.00  0.00    +0.000 OA
ATOM     26  H   UNL     1     -10.260  -7.921  -1.080  0.00  0.00    +0.000 HD
ENDBRANCH   9  25
TORSDOF 3
ENDMDL
MODEL 4
REMARK VINA RESULT:      -6.3      1.110      7.905
REMARK  Name = Lobelin.pdbqt.pdb
REMARK  3 active torsions:
REMARK  status: ('A' for Active; 'I' for Inactive)
REMARK    1  A    between atoms: C_9  and  O_10
REMARK    2  A    between atoms: C_9  and  C_12
REMARK    3  A    between atoms: C_19  and  C_21
REMARK                            x       y       z     vdW  Elec       q    Type
REMARK                         _______ _______ _______ _____ _____    ______ ____
ROOT
ATOM      1  N   UNL     1      -6.145   8.394   3.414  0.00  0.00    +0.000 N 
ATOM      2  C   UNL     1      -6.280   7.639   2.173  0.00  0.00    +0.000 C 
ATOM      3  C   UNL     1      -5.368   9.630   3.439  0.00  0.00    +0.000 C 
ATOM      4  C   UNL     1      -5.641   8.230   1.040  0.00  0.00    +0.000 C 
ATOM      5  C   UNL     1      -4.820  10.018   2.178  0.00  0.00    +0.000 C 
ATOM      6  C   UNL     1      -4.811   9.470   0.764  0.00  0.00    +0.000 C 
ATOM      7  C   UNL     1      -6.674   7.857   4.649  0.00  0.00    +0.000 C 
ATOM      8  C   UNL     1      -7.001   6.416   2.095  0.00  0.00    +0.000 C 
ATOM      9  C   UNL     1      -7.744   5.210   2.020  0.00  0.00    +0.000 C 
ATOM     10  C   UNL     1      -5.185  10.387   4.624  0.00  0.00    +0.000 C 
ATOM     11  C   UNL     1      -5.027  11.172   5.819  0.00  0.00    +0.000 C 
ATOM     12  O   UNL     1      -5.304  12.363   5.792  0.00  0.00    +0.000 OA
ENDROOT
BRANCH   9  13
ATOM     13  C   UNL     1      -9.181   5.110   2.278  0.00  0.00    +0.000 A 
ATOM     14  C   UNL     1     -10.058   4.668   1.284  0.00  0.00    +0.000 A 
ATOM     15  C   UNL     1     -11.427   4.572   1.530  0.00  0.00    +0.000 A 
ATOM     16  C   UNL     1     -11.934   4.919   2.778  0.00  0.00    +0.000 A 
ATOM     17  C   UNL     1     -11.074   5.362   3.778  0.00  0.00    +0.000 A 
ATOM     18  C   UNL     1      -9.707   5.456   3.526  0.00  0.00    +0.000 A 
ENDBRANCH   9  13
BRANCH  11  19
ATOM     19  C   UNL     1      -4.523  10.510   7.035  0.00  0.00    +0.000 A 
ATOM     20  C   UNL     1      -5.382   9.826   7.895  0.00  0.00    +0.000 A 
ATOM     21  C   UNL     1      -4.875   9.204   9.033  0.00  0.00    +0.000 A 
ATOM     22  C   UNL     1      -3.512   9.265   9.310  0.00  0.00    +0.000 A 
ATOM     23  C   UNL     1      -2.653   9.946   8.449  0.00  0.00    +0.000 A 
ATOM     24  C   UNL     1      -3.157  10.568   7.311  0.00  0.00    +0.000 A 
ENDBRANCH  11  19
BRANCH   9  25
ATOM     25  O   UNL     1      -7.092   4.047   1.676  0.00  0.00    +0.000 OA
ATOM     26  H   UNL     1      -7.691   3.282   1.674  0.00  0.00    +0.000 HD
ENDBRANCH   9  25
TORSDOF 3
ENDMDL
MODEL 5
REMARK VINA RESULT:      -6.2     16.800     18.511
REMARK  Name = Lobelin.pdbqt.pdb
REMARK  3 active torsions:
REMARK  status: ('A' for Active; 'I' for Inactive)
REMARK    1  A    between atoms: C_9  and  O_10
REMARK    2  A    between atoms: C_9  and  C_12
REMARK    3  A    between atoms: C_19  and  C_21
REMARK                            x       y       z     vdW  Elec       q    Type
REMARK                         _______ _______ _______ _____ _____    ______ ____
ROOT
ATOM      1  N   UNL     1     -15.124  -7.320   0.844  0.00  0.00    +0.000 N 
ATOM      2  C   UNL     1     -13.796  -7.505   1.419  0.00  0.00    +0.000 C 
ATOM      3  C   UNL     1     -15.420  -7.824  -0.493  0.00  0.00    +0.000 C 
ATOM      4  C   UNL     1     -12.882  -8.230   0.594  0.00  0.00    +0.000 C 
ATOM      5  C   UNL     1     -14.341  -8.515  -1.125  0.00  0.00    +0.000 C 
ATOM      6  C   UNL     1     -12.908  -8.873  -0.780  0.00  0.00    +0.000 C 
ATOM      7  C   UNL     1     -16.111  -6.528   1.545  0.00  0.00    +0.000 C 
ATOM      8  C   UNL     1     -13.442  -7.013   2.705  0.00  0.00    +0.000 C 
ATOM      9  C   UNL     1     -13.105  -6.540   3.999  0.00  0.00    +0.000 C 
ATOM     10  C   UNL     1     -16.686  -7.647  -1.108  0.00  0.00    +0.000 C 
ATOM     11  C   UNL     1     -17.981  -7.497  -1.717  0.00  0.00    +0.000 C 
ATOM     12  O   UNL     1     -18.551  -8.485  -2.157  0.00  0.00    +0.000 OA
ENDROOT
BRANCH   9  13
ATOM     13  C   UNL     1     -13.742  -6.997   5.235  0.00  0.00    +0.000 A 
ATOM     14  C   UNL     1     -13.449  -8.255   5.768  0.00  0.00    +0.000 A 
ATOM     15  C   UNL     1     -14.056  -8.692   6.945  0.00  0.00    +0.000 A 
ATOM     16  C   UNL     1     -14.965  -7.870   7.604  0.00  0.00    +0.000 A 
ATOM     17  C   UNL     1     -15.268  -6.615   7.085  0.00  0.00    +0.000 A 
ATOM     18  C   UNL     1     -14.659  -6.184   5.907  0.00  0.00    +0.000 A 
ENDBRANCH   9  13
BRANCH  11  19
ATOM     19  C   UNL     1     -18.568  -6.149  -1.799  0.00  0.00    +0.000 A 
ATOM     20  C   UNL     1     -18.889  -5.429  -0.648  0.00  0.00    +0.000 A 
ATOM     21  C   UNL     1     -19.437  -4.153  -0.758  0.00  0.00    +0.000 A 
ATOM     22  C   UNL     1     -19.662  -3.597  -2.015  0.00  0.00    +0.000 A 
ATOM     23  C   UNL     1     -19.337  -4.316  -3.165  0.00  0.00    +0.000 A 
ATOM     24  C   UNL     1     -18.789  -5.591  -3.058  0.00  0.00    +0.000 A 
ENDBRANCH  11  19
BRANCH   9  25
ATOM     25  O   UNL     1     -12.111  -5.596   4.125  0.00  0.00    +0.000 OA
ATOM     26  H   UNL     1     -12.368  -4.745   3.731  0.00  0.00    +0.000 HD
ENDBRANCH   9  25
TORSDOF 3
ENDMDL
MODEL 6
REMARK VINA RESULT:      -6.0      1.407      7.966
REMARK  Name = Lobelin.pdbqt.pdb
REMARK  3 active torsions:
REMARK  status: ('A' for Active; 'I' for Inactive)
REMARK    1  A    between atoms: C_9  and  O_10
REMARK    2  A    between atoms: C_9  and  C_12
REMARK    3  A    between atoms: C_19  and  C_21
REMARK                            x       y       z     vdW  Elec       q    Type
REMARK                         _______ _______ _______ _____ _____    ______ ____
ROOT
ATOM      1  N   UNL     1      -5.823   8.782   3.546  0.00  0.00    +0.000 N 
ATOM      2  C   UNL     1      -6.570   7.754   2.829  0.00  0.00    +0.000 C 
ATOM      3  C   UNL     1      -4.937   9.685   2.818  0.00  0.00    +0.000 C 
ATOM      4  C   UNL     1      -6.384   7.756   1.413  0.00  0.00    +0.000 C 
ATOM      5  C   UNL     1      -4.916   9.491   1.403  0.00  0.00    +0.000 C 
ATOM      6  C   UNL     1      -5.576   8.557   0.407  0.00  0.00    +0.000 C 
ATOM      7  C   UNL     1      -5.861   8.827   4.991  0.00  0.00    +0.000 C 
ATOM      8  C   UNL     1      -7.426   6.830   3.487  0.00  0.00    +0.000 C 
ATOM      9  C   UNL     1      -8.298   5.927   4.149  0.00  0.00    +0.000 C 
ATOM     10  C   UNL     1      -4.170  10.684   3.470  0.00  0.00    +0.000 C 
ATOM     11  C   UNL     1      -3.417  11.719   4.128  0.00  0.00    +0.000 C 
ATOM     12  O   UNL     1      -3.505  12.869   3.724  0.00  0.00    +0.000 OA
ENDROOT
BRANCH   9  13
ATOM     13  C   UNL     1      -9.494   6.331   4.889  0.00  0.00    +0.000 A 
ATOM     14  C   UNL     1      -9.635   7.637   5.365  0.00  0.00    +0.000 A 
ATOM     15  C   UNL     1     -10.774   8.023   6.069  0.00  0.00    +0.000 A 
ATOM     16  C   UNL     1     -11.789   7.102   6.307  0.00  0.00    +0.000 A 
ATOM     17  C   UNL     1     -11.664   5.796   5.841  0.00  0.00    +0.000 A 
ATOM     18  C   UNL     1     -10.522   5.416   5.138  0.00  0.00    +0.000 A 
ENDBRANCH   9  13
BRANCH  11  19
ATOM     19  C   UNL     1      -2.553  11.347   5.262  0.00  0.00    +0.000 A 
ATOM     20  C   UNL     1      -2.122  10.033   5.443  0.00  0.00    +0.000 A 
ATOM     21  C   UNL     1      -1.301   9.714   6.521  0.00  0.00    +0.000 A 
ATOM     22  C   UNL     1      -0.910  10.707   7.417  0.00  0.00    +0.000 A 
ATOM     23  C   UNL     1      -1.339  12.021   7.234  0.00  0.00    +0.000 A 
ATOM     24  C   UNL     1      -2.160  12.342   6.156  0.00  0.00    +0.000 A 
ENDBRANCH  11  19
BRANCH   9  25
ATOM     25  O   UNL     1      -8.024   4.579   4.099  0.00  0.00    +0.000 OA
ATOM     26  H   UNL     1      -8.476   4.090   4.807  0.00  0.00    +0.000 HD
ENDBRANCH   9  25
TORSDOF 3
ENDMDL
MODEL 7
REMARK VINA RESULT:      -5.9     12.658     13.985
REMARK  Name = Lobelin.pdbqt.pdb
REMARK  3 active torsions:
REMARK  status: ('A' for Active; 'I' for Inactive)
REMARK    1  A    between atoms: C_9  and  O_10
REMARK    2  A    between atoms: C_9  and  C_12
REMARK    3  A    between atoms: C_19  and  C_21
REMARK                            x       y       z     vdW  Elec       q    Type
REMARK                         _______ _______ _______ _____ _____    ______ ____
ROOT
ATOM      1  N   UNL     1      -3.936  -2.393  -4.382  0.00  0.00    +0.000 N 
ATOM      2  C   UNL     1      -3.874  -1.192  -5.207  0.00  0.00    +0.000 C 
ATOM      3  C   UNL     1      -4.993  -3.377  -4.599  0.00  0.00    +0.000 C 
ATOM      4  C   UNL     1      -4.877  -1.109  -6.221  0.00  0.00    +0.000 C 
ATOM      5  C   UNL     1      -5.883  -3.072  -5.674  0.00  0.00    +0.000 C 
ATOM      6  C   UNL     1      -6.049  -1.954  -6.685  0.00  0.00    +0.000 C 
ATOM      7  C   UNL     1      -3.029  -2.553  -3.267  0.00  0.00    +0.000 C 
ATOM      8  C   UNL     1      -2.885  -0.187  -5.024  0.00  0.00    +0.000 C 
ATOM      9  C   UNL     1      -1.879   0.799  -4.851  0.00  0.00    +0.000 C 
ATOM     10  C   UNL     1      -5.113  -4.548  -3.809  0.00  0.00    +0.000 C 
ATOM     11  C   UNL     1      -5.215  -5.753  -3.028  0.00  0.00    +0.000 C 
ATOM     12  O   UNL     1      -5.282  -6.831  -3.601  0.00  0.00    +0.000 OA
ENDROOT
BRANCH   9  13
ATOM     13  C   UNL     1      -0.448   0.555  -5.035  0.00  0.00    +0.000 A 
ATOM     14  C   UNL     1       0.021  -0.706  -5.411  0.00  0.00    +0.000 A 
ATOM     15  C   UNL     1       1.384  -0.939  -5.586  0.00  0.00    +0.000 A 
ATOM     16  C   UNL     1       2.296   0.093  -5.386  0.00  0.00    +0.000 A 
ATOM     17  C   UNL     1       1.845   1.355  -5.011  0.00  0.00    +0.000 A 
ATOM     18  C   UNL     1       0.481   1.581  -4.836  0.00  0.00    +0.000 A 
ENDBRANCH   9  13
BRANCH  11  19
ATOM     19  C   UNL     1      -5.247  -5.639  -1.560  0.00  0.00    +0.000 A 
ATOM     20  C   UNL     1      -5.383  -6.767  -0.750  0.00  0.00    +0.000 A 
ATOM     21  C   UNL     1      -5.404  -6.627   0.636  0.00  0.00    +0.000 A 
ATOM     22  C   UNL     1      -5.287  -5.364   1.210  0.00  0.00    +0.000 A 
ATOM     23  C   UNL     1      -5.148  -4.238   0.401  0.00  0.00    +0.000 A 
ATOM     24  C   UNL     1      -5.127  -4.374  -0.985  0.00  0.00    +0.000 A 
ENDBRANCH  11  19
BRANCH   9  25
ATOM     25  O   UNL     1      -2.252   2.075  -4.495  0.00  0.00    +0.000 OA
ATOM     26  H   UNL     1      -3.177   2.261  -4.730  0.00  0.00    +0.000 HD
ENDBRANCH   9  25
TORSDOF 3
ENDMDL
MODEL 8
REMARK VINA RESULT:      -5.9     25.218     27.339
REMARK  Name = Lobelin.pdbqt.pdb
REMARK  3 active torsions:
REMARK  status: ('A' for Active; 'I' for Inactive)
REMARK    1  A    between atoms: C_9  and  O_10
REMARK    2  A    between atoms: C_9  and  C_12
REMARK    3  A    between atoms: C_19  and  C_21
REMARK                            x       y       z     vdW  Elec       q    Type
REMARK                         _______ _______ _______ _____ _____    ______ ____
ROOT
ATOM      1  N   UNL     1     -14.254 -15.853  11.612  0.00  0.00    +0.000 N 
ATOM      2  C   UNL     1     -13.542 -15.489  10.391  0.00  0.00    +0.000 C 
ATOM      3  C   UNL     1     -15.654 -15.475  11.784  0.00  0.00    +0.000 C 
ATOM      4  C   UNL     1     -14.332 -14.801   9.420  0.00  0.00    +0.000 C 
ATOM      5  C   UNL     1     -16.229 -14.787  10.671  0.00  0.00    +0.000 C 
ATOM      6  C   UNL     1     -15.763 -14.308   9.310  0.00  0.00    +0.000 C 
ATOM      7  C   UNL     1     -13.542 -16.476  12.706  0.00  0.00    +0.000 C 
ATOM      8  C   UNL     1     -12.173 -15.806  10.180  0.00  0.00    +0.000 C 
ATOM      9  C   UNL     1     -10.812 -16.148   9.966  0.00  0.00    +0.000 C 
ATOM     10  C   UNL     1     -16.383 -15.781  12.960  0.00  0.00    +0.000 C 
ATOM     11  C   UNL     1     -17.132 -16.121  14.141  0.00  0.00    +0.000 C 
ATOM     12  O   UNL     1     -18.201 -16.704  14.023  0.00  0.00    +0.000 OA
ENDROOT
BRANCH   9  13
ATOM     13  C   UNL     1     -10.310 -17.520   9.893  0.00  0.00    +0.000 A 
ATOM     14  C   UNL     1     -11.075 -18.589  10.371  0.00  0.00    +0.000 A 
ATOM     15  C   UNL     1     -10.597 -19.896  10.301  0.00  0.00    +0.000 A 
ATOM     16  C   UNL     1      -9.345 -20.150   9.751  0.00  0.00    +0.000 A 
ATOM     17  C   UNL     1      -8.571 -19.098   9.272  0.00  0.00    +0.000 A 
ATOM     18  C   UNL     1      -9.053 -17.792   9.345  0.00  0.00    +0.000 A 
ENDBRANCH   9  13
BRANCH  11  19
ATOM     19  C   UNL     1     -16.585 -15.741  15.455  0.00  0.00    +0.000 A 
ATOM     20  C   UNL     1     -15.278 -16.067  15.816  0.00  0.00    +0.000 A 
ATOM     21  C   UNL     1     -14.787 -15.688  17.063  0.00  0.00    +0.000 A 
ATOM     22  C   UNL     1     -15.601 -14.982  17.947  0.00  0.00    +0.000 A 
ATOM     23  C   UNL     1     -16.906 -14.653  17.584  0.00  0.00    +0.000 A 
ATOM     24  C   UNL     1     -17.399 -15.031  16.338  0.00  0.00    +0.000 A 
ENDBRANCH  11  19
BRANCH   9  25
ATOM     25  O   UNL     1      -9.889 -15.139   9.808  0.00  0.00    +0.000 OA
ATOM     26  H   UNL     1      -9.690 -14.973   8.871  0.00  0.00    +0.000 HD
ENDBRANCH   9  25
TORSDOF 3
ENDMDL
MODEL 9
REMARK VINA RESULT:      -5.8     13.613     16.614
REMARK  Name = Lobelin.pdbqt.pdb
REMARK  3 active torsions:
REMARK  status: ('A' for Active; 'I' for Inactive)
REMARK    1  A    between atoms: C_9  and  O_10
REMARK    2  A    between atoms: C_9  and  C_12
REMARK    3  A    between atoms: C_19  and  C_21
REMARK                            x       y       z     vdW  Elec       q    Type
REMARK                         _______ _______ _______ _____ _____    ______ ____
ROOT
ATOM      1  N   UNL     1      -3.975  -4.410  -3.313  0.00  0.00    +0.000 N 
ATOM      2  C   UNL     1      -3.363  -4.764  -2.037  0.00  0.00    +0.000 C 
ATOM      3  C   UNL     1      -4.370  -3.029  -3.578  0.00  0.00    +0.000 C 
ATOM      4  C   UNL     1      -3.164  -3.667  -1.143  0.00  0.00    +0.000 C 
ATOM      5  C   UNL     1      -4.071  -2.109  -2.527  0.00  0.00    +0.000 C 
ATOM      6  C   UNL     1      -3.442  -2.174  -1.149  0.00  0.00    +0.000 C 
ATOM      7  C   UNL     1      -4.306  -5.444  -4.267  0.00  0.00    +0.000 C 
ATOM      8  C   UNL     1      -2.982  -6.094  -1.712  0.00  0.00    +0.000 C 
ATOM      9  C   UNL     1      -2.582  -7.421  -1.407  0.00  0.00    +0.000 C 
ATOM     10  C   UNL     1      -4.992  -2.638  -4.790  0.00  0.00    +0.000 C 
ATOM     11  C   UNL     1      -5.593  -2.235  -6.034  0.00  0.00    +0.000 C 
ATOM     12  O   UNL     1      -5.104  -1.305  -6.660  0.00  0.00    +0.000 OA
ENDROOT
BRANCH   9  13
ATOM     13  C   UNL     1      -1.559  -8.163  -2.144  0.00  0.00    +0.000 A 
ATOM     14  C   UNL     1      -0.236  -8.198  -1.694  0.00  0.00    +0.000 A 
ATOM     15  C   UNL     1       0.739  -8.905  -2.396  0.00  0.00    +0.000 A 
ATOM     16  C   UNL     1       0.399  -9.588  -3.560  0.00  0.00    +0.000 A 
ATOM     17  C   UNL     1      -0.913  -9.561  -4.022  0.00  0.00    +0.000 A 
ATOM     18  C   UNL     1      -1.883  -8.852  -3.316  0.00  0.00    +0.000 A 
ENDBRANCH   9  13
BRANCH  11  19
ATOM     19  C   UNL     1      -6.789  -2.955  -6.504  0.00  0.00    +0.000 A 
ATOM     20  C   UNL     1      -6.709  -4.272  -6.958  0.00  0.00    +0.000 A 
ATOM     21  C   UNL     1      -7.859  -4.928  -7.389  0.00  0.00    +0.000 A 
ATOM     22  C   UNL     1      -9.087  -4.271  -7.364  0.00  0.00    +0.000 A 
ATOM     23  C   UNL     1      -9.167  -2.957  -6.907  0.00  0.00    +0.000 A 
ATOM     24  C   UNL     1      -8.019  -2.298  -6.475  0.00  0.00    +0.000 A 
ENDBRANCH  11  19
BRANCH   9  25
ATOM     25  O   UNL     1      -3.176  -8.068  -0.347  0.00  0.00    +0.000 OA
ATOM     26  H   UNL     1      -3.457  -7.447   0.346  0.00  0.00    +0.000 HD
ENDBRANCH   9  25
TORSDOF 3
ENDMDL
