MODEL 1
REMARK VINA RESULT:      -5.1      0.000      0.000
REMARK  Name = LUCANTHONE.pdbqt.pdb
REMARK  5 active torsions:
REMARK  status: ('A' for Active; 'I' for Inactive)
REMARK    1  A    between atoms: C_3  and  N_17
REMARK    2  A    between atoms: N_17  and  C_19
REMARK    3  A    between atoms: C_20  and  N_21
REMARK    4  A    between atoms: N_21  and  C_22
REMARK    5  A    between atoms: N_21  and  C_24
REMARK                            x       y       z     vdW  Elec       q    Type
REMARK                         _______ _______ _______ _____ _____    ______ ____
ROOT
ATOM      1  S   UNL     1       7.733 -10.455  11.342  0.00  0.00    +0.000 S 
ATOM      2  O   UNL     1       5.928 -14.385  11.046  0.00  0.00    +0.000 OA
ATOM      3  C   UNL     1       4.146 -12.420  11.931  0.00  0.00    +0.000 A 
ATOM      4  C   UNL     1       5.522 -12.156  11.684  0.00  0.00    +0.000 A 
ATOM      5  C   UNL     1       6.016 -10.835  11.698  0.00  0.00    +0.000 A 
ATOM      6  C   UNL     1       5.109  -9.784  11.973  0.00  0.00    +0.000 A 
ATOM      7  C   UNL     1       6.419 -13.311  11.391  0.00  0.00    +0.000 A 
ATOM      8  C   UNL     1       3.299 -11.345  12.225  0.00  0.00    +0.000 A 
ATOM      9  C   UNL     1       7.879 -13.222  11.529  0.00  0.00    +0.000 A 
ATOM     10  C   UNL     1       3.768 -10.042  12.233  0.00  0.00    +0.000 A 
ATOM     11  C   UNL     1       8.543 -12.004  11.547  0.00  0.00    +0.000 A 
ATOM     12  C   UNL     1       5.508  -8.325  12.019  0.00  0.00    +0.000 C 
ATOM     13  C   UNL     1       8.597 -14.419  11.630  0.00  0.00    +0.000 A 
ATOM     14  C   UNL     1       9.934 -11.995  11.675  0.00  0.00    +0.000 A 
ATOM     15  C   UNL     1       9.982 -14.400  11.765  0.00  0.00    +0.000 A 
ATOM     16  C   UNL     1      10.653 -13.183  11.790  0.00  0.00    +0.000 A 
ENDROOT
BRANCH   3  17
ATOM     17  N   UNL     1       3.646 -13.744  12.047  0.00  0.00    +0.000 N 
ATOM     18  H   UNL     1       2.988 -13.964  11.285  0.00  0.00    +0.000 HD
BRANCH  17  19
ATOM     19  C   UNL     1       3.316 -14.272  13.360  0.00  0.00    +0.000 C 
ATOM     20  C   UNL     1       2.969 -14.830  14.744  0.00  0.00    +0.000 C 
BRANCH  20  21
ATOM     21  N   UNL     1       2.631 -15.367  16.052  0.00  0.00    +0.000 N 
BRANCH  21  22
ATOM     22  C   UNL     1       3.861 -15.438  16.820  0.00  0.00    +0.000 C 
ATOM     23  C   UNL     1       5.158 -15.498  17.632  0.00  0.00    +0.000 C 
ENDBRANCH  21  22
BRANCH  21  24
ATOM     24  C   UNL     1       2.193 -16.735  15.852  0.00  0.00    +0.000 C 
ATOM     25  C   UNL     1       1.716 -18.173  15.626  0.00  0.00    +0.000 C 
ENDBRANCH  21  24
ENDBRANCH  20  21
ENDBRANCH  17  19
ENDBRANCH   3  17
TORSDOF 5
ENDMDL
MODEL 2
REMARK VINA RESULT:      -5.0     23.914     26.284
REMARK  Name = LUCANTHONE.pdbqt.pdb
REMARK  5 active torsions:
REMARK  status: ('A' for Active; 'I' for Inactive)
REMARK    1  A    between atoms: C_3  and  N_17
REMARK    2  A    between atoms: N_17  and  C_19
REMARK    3  A    between atoms: C_20  and  N_21
REMARK    4  A    between atoms: N_21  and  C_22
REMARK    5  A    between atoms: N_21  and  C_24
REMARK                            x       y       z     vdW  Elec       q    Type
REMARK                         _______ _______ _______ _____ _____    ______ ____
ROOT
ATOM      1  S   UNL     1      -7.171   7.544   2.128  0.00  0.00    +0.000 S 
ATOM      2  O   UNL     1      -6.017   9.379   5.883  0.00  0.00    +0.000 OA
ATOM      3  C   UNL     1      -4.439  10.202   3.725  0.00  0.00    +0.000 A 
ATOM      4  C   UNL     1      -5.462   9.220   3.601  0.00  0.00    +0.000 A 
ATOM      5  C   UNL     1      -5.853   8.744   2.332  0.00  0.00    +0.000 A 
ATOM      6  C   UNL     1      -5.196   9.263   1.190  0.00  0.00    +0.000 A 
ATOM      7  C   UNL     1      -6.118   8.725   4.846  0.00  0.00    +0.000 A 
ATOM      8  C   UNL     1      -3.804  10.660   2.566  0.00  0.00    +0.000 A 
ATOM      9  C   UNL     1      -6.862   7.459   4.887  0.00  0.00    +0.000 A 
ATOM     10  C   UNL     1      -4.184  10.209   1.313  0.00  0.00    +0.000 A 
ATOM     11  C   UNL     1      -7.339   6.849   3.736  0.00  0.00    +0.000 A 
ATOM     12  C   UNL     1      -5.519   8.839  -0.226  0.00  0.00    +0.000 C 
ATOM     13  C   UNL     1      -7.091   6.880   6.140  0.00  0.00    +0.000 A 
ATOM     14  C   UNL     1      -8.044   5.648   3.851  0.00  0.00    +0.000 A 
ATOM     15  C   UNL     1      -7.788   5.680   6.244  0.00  0.00    +0.000 A 
ATOM     16  C   UNL     1      -8.264   5.059   5.095  0.00  0.00    +0.000 A 
ENDROOT
BRANCH   3  17
ATOM     17  N   UNL     1      -3.939  10.606   4.991  0.00  0.00    +0.000 N 
ATOM     18  H   UNL     1      -4.141  11.600   5.174  0.00  0.00    +0.000 HD
BRANCH  17  19
ATOM     19  C   UNL     1      -2.647  10.114   5.440  0.00  0.00    +0.000 C 
ATOM     20  C   UNL     1      -1.285   9.595   5.912  0.00  0.00    +0.000 C 
BRANCH  20  21
ATOM     21  N   UNL     1       0.002   9.091   6.363  0.00  0.00    +0.000 N 
BRANCH  21  22
ATOM     22  C   UNL     1       0.750  10.222   6.880  0.00  0.00    +0.000 C 
ATOM     23  C   UNL     1       1.551  11.411   7.417  0.00  0.00    +0.000 C 
ENDBRANCH  21  22
BRANCH  21  24
ATOM     24  C   UNL     1       0.715   8.630   5.187  0.00  0.00    +0.000 C 
ATOM     25  C   UNL     1       1.486   8.146   3.955  0.00  0.00    +0.000 C 
ENDBRANCH  21  24
ENDBRANCH  20  21
ENDBRANCH  17  19
ENDBRANCH   3  17
TORSDOF 5
ENDMDL
MODEL 3
REMARK VINA RESULT:      -4.7     26.171     28.645
REMARK  Name = LUCANTHONE.pdbqt.pdb
REMARK  5 active torsions:
REMARK  status: ('A' for Active; 'I' for Inactive)
REMARK    1  A    between atoms: C_3  and  N_17
REMARK    2  A    between atoms: N_17  and  C_19
REMARK    3  A    between atoms: C_20  and  N_21
REMARK    4  A    between atoms: N_21  and  C_22
REMARK    5  A    between atoms: N_21  and  C_24
REMARK                            x       y       z     vdW  Elec       q    Type
REMARK                         _______ _______ _______ _____ _____    ______ ____
ROOT
ATOM      1  S   UNL     1     -21.824  -2.050  19.465  0.00  0.00    +0.000 S 
ATOM      2  O   UNL     1     -19.021  -5.252  18.633  0.00  0.00    +0.000 OA
ATOM      3  C   UNL     1     -21.144  -5.149  16.816  0.00  0.00    +0.000 A 
ATOM      4  C   UNL     1     -21.051  -4.281  17.940  0.00  0.00    +0.000 A 
ATOM      5  C   UNL     1     -21.940  -3.196  18.089  0.00  0.00    +0.000 A 
ATOM      6  C   UNL     1     -22.930  -3.001  17.097  0.00  0.00    +0.000 A 
ATOM      7  C   UNL     1     -19.976  -4.541  18.942  0.00  0.00    +0.000 A 
ATOM      8  C   UNL     1     -22.160  -4.926  15.879  0.00  0.00    +0.000 A 
ATOM      9  C   UNL     1     -20.032  -3.999  20.307  0.00  0.00    +0.000 A 
ATOM     10  C   UNL     1     -23.034  -3.859  16.007  0.00  0.00    +0.000 A 
ATOM     11  C   UNL     1     -20.841  -2.921  20.637  0.00  0.00    +0.000 A 
ATOM     12  C   UNL     1     -23.944  -1.878  17.136  0.00  0.00    +0.000 C 
ATOM     13  C   UNL     1     -19.225  -4.600  21.278  0.00  0.00    +0.000 A 
ATOM     14  C   UNL     1     -20.839  -2.455  21.954  0.00  0.00    +0.000 A 
ATOM     15  C   UNL     1     -19.236  -4.133  22.589  0.00  0.00    +0.000 A 
ATOM     16  C   UNL     1     -20.048  -3.058  22.929  0.00  0.00    +0.000 A 
ENDROOT
BRANCH   3  17
ATOM     17  N   UNL     1     -20.348  -6.319  16.704  0.00  0.00    +0.000 N 
ATOM     18  H   UNL     1     -19.482  -6.237  17.258  0.00  0.00    +0.000 HD
BRANCH  17  19
ATOM     19  C   UNL     1     -20.232  -6.987  15.419  0.00  0.00    +0.000 C 
ATOM     20  C   UNL     1     -20.109  -7.690  14.063  0.00  0.00    +0.000 C 
BRANCH  20  21
ATOM     21  N   UNL     1     -19.995  -8.346  12.771  0.00  0.00    +0.000 N 
BRANCH  21  22
ATOM     22  C   UNL     1     -19.491  -7.363  11.830  0.00  0.00    +0.000 C 
ATOM     23  C   UNL     1     -18.946  -6.333  10.837  0.00  0.00    +0.000 C 
ENDBRANCH  21  22
BRANCH  21  24
ATOM     24  C   UNL     1     -21.340  -8.677  12.339  0.00  0.00    +0.000 C 
ATOM     25  C   UNL     1     -22.764  -9.032  11.902  0.00  0.00    +0.000 C 
ENDBRANCH  21  24
ENDBRANCH  20  21
ENDBRANCH  17  19
ENDBRANCH   3  17
TORSDOF 5
ENDMDL
MODEL 4
REMARK VINA RESULT:      -4.6      1.640      2.367
REMARK  Name = LUCANTHONE.pdbqt.pdb
REMARK  5 active torsions:
REMARK  status: ('A' for Active; 'I' for Inactive)
REMARK    1  A    between atoms: C_3  and  N_17
REMARK    2  A    between atoms: N_17  and  C_19
REMARK    3  A    between atoms: C_20  and  N_21
REMARK    4  A    between atoms: N_21  and  C_22
REMARK    5  A    between atoms: N_21  and  C_24
REMARK                            x       y       z     vdW  Elec       q    Type
REMARK                         _______ _______ _______ _____ _____    ______ ____
ROOT
ATOM      1  S   UNL     1       8.432  -8.926  10.935  0.00  0.00    +0.000 S 
ATOM      2  O   UNL     1       7.365 -13.121  11.186  0.00  0.00    +0.000 OA
ATOM      3  C   UNL     1       5.284 -11.410  11.936  0.00  0.00    +0.000 A 
ATOM      4  C   UNL     1       6.581 -10.938  11.586  0.00  0.00    +0.000 A 
ATOM      5  C   UNL     1       6.825  -9.558  11.423  0.00  0.00    +0.000 A 
ATOM      6  C   UNL     1       5.752  -8.659  11.626  0.00  0.00    +0.000 A 
ATOM      7  C   UNL     1       7.663 -11.943  11.379  0.00  0.00    +0.000 A 
ATOM      8  C   UNL     1       4.265 -10.475  12.151  0.00  0.00    +0.000 A 
ATOM      9  C   UNL     1       9.086 -11.580  11.426  0.00  0.00    +0.000 A 
ATOM     10  C   UNL     1       4.489  -9.118  11.986  0.00  0.00    +0.000 A 
ATOM     11  C   UNL     1       9.517 -10.271  11.270  0.00  0.00    +0.000 A 
ATOM     12  C   UNL     1       5.879  -7.158  11.484  0.00  0.00    +0.000 C 
ATOM     13  C   UNL     1      10.013 -12.609  11.624  0.00  0.00    +0.000 A 
ATOM     14  C   UNL     1      10.886 -10.000  11.321  0.00  0.00    +0.000 A 
ATOM     15  C   UNL     1      11.375 -12.329  11.681  0.00  0.00    +0.000 A 
ATOM     16  C   UNL     1      11.813 -11.019  11.532  0.00  0.00    +0.000 A 
ENDROOT
BRANCH   3  17
ATOM     17  N   UNL     1       5.039 -12.777  12.229  0.00  0.00    +0.000 N 
ATOM     18  H   UNL     1       4.610 -13.261  11.426  0.00  0.00    +0.000 HD
BRANCH  17  19
ATOM     19  C   UNL     1       4.550 -13.150  13.546  0.00  0.00    +0.000 C 
ATOM     20  C   UNL     1       4.036 -13.546  14.934  0.00  0.00    +0.000 C 
BRANCH  20  21
ATOM     21  N   UNL     1       3.544 -13.932  16.246  0.00  0.00    +0.000 N 
BRANCH  21  22
ATOM     22  C   UNL     1       2.920 -15.235  16.108  0.00  0.00    +0.000 C 
ATOM     23  C   UNL     1       2.254 -16.607  15.974  0.00  0.00    +0.000 C 
ENDBRANCH  21  22
BRANCH  21  24
ATOM     24  C   UNL     1       2.485 -13.004  16.595  0.00  0.00    +0.000 C 
ATOM     25  C   UNL     1       1.360 -12.037  16.978  0.00  0.00    +0.000 C 
ENDBRANCH  21  24
ENDBRANCH  20  21
ENDBRANCH  17  19
ENDBRANCH   3  17
TORSDOF 5
ENDMDL
MODEL 5
REMARK VINA RESULT:      -4.6      2.606      3.653
REMARK  Name = LUCANTHONE.pdbqt.pdb
REMARK  5 active torsions:
REMARK  status: ('A' for Active; 'I' for Inactive)
REMARK    1  A    between atoms: C_3  and  N_17
REMARK    2  A    between atoms: N_17  and  C_19
REMARK    3  A    between atoms: C_20  and  N_21
REMARK    4  A    between atoms: N_21  and  C_22
REMARK    5  A    between atoms: N_21  and  C_24
REMARK                            x       y       z     vdW  Elec       q    Type
REMARK                         _______ _______ _______ _____ _____    ______ ____
ROOT
ATOM      1  S   UNL     1       9.401  -7.623  10.100  0.00  0.00    +0.000 S 
ATOM      2  O   UNL     1       8.716 -11.811  10.992  0.00  0.00    +0.000 OA
ATOM      3  C   UNL     1       6.515 -10.187  11.576  0.00  0.00    +0.000 A 
ATOM      4  C   UNL     1       7.754  -9.665  11.109  0.00  0.00    +0.000 A 
ATOM      5  C   UNL     1       7.872  -8.309  10.741  0.00  0.00    +0.000 A 
ATOM      6  C   UNL     1       6.729  -7.482  10.857  0.00  0.00    +0.000 A 
ATOM      7  C   UNL     1       8.915 -10.597  11.002  0.00  0.00    +0.000 A 
ATOM      8  C   UNL     1       5.425  -9.319  11.698  0.00  0.00    +0.000 A 
ATOM      9  C   UNL     1      10.301 -10.114  10.939  0.00  0.00    +0.000 A 
ATOM     10  C   UNL     1       5.523  -7.987  11.331  0.00  0.00    +0.000 A 
ATOM     11  C   UNL     1      10.610  -8.810  10.579  0.00  0.00    +0.000 A 
ATOM     12  C   UNL     1       6.719  -6.012  10.497  0.00  0.00    +0.000 C 
ATOM     13  C   UNL     1      11.320 -11.023  11.243  0.00  0.00    +0.000 A 
ATOM     14  C   UNL     1      11.951  -8.422  10.534  0.00  0.00    +0.000 A 
ATOM     15  C   UNL     1      12.653 -10.625  11.202  0.00  0.00    +0.000 A 
ATOM     16  C   UNL     1      12.970  -9.318  10.849  0.00  0.00    +0.000 A 
ENDROOT
BRANCH   3  17
ATOM     17  N   UNL     1       6.400 -11.513  12.071  0.00  0.00    +0.000 N 
ATOM     18  H   UNL     1       6.896 -12.184  11.465  0.00  0.00    +0.000 HD
BRANCH  17  19
ATOM     19  C   UNL     1       5.137 -11.960  12.634  0.00  0.00    +0.000 C 
ATOM     20  C   UNL     1       3.806 -12.430  13.229  0.00  0.00    +0.000 C 
BRANCH  20  21
ATOM     21  N   UNL     1       2.547 -12.877  13.804  0.00  0.00    +0.000 N 
BRANCH  21  22
ATOM     22  C   UNL     1       2.412 -12.235  15.098  0.00  0.00    +0.000 C 
ATOM     23  C   UNL     1       2.262 -11.569  16.469  0.00  0.00    +0.000 C 
ENDBRANCH  21  22
BRANCH  21  24
ATOM     24  C   UNL     1       2.678 -14.299  14.062  0.00  0.00    +0.000 C 
ATOM     25  C   UNL     1       2.800 -15.798  14.349  0.00  0.00    +0.000 C 
ENDBRANCH  21  24
ENDBRANCH  20  21
ENDBRANCH  17  19
ENDBRANCH   3  17
TORSDOF 5
ENDMDL
MODEL 6
REMARK VINA RESULT:      -4.4     21.251     23.816
REMARK  Name = LUCANTHONE.pdbqt.pdb
REMARK  5 active torsions:
REMARK  status: ('A' for Active; 'I' for Inactive)
REMARK    1  A    between atoms: C_3  and  N_17
REMARK    2  A    between atoms: N_17  and  C_19
REMARK    3  A    between atoms: C_20  and  N_21
REMARK    4  A    between atoms: N_21  and  C_22
REMARK    5  A    between atoms: N_21  and  C_24
REMARK                            x       y       z     vdW  Elec       q    Type
REMARK                         _______ _______ _______ _____ _____    ______ ____
ROOT
ATOM      1  S   UNL     1      -3.676  -3.149  -2.273  0.00  0.00    +0.000 S 
ATOM      2  O   UNL     1      -5.706  -6.098  -4.719  0.00  0.00    +0.000 OA
ATOM      3  C   UNL     1      -5.568  -3.577  -5.923  0.00  0.00    +0.000 A 
ATOM      4  C   UNL     1      -5.086  -3.830  -4.607  0.00  0.00    +0.000 A 
ATOM      5  C   UNL     1      -4.343  -2.853  -3.912  0.00  0.00    +0.000 A 
ATOM      6  C   UNL     1      -4.100  -1.615  -4.553  0.00  0.00    +0.000 A 
ATOM      7  C   UNL     1      -5.373  -5.160  -3.996  0.00  0.00    +0.000 A 
ATOM      8  C   UNL     1      -5.321  -2.326  -6.498  0.00  0.00    +0.000 A 
ATOM      9  C   UNL     1      -5.300  -5.387  -2.546  0.00  0.00    +0.000 A 
ATOM     10  C   UNL     1      -4.586  -1.361  -5.832  0.00  0.00    +0.000 A 
ATOM     11  C   UNL     1      -4.599  -4.536  -1.704  0.00  0.00    +0.000 A 
ATOM     12  C   UNL     1      -3.318  -0.484  -3.921  0.00  0.00    +0.000 C 
ATOM     13  C   UNL     1      -5.956  -6.509  -2.030  0.00  0.00    +0.000 A 
ATOM     14  C   UNL     1      -4.568  -4.816  -0.336  0.00  0.00    +0.000 A 
ATOM     15  C   UNL     1      -5.925  -6.776  -0.665  0.00  0.00    +0.000 A 
ATOM     16  C   UNL     1      -5.230  -5.925   0.187  0.00  0.00    +0.000 A 
ENDROOT
BRANCH   3  17
ATOM     17  N   UNL     1      -6.423  -4.490  -6.595  0.00  0.00    +0.000 N 
ATOM     18  H   UNL     1      -5.908  -5.031  -7.307  0.00  0.00    +0.000 HD
BRANCH  17  19
ATOM     19  C   UNL     1      -7.773  -4.082  -6.944  0.00  0.00    +0.000 C 
ATOM     20  C   UNL     1      -9.197  -3.654  -7.312  0.00  0.00    +0.000 C 
BRANCH  20  21
ATOM     21  N   UNL     1     -10.548  -3.255  -7.671  0.00  0.00    +0.000 N 
BRANCH  21  22
ATOM     22  C   UNL     1     -10.687  -1.850  -7.333  0.00  0.00    +0.000 C 
ATOM     23  C   UNL     1     -10.833  -0.365  -6.990  0.00  0.00    +0.000 C 
ENDBRANCH  21  22
BRANCH  21  24
ATOM     24  C   UNL     1     -11.453  -3.979  -6.799  0.00  0.00    +0.000 C 
ATOM     25  C   UNL     1     -12.398  -4.761  -5.881  0.00  0.00    +0.000 C 
ENDBRANCH  21  24
ENDBRANCH  20  21
ENDBRANCH  17  19
ENDBRANCH   3  17
TORSDOF 5
ENDMDL
MODEL 7
REMARK VINA RESULT:      -4.2      8.091     10.992
REMARK  Name = LUCANTHONE.pdbqt.pdb
REMARK  5 active torsions:
REMARK  status: ('A' for Active; 'I' for Inactive)
REMARK    1  A    between atoms: C_3  and  N_17
REMARK    2  A    between atoms: N_17  and  C_19
REMARK    3  A    between atoms: C_20  and  N_21
REMARK    4  A    between atoms: N_21  and  C_22
REMARK    5  A    between atoms: N_21  and  C_24
REMARK                            x       y       z     vdW  Elec       q    Type
REMARK                         _______ _______ _______ _____ _____    ______ ____
ROOT
ATOM      1  S   UNL     1       2.136 -14.782  18.448  0.00  0.00    +0.000 S 
ATOM      2  O   UNL     1      -0.952 -14.433  21.472  0.00  0.00    +0.000 OA
ATOM      3  C   UNL     1      -1.348 -16.592  19.739  0.00  0.00    +0.000 A 
ATOM      4  C   UNL     1      -0.280 -15.665  19.581  0.00  0.00    +0.000 A 
ATOM      5  C   UNL     1       0.746 -15.900  18.642  0.00  0.00    +0.000 A 
ATOM      6  C   UNL     1       0.678 -17.075  17.857  0.00  0.00    +0.000 A 
ATOM      7  C   UNL     1      -0.267 -14.452  20.450  0.00  0.00    +0.000 A 
ATOM      8  C   UNL     1      -1.380 -17.724  18.916  0.00  0.00    +0.000 A 
ATOM      9  C   UNL     1       0.517 -13.256  20.111  0.00  0.00    +0.000 A 
ATOM     10  C   UNL     1      -0.375 -17.973  17.997  0.00  0.00    +0.000 A 
ATOM     11  C   UNL     1       1.576 -13.301  19.216  0.00  0.00    +0.000 A 
ATOM     12  C   UNL     1       1.711 -17.446  16.816  0.00  0.00    +0.000 C 
ATOM     13  C   UNL     1       0.170 -12.053  20.736  0.00  0.00    +0.000 A 
ATOM     14  C   UNL     1       2.281 -12.125  18.946  0.00  0.00    +0.000 A 
ATOM     15  C   UNL     1       0.873 -10.886  20.455  0.00  0.00    +0.000 A 
ATOM     16  C   UNL     1       1.932 -10.921  19.554  0.00  0.00    +0.000 A 
ENDROOT
BRANCH   3  17
ATOM     17  N   UNL     1      -2.457 -16.321  20.583  0.00  0.00    +0.000 N 
ATOM     18  H   UNL     1      -2.253 -16.571  21.562  0.00  0.00    +0.000 HD
BRANCH  17  19
ATOM     19  C   UNL     1      -3.802 -16.602  20.111  0.00  0.00    +0.000 C 
ATOM     20  C   UNL     1      -5.221 -16.897  19.613  0.00  0.00    +0.000 C 
BRANCH  20  21
ATOM     21  N   UNL     1      -6.572 -17.171  19.150  0.00  0.00    +0.000 N 
BRANCH  21  22
ATOM     22  C   UNL     1      -6.810 -16.331  17.991  0.00  0.00    +0.000 C 
ATOM     23  C   UNL     1      -7.048 -15.438  16.770  0.00  0.00    +0.000 C 
ENDBRANCH  21  22
BRANCH  21  24
ATOM     24  C   UNL     1      -7.479 -16.712  20.185  0.00  0.00    +0.000 C 
ATOM     25  C   UNL     1      -8.425 -16.236  21.291  0.00  0.00    +0.000 C 
ENDBRANCH  21  24
ENDBRANCH  20  21
ENDBRANCH  17  19
ENDBRANCH   3  17
TORSDOF 5
ENDMDL
MODEL 8
REMARK VINA RESULT:      -4.2     25.843     27.231
REMARK  Name = LUCANTHONE.pdbqt.pdb
REMARK  5 active torsions:
REMARK  status: ('A' for Active; 'I' for Inactive)
REMARK    1  A    between atoms: C_3  and  N_17
REMARK    2  A    between atoms: N_17  and  C_19
REMARK    3  A    between atoms: C_20  and  N_21
REMARK    4  A    between atoms: N_21  and  C_22
REMARK    5  A    between atoms: N_21  and  C_24
REMARK                            x       y       z     vdW  Elec       q    Type
REMARK                         _______ _______ _______ _____ _____    ______ ____
ROOT
ATOM      1  S   UNL     1      -4.456  10.994   2.700  0.00  0.00    +0.000 S 
ATOM      2  O   UNL     1      -5.759   9.229   6.440  0.00  0.00    +0.000 OA
ATOM      3  C   UNL     1      -6.557   7.765   4.195  0.00  0.00    +0.000 A 
ATOM      4  C   UNL     1      -5.863   9.003   4.099  0.00  0.00    +0.000 A 
ATOM      5  C   UNL     1      -5.379   9.464   2.856  0.00  0.00    +0.000 A 
ATOM      6  C   UNL     1      -5.611   8.667   1.710  0.00  0.00    +0.000 A 
ATOM      7  C   UNL     1      -5.646   9.787   5.349  0.00  0.00    +0.000 A 
ATOM      8  C   UNL     1      -6.783   7.030   3.025  0.00  0.00    +0.000 A 
ATOM      9  C   UNL     1      -5.328  11.222   5.327  0.00  0.00    +0.000 A 
ATOM     10  C   UNL     1      -6.306   7.465   1.800  0.00  0.00    +0.000 A 
ATOM     11  C   UNL     1      -4.827  11.847   4.195  0.00  0.00    +0.000 A 
ATOM     12  C   UNL     1      -5.146   9.044   0.320  0.00  0.00    +0.000 C 
ATOM     13  C   UNL     1      -5.536  11.951   6.503  0.00  0.00    +0.000 A 
ATOM     14  C   UNL     1      -4.542  13.213   4.248  0.00  0.00    +0.000 A 
ATOM     15  C   UNL     1      -5.256  13.314   6.545  0.00  0.00    +0.000 A 
ATOM     16  C   UNL     1      -4.760  13.948   5.412  0.00  0.00    +0.000 A 
ENDROOT
BRANCH   3  17
ATOM     17  N   UNL     1      -7.164   7.338   5.405  0.00  0.00    +0.000 N 
ATOM     18  H   UNL     1      -6.467   6.939   6.053  0.00  0.00    +0.000 HD
BRANCH  17  19
ATOM     19  C   UNL     1      -8.460   6.682   5.365  0.00  0.00    +0.000 C 
ATOM     20  C   UNL     1      -9.826   5.990   5.323  0.00  0.00    +0.000 C 
BRANCH  20  21
ATOM     21  N   UNL     1     -11.122   5.331   5.295  0.00  0.00    +0.000 N 
BRANCH  21  22
ATOM     22  C   UNL     1     -11.561   5.301   3.912  0.00  0.00    +0.000 C 
ATOM     23  C   UNL     1     -12.035   5.260   2.457  0.00  0.00    +0.000 C 
ENDBRANCH  21  22
BRANCH  21  24
ATOM     24  C   UNL     1     -12.053   6.188   6.004  0.00  0.00    +0.000 C 
ATOM     25  C   UNL     1     -13.022   7.096   6.767  0.00  0.00    +0.000 C 
ENDBRANCH  21  24
ENDBRANCH  20  21
ENDBRANCH  17  19
ENDBRANCH   3  17
TORSDOF 5
ENDMDL
MODEL 9
REMARK VINA RESULT:      -4.1      4.350      5.979
REMARK  Name = LUCANTHONE.pdbqt.pdb
REMARK  5 active torsions:
REMARK  status: ('A' for Active; 'I' for Inactive)
REMARK    1  A    between atoms: C_3  and  N_17
REMARK    2  A    between atoms: N_17  and  C_19
REMARK    3  A    between atoms: C_20  and  N_21
REMARK    4  A    between atoms: N_21  and  C_22
REMARK    5  A    between atoms: N_21  and  C_24
REMARK                            x       y       z     vdW  Elec       q    Type
REMARK                         _______ _______ _______ _____ _____    ______ ____
ROOT
ATOM      1  S   UNL     1       9.235  -5.195   8.900  0.00  0.00    +0.000 S 
ATOM      2  O   UNL     1       9.548  -9.218  10.485  0.00  0.00    +0.000 OA
ATOM      3  C   UNL     1       6.969  -8.156  10.682  0.00  0.00    +0.000 A 
ATOM      4  C   UNL     1       8.073  -7.409  10.183  0.00  0.00    +0.000 A 
ATOM      5  C   UNL     1       7.877  -6.146   9.587  0.00  0.00    +0.000 A 
ATOM      6  C   UNL     1       6.558  -5.639   9.508  0.00  0.00    +0.000 A 
ATOM      7  C   UNL     1       9.434  -8.009  10.290  0.00  0.00    +0.000 A 
ATOM      8  C   UNL     1       5.689  -7.595  10.603  0.00  0.00    +0.000 A 
ATOM      9  C   UNL     1      10.656  -7.197  10.200  0.00  0.00    +0.000 A 
ATOM     10  C   UNL     1       5.481  -6.360  10.013  0.00  0.00    +0.000 A 
ATOM     11  C   UNL     1      10.657  -5.932   9.630  0.00  0.00    +0.000 A 
ATOM     12  C   UNL     1       6.211  -4.300   8.895  0.00  0.00    +0.000 C 
ATOM     13  C   UNL     1      11.840  -7.747  10.702  0.00  0.00    +0.000 A 
ATOM     14  C   UNL     1      11.857  -5.219   9.574  0.00  0.00    +0.000 A 
ATOM     15  C   UNL     1      13.029  -7.026  10.647  0.00  0.00    +0.000 A 
ATOM     16  C   UNL     1      13.037  -5.755  10.083  0.00  0.00    +0.000 A 
ENDROOT
BRANCH   3  17
ATOM     17  N   UNL     1       7.147  -9.369  11.398  0.00  0.00    +0.000 N 
ATOM     18  H   UNL     1       8.044  -9.818  11.156  0.00  0.00    +0.000 HD
BRANCH  17  19
ATOM     19  C   UNL     1       6.014 -10.255  11.600  0.00  0.00    +0.000 C 
ATOM     20  C   UNL     1       4.819 -11.190  11.814  0.00  0.00    +0.000 C 
BRANCH  20  21
ATOM     21  N   UNL     1       3.693 -12.087  12.015  0.00  0.00    +0.000 N 
BRANCH  21  22
ATOM     22  C   UNL     1       3.220 -11.888  13.373  0.00  0.00    +0.000 C 
ATOM     23  C   UNL     1       2.721 -11.694  14.808  0.00  0.00    +0.000 C 
ENDBRANCH  21  22
BRANCH  21  24
ATOM     24  C   UNL     1       4.209 -13.441  11.954  0.00  0.00    +0.000 C 
ATOM     25  C   UNL     1       4.765 -14.866  11.872  0.00  0.00    +0.000 C 
ENDBRANCH  21  24
ENDBRANCH  20  21
ENDBRANCH  17  19
ENDBRANCH   3  17
TORSDOF 5
ENDMDL
