MODEL 1
REMARK VINA RESULT:      -4.4      0.000      0.000
REMARK  Name = MeIQx.pdbqt.pdb
REMARK  0 active torsions:
REMARK  status: ('A' for Active; 'I' for Inactive)
REMARK                            x       y       z     vdW  Elec       q    Type
REMARK                         _______ _______ _______ _____ _____    ______ ____
ROOT
ATOM      1  N   UNL     1      -1.619  -3.733  -4.157  0.00  0.00    +0.000 N 
ATOM      2  N   UNL     1      -2.217  -5.383  -2.807  0.00  0.00    +0.000 NA
ATOM      3  N   UNL     1      -4.075  -5.006  -0.565  0.00  0.00    +0.000 NA
ATOM      4  N   UNL     1      -5.110  -2.384  -0.170  0.00  0.00    +0.000 NA
ATOM      5  C   UNL     1      -2.478  -3.154  -3.262  0.00  0.00    +0.000 A 
ATOM      6  C   UNL     1      -2.842  -4.206  -2.423  0.00  0.00    +0.000 A 
ATOM      7  C   UNL     1      -3.745  -3.952  -1.360  0.00  0.00    +0.000 A 
ATOM      8  C   UNL     1      -4.252  -2.643  -1.175  0.00  0.00    +0.000 A 
ATOM      9  C   UNL     1      -1.480  -5.077  -3.852  0.00  0.00    +0.000 A 
ATOM     10  C   UNL     1      -2.963  -1.853  -3.106  0.00  0.00    +0.000 A 
ATOM     11  C   UNL     1      -3.850  -1.639  -2.046  0.00  0.00    +0.000 A 
ATOM     12  C   UNL     1      -0.998  -3.054  -5.258  0.00  0.00    +0.000 C 
ATOM     13  C   UNL     1      -4.935  -4.725   0.435  0.00  0.00    +0.000 A 
ATOM     14  C   UNL     1      -5.439  -3.442   0.626  0.00  0.00    +0.000 A 
ATOM     15  C   UNL     1      -5.353  -5.836   1.356  0.00  0.00    +0.000 C 
ATOM     16  N   UNL     1      -0.696  -5.938  -4.538  0.00  0.00    +0.000 N 
ATOM     17  H   UNL     1      -0.812  -6.933  -4.369  0.00  0.00    +0.000 HD
ATOM     18  H   UNL     1      -0.329  -5.692  -5.455  0.00  0.00    +0.000 HD
ENDROOT
TORSDOF 0
ENDMDL
MODEL 2
REMARK VINA RESULT:      -4.4     28.946     30.704
REMARK  Name = MeIQx.pdbqt.pdb
REMARK  0 active torsions:
REMARK  status: ('A' for Active; 'I' for Inactive)
REMARK                            x       y       z     vdW  Elec       q    Type
REMARK                         _______ _______ _______ _____ _____    ______ ____
ROOT
ATOM      1  N   UNL     1     -13.315  -7.766  27.486  0.00  0.00    +0.000 N 
ATOM      2  N   UNL     1     -12.313  -5.851  27.967  0.00  0.00    +0.000 NA
ATOM      3  N   UNL     1      -9.485  -5.342  27.360  0.00  0.00    +0.000 NA
ATOM      4  N   UNL     1      -8.035  -7.442  26.100  0.00  0.00    +0.000 NA
ATOM      5  C   UNL     1     -12.027  -7.930  27.051  0.00  0.00    +0.000 A 
ATOM      6  C   UNL     1     -11.414  -6.717  27.363  0.00  0.00    +0.000 A 
ATOM      7  C   UNL     1     -10.045  -6.539  27.040  0.00  0.00    +0.000 A 
ATOM      8  C   UNL     1      -9.336  -7.593  26.414  0.00  0.00    +0.000 A 
ATOM      9  C   UNL     1     -13.452  -6.502  28.038  0.00  0.00    +0.000 A 
ATOM     10  C   UNL     1     -11.354  -8.985  26.431  0.00  0.00    +0.000 A 
ATOM     11  C   UNL     1     -10.005  -8.776  26.129  0.00  0.00    +0.000 A 
ATOM     12  C   UNL     1     -14.360  -8.739  27.349  0.00  0.00    +0.000 C 
ATOM     13  C   UNL     1      -8.182  -5.211  27.038  0.00  0.00    +0.000 A 
ATOM     14  C   UNL     1      -7.476  -6.240  26.423  0.00  0.00    +0.000 A 
ATOM     15  C   UNL     1      -7.490  -3.916  27.355  0.00  0.00    +0.000 C 
ATOM     16  N   UNL     1     -14.599  -6.022  28.567  0.00  0.00    +0.000 N 
ATOM     17  H   UNL     1     -14.659  -5.026  28.762  0.00  0.00    +0.000 HD
ATOM     18  H   UNL     1     -15.488  -6.485  28.394  0.00  0.00    +0.000 HD
ENDROOT
TORSDOF 0
ENDMDL
MODEL 3
REMARK VINA RESULT:      -4.2     18.359     21.326
REMARK  Name = MeIQx.pdbqt.pdb
REMARK  0 active torsions:
REMARK  status: ('A' for Active; 'I' for Inactive)
REMARK                            x       y       z     vdW  Elec       q    Type
REMARK                         _______ _______ _______ _____ _____    ______ ____
ROOT
ATOM      1  N   UNL     1     -15.612 -15.468  13.358  0.00  0.00    +0.000 N 
ATOM      2  N   UNL     1     -13.456 -15.972  13.416  0.00  0.00    +0.000 NA
ATOM      3  N   UNL     1     -11.768 -16.006  11.014  0.00  0.00    +0.000 NA
ATOM      4  N   UNL     1     -13.021 -15.354   8.543  0.00  0.00    +0.000 NA
ATOM      5  C   UNL     1     -15.198 -15.372  12.056  0.00  0.00    +0.000 A 
ATOM      6  C   UNL     1     -13.842 -15.693  12.114  0.00  0.00    +0.000 A 
ATOM      7  C   UNL     1     -13.087 -15.689  10.914  0.00  0.00    +0.000 A 
ATOM      8  C   UNL     1     -13.724 -15.362   9.692  0.00  0.00    +0.000 A 
ATOM      9  C   UNL     1     -14.537 -15.837  14.151  0.00  0.00    +0.000 A 
ATOM     10  C   UNL     1     -15.852 -15.043  10.867  0.00  0.00    +0.000 A 
ATOM     11  C   UNL     1     -15.076 -15.052   9.703  0.00  0.00    +0.000 A 
ATOM     12  C   UNL     1     -16.940 -15.189  13.821  0.00  0.00    +0.000 C 
ATOM     13  C   UNL     1     -11.083 -15.992   9.852  0.00  0.00    +0.000 A 
ATOM     14  C   UNL     1     -11.699 -15.673   8.646  0.00  0.00    +0.000 A 
ATOM     15  C   UNL     1      -9.619 -16.328   9.877  0.00  0.00    +0.000 C 
ATOM     16  N   UNL     1     -14.606 -16.025  15.488  0.00  0.00    +0.000 N 
ATOM     17  H   UNL     1     -13.736 -16.095  16.009  0.00  0.00    +0.000 HD
ATOM     18  H   UNL     1     -15.407 -15.694  16.021  0.00  0.00    +0.000 HD
ENDROOT
TORSDOF 0
ENDMDL
MODEL 4
REMARK VINA RESULT:      -4.1      2.842      3.767
REMARK  Name = MeIQx.pdbqt.pdb
REMARK  0 active torsions:
REMARK  status: ('A' for Active; 'I' for Inactive)
REMARK                            x       y       z     vdW  Elec       q    Type
REMARK                         _______ _______ _______ _____ _____    ______ ____
ROOT
ATOM      1  N   UNL     1      -3.273  -0.911  -5.688  0.00  0.00    +0.000 N 
ATOM      2  N   UNL     1      -3.329  -0.792  -3.477  0.00  0.00    +0.000 NA
ATOM      3  N   UNL     1      -4.619  -2.835  -1.809  0.00  0.00    +0.000 NA
ATOM      4  N   UNL     1      -5.826  -5.032  -3.157  0.00  0.00    +0.000 NA
ATOM      5  C   UNL     1      -3.952  -2.034  -5.297  0.00  0.00    +0.000 A 
ATOM      6  C   UNL     1      -3.977  -1.940  -3.906  0.00  0.00    +0.000 A 
ATOM      7  C   UNL     1      -4.617  -2.964  -3.163  0.00  0.00    +0.000 A 
ATOM      8  C   UNL     1      -5.213  -4.051  -3.847  0.00  0.00    +0.000 A 
ATOM      9  C   UNL     1      -2.915  -0.181  -4.565  0.00  0.00    +0.000 A 
ATOM     10  C   UNL     1      -4.529  -3.095  -5.999  0.00  0.00    +0.000 A 
ATOM     11  C   UNL     1      -5.153  -4.085  -5.234  0.00  0.00    +0.000 A 
ATOM     12  C   UNL     1      -2.951  -0.574  -7.044  0.00  0.00    +0.000 C 
ATOM     13  C   UNL     1      -5.237  -3.828  -1.137  0.00  0.00    +0.000 A 
ATOM     14  C   UNL     1      -5.826  -4.900  -1.800  0.00  0.00    +0.000 A 
ATOM     15  C   UNL     1      -5.279  -3.762   0.363  0.00  0.00    +0.000 C 
ATOM     16  N   UNL     1      -2.238   0.988  -4.600  0.00  0.00    +0.000 N 
ATOM     17  H   UNL     1      -1.848   1.343  -3.731  0.00  0.00    +0.000 HD
ATOM     18  H   UNL     1      -1.761   1.290  -5.446  0.00  0.00    +0.000 HD
ENDROOT
TORSDOF 0
ENDMDL
MODEL 5
REMARK VINA RESULT:      -3.8     19.212     22.622
REMARK  Name = MeIQx.pdbqt.pdb
REMARK  0 active torsions:
REMARK  status: ('A' for Active; 'I' for Inactive)
REMARK                            x       y       z     vdW  Elec       q    Type
REMARK                         _______ _______ _______ _____ _____    ______ ____
ROOT
ATOM      1  N   UNL     1     -14.779 -17.098  15.186  0.00  0.00    +0.000 N 
ATOM      2  N   UNL     1     -12.672 -17.301  14.536  0.00  0.00    +0.000 NA
ATOM      3  N   UNL     1     -11.749 -16.498  11.866  0.00  0.00    +0.000 NA
ATOM      4  N   UNL     1     -13.698 -15.422  10.094  0.00  0.00    +0.000 NA
ATOM      5  C   UNL     1     -14.765 -16.621  13.902  0.00  0.00    +0.000 A 
ATOM      6  C   UNL     1     -13.433 -16.758  13.512  0.00  0.00    +0.000 A 
ATOM      7  C   UNL     1     -13.057 -16.349  12.208  0.00  0.00    +0.000 A 
ATOM      8  C   UNL     1     -14.037 -15.815  11.336  0.00  0.00    +0.000 A 
ATOM      9  C   UNL     1     -13.501 -17.504  15.535  0.00  0.00    +0.000 A 
ATOM     10  C   UNL     1     -15.752 -16.096  13.066  0.00  0.00    +0.000 A 
ATOM     11  C   UNL     1     -15.346 -15.705  11.786  0.00  0.00    +0.000 A 
ATOM     12  C   UNL     1     -15.932 -17.128  16.039  0.00  0.00    +0.000 C 
ATOM     13  C   UNL     1     -11.430 -16.098  10.619  0.00  0.00    +0.000 A 
ATOM     14  C   UNL     1     -12.386 -15.573   9.754  0.00  0.00    +0.000 A 
ATOM     15  C   UNL     1     -10.003 -16.227  10.166  0.00  0.00    +0.000 C 
ATOM     16  N   UNL     1     -13.170 -18.030  16.735  0.00  0.00    +0.000 N 
ATOM     17  H   UNL     1     -12.185 -18.110  16.969  0.00  0.00    +0.000 HD
ATOM     18  H   UNL     1     -13.802 -17.957  17.529  0.00  0.00    +0.000 HD
ENDROOT
TORSDOF 0
ENDMDL
MODEL 6
REMARK VINA RESULT:      -3.8     23.497     23.689
REMARK  Name = MeIQx.pdbqt.pdb
REMARK  0 active torsions:
REMARK  status: ('A' for Active; 'I' for Inactive)
REMARK                            x       y       z     vdW  Elec       q    Type
REMARK                         _______ _______ _______ _____ _____    ______ ____
ROOT
ATOM      1  N   UNL     1     -11.895   7.051  17.050  0.00  0.00    +0.000 N 
ATOM      2  N   UNL     1     -13.617   7.521  15.738  0.00  0.00    +0.000 NA
ATOM      3  N   UNL     1     -15.823   5.639  15.278  0.00  0.00    +0.000 NA
ATOM      4  N   UNL     1     -15.675   3.125  16.604  0.00  0.00    +0.000 NA
ATOM      5  C   UNL     1     -12.685   5.934  17.101  0.00  0.00    +0.000 A 
ATOM      6  C   UNL     1     -13.761   6.249  16.271  0.00  0.00    +0.000 A 
ATOM      7  C   UNL     1     -14.792   5.292  16.094  0.00  0.00    +0.000 A 
ATOM      8  C   UNL     1     -14.705   4.045  16.761  0.00  0.00    +0.000 A 
ATOM      9  C   UNL     1     -12.484   7.987  16.215  0.00  0.00    +0.000 A 
ATOM     10  C   UNL     1     -12.574   4.714  17.773  0.00  0.00    +0.000 A 
ATOM     11  C   UNL     1     -13.608   3.794  17.574  0.00  0.00    +0.000 A 
ATOM     12  C   UNL     1     -10.674   7.229  17.781  0.00  0.00    +0.000 C 
ATOM     13  C   UNL     1     -16.783   4.703  15.135  0.00  0.00    +0.000 A 
ATOM     14  C   UNL     1     -16.708   3.474  15.784  0.00  0.00    +0.000 A 
ATOM     15  C   UNL     1     -17.959   5.010  14.251  0.00  0.00    +0.000 C 
ATOM     16  N   UNL     1     -11.958   9.202  15.941  0.00  0.00    +0.000 N 
ATOM     17  H   UNL     1     -12.550   9.890  15.486  0.00  0.00    +0.000 HD
ATOM     18  H   UNL     1     -11.202   9.583  16.506  0.00  0.00    +0.000 HD
ENDROOT
TORSDOF 0
ENDMDL
MODEL 7
REMARK VINA RESULT:      -3.7     10.767     12.186
REMARK  Name = MeIQx.pdbqt.pdb
REMARK  0 active torsions:
REMARK  status: ('A' for Active; 'I' for Inactive)
REMARK                            x       y       z     vdW  Elec       q    Type
REMARK                         _______ _______ _______ _____ _____    ______ ____
ROOT
ATOM      1  N   UNL     1     -13.360   1.699  -2.023  0.00  0.00    +0.000 N 
ATOM      2  N   UNL     1     -12.457   0.894  -3.877  0.00  0.00    +0.000 NA
ATOM      3  N   UNL     1     -11.048   2.584  -5.822  0.00  0.00    +0.000 NA
ATOM      4  N   UNL     1     -10.875   5.363  -5.233  0.00  0.00    +0.000 NA
ATOM      5  C   UNL     1     -12.811   2.789  -2.643  0.00  0.00    +0.000 A 
ATOM      6  C   UNL     1     -12.249   2.263  -3.806  0.00  0.00    +0.000 A 
ATOM      7  C   UNL     1     -11.583   3.137  -4.700  0.00  0.00    +0.000 A 
ATOM      8  C   UNL     1     -11.504   4.518  -4.395  0.00  0.00    +0.000 A 
ATOM      9  C   UNL     1     -13.132   0.572  -2.797  0.00  0.00    +0.000 A 
ATOM     10  C   UNL     1     -12.747   4.145  -2.314  0.00  0.00    +0.000 A 
ATOM     11  C   UNL     1     -12.084   4.979  -3.221  0.00  0.00    +0.000 A 
ATOM     12  C   UNL     1     -14.027   1.724  -0.753  0.00  0.00    +0.000 C 
ATOM     13  C   UNL     1     -10.422   3.447  -6.648  0.00  0.00    +0.000 A 
ATOM     14  C   UNL     1     -10.340   4.805  -6.357  0.00  0.00    +0.000 A 
ATOM     15  C   UNL     1      -9.801   2.914  -7.908  0.00  0.00    +0.000 C 
ATOM     16  N   UNL     1     -13.549  -0.672  -2.473  0.00  0.00    +0.000 N 
ATOM     17  H   UNL     1     -13.167  -1.457  -2.992  0.00  0.00    +0.000 HD
ATOM     18  H   UNL     1     -13.869  -0.887  -1.531  0.00  0.00    +0.000 HD
ENDROOT
TORSDOF 0
ENDMDL
MODEL 8
REMARK VINA RESULT:      -3.6     23.278     25.092
REMARK  Name = MeIQx.pdbqt.pdb
REMARK  0 active torsions:
REMARK  status: ('A' for Active; 'I' for Inactive)
REMARK                            x       y       z     vdW  Elec       q    Type
REMARK                         _______ _______ _______ _____ _____    ______ ____
ROOT
ATOM      1  N   UNL     1      -9.725   7.045  20.851  0.00  0.00    +0.000 N 
ATOM      2  N   UNL     1     -10.806   7.835  19.088  0.00  0.00    +0.000 NA
ATOM      3  N   UNL     1     -12.614   6.186  17.464  0.00  0.00    +0.000 NA
ATOM      4  N   UNL     1     -12.940   3.470  18.247  0.00  0.00    +0.000 NA
ATOM      5  C   UNL     1     -10.447   5.981  20.382  0.00  0.00    +0.000 A 
ATOM      6  C   UNL     1     -11.119   6.497  19.274  0.00  0.00    +0.000 A 
ATOM      7  C   UNL     1     -11.977   5.644  18.536  0.00  0.00    +0.000 A 
ATOM      8  C   UNL     1     -12.130   4.294  18.937  0.00  0.00    +0.000 A 
ATOM      9  C   UNL     1      -9.961   8.147  20.045  0.00  0.00    +0.000 A 
ATOM     10  C   UNL     1     -10.580   4.655  20.803  0.00  0.00    +0.000 A 
ATOM     11  C   UNL     1     -11.433   3.842  20.050  0.00  0.00    +0.000 A 
ATOM     12  C   UNL     1      -8.891   7.023  22.019  0.00  0.00    +0.000 C 
ATOM     13  C   UNL     1     -13.420   5.344  16.786  0.00  0.00    +0.000 A 
ATOM     14  C   UNL     1     -13.577   4.016  17.172  0.00  0.00    +0.000 A 
ATOM     15  C   UNL     1     -14.164   5.868  15.590  0.00  0.00    +0.000 C 
ATOM     16  N   UNL     1      -9.397   9.362  20.229  0.00  0.00    +0.000 N 
ATOM     17  H   UNL     1      -9.780  10.151  19.717  0.00  0.00    +0.000 HD
ATOM     18  H   UNL     1      -8.931   9.594  21.103  0.00  0.00    +0.000 HD
ENDROOT
TORSDOF 0
ENDMDL
MODEL 9
REMARK VINA RESULT:      -3.5      2.322      3.425
REMARK  Name = MeIQx.pdbqt.pdb
REMARK  0 active torsions:
REMARK  status: ('A' for Active; 'I' for Inactive)
REMARK                            x       y       z     vdW  Elec       q    Type
REMARK                         _______ _______ _______ _____ _____    ______ ____
ROOT
ATOM      1  N   UNL     1      -3.519  -2.835  -5.900  0.00  0.00    +0.000 N 
ATOM      2  N   UNL     1      -4.118  -1.540  -4.206  0.00  0.00    +0.000 NA
ATOM      3  N   UNL     1      -5.074  -2.615  -1.646  0.00  0.00    +0.000 NA
ATOM      4  N   UNL     1      -5.211  -5.448  -1.403  0.00  0.00    +0.000 NA
ATOM      5  C   UNL     1      -3.896  -3.707  -4.913  0.00  0.00    +0.000 A 
ATOM      6  C   UNL     1      -4.269  -2.874  -3.859  0.00  0.00    +0.000 A 
ATOM      7  C   UNL     1      -4.721  -3.462  -2.650  0.00  0.00    +0.000 A 
ATOM      8  C   UNL     1      -4.784  -4.873  -2.544  0.00  0.00    +0.000 A 
ATOM      9  C   UNL     1      -3.670  -1.536  -5.442  0.00  0.00    +0.000 A 
ATOM     10  C   UNL     1      -3.945  -5.101  -4.836  0.00  0.00    +0.000 A 
ATOM     11  C   UNL     1      -4.398  -5.645  -3.630  0.00  0.00    +0.000 A 
ATOM     12  C   UNL     1      -3.011  -3.218  -7.186  0.00  0.00    +0.000 C 
ATOM     13  C   UNL     1      -5.499  -3.211  -0.513  0.00  0.00    +0.000 A 
ATOM     14  C   UNL     1      -5.565  -4.596  -0.398  0.00  0.00    +0.000 A 
ATOM     15  C   UNL     1      -5.904  -2.345   0.646  0.00  0.00    +0.000 C 
ATOM     16  N   UNL     1      -3.391  -0.433  -6.171  0.00  0.00    +0.000 N 
ATOM     17  H   UNL     1      -3.339   0.460  -5.691  0.00  0.00    +0.000 HD
ATOM     18  H   UNL     1      -2.847  -0.498  -7.029  0.00  0.00    +0.000 HD
ENDROOT
TORSDOF 0
ENDMDL
