MODEL 1
REMARK VINA RESULT:      -6.6      0.000      0.000
REMARK  Name = Methotrexate.pdbqt.pdb
REMARK  9 active torsions:
REMARK  status: ('A' for Active; 'I' for Inactive)
REMARK    1  A    between atoms: C_1  and  N_22
REMARK    2  A    between atoms: C_2  and  C_9
REMARK    3  A    between atoms: CA_11  and  C_13
REMARK    4  A    between atoms: CA_11  and  CB_16
REMARK    5  A    between atoms: C_13  and  O_14
REMARK    6  A    between atoms: CG_17  and  CD_19
REMARK    7  A    between atoms: CD_19  and  OE1_20
REMARK    8  A    between atoms: N_22  and  C_24
REMARK    9  A    between atoms: C_24  and  C_31
REMARK                            x       y       z     vdW  Elec       q    Type
REMARK                         _______ _______ _______ _____ _____    ______ ____
ROOT
ATOM      1  C   UNL     1     -13.025   3.423  -1.038  0.00  0.00    +0.000 A 
ATOM      2  C   UNL     1     -11.609   4.409   1.203  0.00  0.00    +0.000 A 
ATOM      3  C   UNL     1     -12.247   4.586  -1.119  0.00  0.00    +0.000 A 
ATOM      4  C   UNL     1     -13.078   2.772   0.203  0.00  0.00    +0.000 A 
ATOM      5  C   UNL     1     -11.545   5.076  -0.018  0.00  0.00    +0.000 A 
ATOM      6  C   UNL     1     -12.379   3.253   1.311  0.00  0.00    +0.000 A 
ENDROOT
BRANCH   2   9
ATOM      7  O   UNL     1      -9.684   5.125   2.308  0.00  0.00    +0.000 OA
ATOM      8  N   UNL     1     -11.635   5.037   3.555  0.00  0.00    +0.000 N 
ATOM      9  C   ACE A   0     -10.882   4.890   2.405  0.00  0.00    +0.000 C 
ATOM     10  H   UNL     1     -12.627   4.815   3.537  0.00  0.00    +0.000 HD
ATOM     11  CA  UNL     1     -11.189   5.464   4.793  0.00  0.00    +0.000 C 
BRANCH  11  13
ATOM     12  OXT UNL     1     -12.584   6.567   6.388  0.00  0.00    +0.000 OA
ATOM     13  C   UNL     1     -12.218   5.527   5.860  0.00  0.00    +0.000 C 
BRANCH  13  14
ATOM     14  O   UNL     1     -12.724   4.335   6.209  0.00  0.00    +0.000 OA
ATOM     15  H   UNL     1     -13.039   4.451   7.129  0.00  0.00    +0.000 HD
ENDBRANCH  13  14
ENDBRANCH  11  13
BRANCH  11  16
ATOM     16  CB  UNL     1      -9.834   5.815   5.033  0.00  0.00    +0.000 C 
ATOM     17  CG  UNL     1      -8.370   6.182   5.299  0.00  0.00    +0.000 C 
BRANCH  17  19
ATOM     18  OE2 UNL     1      -6.514   7.603   5.323  0.00  0.00    +0.000 OA
ATOM     19  CD  UNL     1      -7.001   6.510   5.558  0.00  0.00    +0.000 C 
BRANCH  19  20
ATOM     20  OE1 UNL     1      -6.281   5.495   6.070  0.00  0.00    +0.000 OA
ATOM     21  HE1 UNL     1      -6.955   4.937   6.505  0.00  0.00    +0.000 HD
ENDBRANCH  19  20
ENDBRANCH  17  19
ENDBRANCH  11  16
ENDBRANCH   2   9
BRANCH   1  22
ATOM     22  N   UNL     1     -13.747   2.951  -2.160  0.00  0.00    +0.000 N 
ATOM     23  C   UNL     1     -13.675   3.626  -3.443  0.00  0.00    +0.000 C 
BRANCH  22  24
ATOM     24  C   UNL     1     -14.885   2.074  -1.982  0.00  0.00    +0.000 C 
BRANCH  24  31
ATOM     25  N   UNL     1     -16.601   1.268  -0.652  0.00  0.00    +0.000 NA
ATOM     26  N   UNL     1     -17.557  -0.654  -2.724  0.00  0.00    +0.000 NA
ATOM     27  N   UNL     1     -19.193  -1.387  -1.260  0.00  0.00    +0.000 NA
ATOM     28  N   UNL     1     -19.491  -0.428   0.886  0.00  0.00    +0.000 NA
ATOM     29  N   UNL     1     -18.236   1.281   1.756  0.00  0.00    +0.000 N 
ATOM     30  N   UNL     1     -20.817  -2.152   0.131  0.00  0.00    +0.000 N 
ATOM     31  C   UNL     1     -16.003   1.216  -1.809  0.00  0.00    +0.000 C 
ATOM     32  C   UNL     1     -16.573   0.256  -2.700  0.00  0.00    +0.000 C 
ATOM     33  C   UNL     1     -17.705   0.404  -0.501  0.00  0.00    +0.000 C 
ATOM     34  C   UNL     1     -18.149  -0.574  -1.562  0.00  0.00    +0.000 C 
ATOM     35  C   UNL     1     -18.510   0.407   0.736  0.00  0.00    +0.000 C 
ATOM     36  C   UNL     1     -19.785  -1.309  -0.113  0.00  0.00    +0.000 C 
ATOM     37  H   UNL     1     -18.607   1.001   2.656  0.00  0.00    +0.000 HD
ATOM     38  H   UNL     1     -17.296   1.662   1.774  0.00  0.00    +0.000 HD
ATOM     39  H   UNL     1     -21.481  -1.783   0.798  0.00  0.00    +0.000 HD
ATOM     40  H   UNL     1     -21.228  -2.521  -0.716  0.00  0.00    +0.000 HD
ENDBRANCH  24  31
ENDBRANCH  22  24
ENDBRANCH   1  22
TORSDOF 9
ENDMDL
MODEL 2
REMARK VINA RESULT:      -6.5     18.625     20.779
REMARK  Name = Methotrexate.pdbqt.pdb
REMARK  9 active torsions:
REMARK  status: ('A' for Active; 'I' for Inactive)
REMARK    1  A    between atoms: C_1  and  N_22
REMARK    2  A    between atoms: C_2  and  C_9
REMARK    3  A    between atoms: CA_11  and  C_13
REMARK    4  A    between atoms: CA_11  and  CB_16
REMARK    5  A    between atoms: C_13  and  O_14
REMARK    6  A    between atoms: CG_17  and  CD_19
REMARK    7  A    between atoms: CD_19  and  OE1_20
REMARK    8  A    between atoms: N_22  and  C_24
REMARK    9  A    between atoms: C_24  and  C_31
REMARK                            x       y       z     vdW  Elec       q    Type
REMARK                         _______ _______ _______ _____ _____    ______ ____
ROOT
ATOM      1  C   UNL     1     -11.924 -15.886  10.591  0.00  0.00    +0.000 A 
ATOM      2  C   UNL     1     -10.630 -15.774   8.079  0.00  0.00    +0.000 A 
ATOM      3  C   UNL     1     -12.654 -15.832   9.395  0.00  0.00    +0.000 A 
ATOM      4  C   UNL     1     -10.526 -15.874  10.491  0.00  0.00    +0.000 A 
ATOM      5  C   UNL     1     -12.020 -15.779   8.153  0.00  0.00    +0.000 A 
ATOM      6  C   UNL     1      -9.882 -15.822   9.254  0.00  0.00    +0.000 A 
ENDROOT
BRANCH   2   9
ATOM      7  O   UNL     1      -9.603 -16.770   6.237  0.00  0.00    +0.000 OA
ATOM      8  N   UNL     1      -9.639 -14.454   6.290  0.00  0.00    +0.000 N 
ATOM      9  C   ACE A   0      -9.909 -15.717   6.782  0.00  0.00    +0.000 C 
ATOM     10  H   UNL     1      -9.933 -13.636   6.818  0.00  0.00    +0.000 HD
ATOM     11  CA  UNL     1      -8.981 -14.142   5.113  0.00  0.00    +0.000 C 
BRANCH  11  13
ATOM     12  OXT UNL     1      -9.465 -12.100   3.972  0.00  0.00    +0.000 OA
ATOM     13  C   UNL     1      -8.826 -12.694   4.827  0.00  0.00    +0.000 C 
BRANCH  13  14
ATOM     14  O   UNL     1      -7.914 -12.076   5.593  0.00  0.00    +0.000 OA
ATOM     15  H   UNL     1      -7.732 -11.229   5.138  0.00  0.00    +0.000 HD
ENDBRANCH  13  14
ENDBRANCH  11  13
BRANCH  11  16
ATOM     16  CB  UNL     1      -8.482 -15.140   4.235  0.00  0.00    +0.000 C 
ATOM     17  CG  UNL     1      -7.946 -16.227   3.296  0.00  0.00    +0.000 C 
BRANCH  17  19
ATOM     18  OE2 UNL     1      -7.774 -17.367   1.263  0.00  0.00    +0.000 OA
ATOM     19  CD  UNL     1      -7.449 -17.255   2.433  0.00  0.00    +0.000 C 
BRANCH  19  20
ATOM     20  OE1 UNL     1      -6.598 -18.108   3.029  0.00  0.00    +0.000 OA
ATOM     21  HE1 UNL     1      -6.111 -17.540   3.659  0.00  0.00    +0.000 HD
ENDBRANCH  19  20
ENDBRANCH  17  19
ENDBRANCH  11  16
ENDBRANCH   2   9
BRANCH   1  22
ATOM     22  N   UNL     1     -12.582 -15.919  11.843  0.00  0.00    +0.000 N 
ATOM     23  C   UNL     1     -12.115 -16.773  12.920  0.00  0.00    +0.000 C 
BRANCH  22  24
ATOM     24  C   UNL     1     -13.950 -15.459  11.965  0.00  0.00    +0.000 C 
BRANCH  24  31
ATOM     25  N   UNL     1     -15.858 -14.578  10.992  0.00  0.00    +0.000 NA
ATOM     26  N   UNL     1     -17.363 -14.500  13.567  0.00  0.00    +0.000 NA
ATOM     27  N   UNL     1     -19.173 -13.580  12.458  0.00  0.00    +0.000 NA
ATOM     28  N   UNL     1     -19.173 -13.223  10.116  0.00  0.00    +0.000 NA
ATOM     29  N   UNL     1     -17.437 -13.717   8.704  0.00  0.00    +0.000 N 
ATOM     30  N   UNL     1     -20.982 -12.672  11.429  0.00  0.00    +0.000 N 
ATOM     31  C   UNL     1     -15.292 -15.011  12.083  0.00  0.00    +0.000 C 
ATOM     32  C   UNL     1     -16.133 -14.917  13.234  0.00  0.00    +0.000 C 
ATOM     33  C   UNL     1     -17.189 -14.134  11.134  0.00  0.00    +0.000 C 
ATOM     34  C   UNL     1     -17.914 -14.086  12.458  0.00  0.00    +0.000 C 
ATOM     35  C   UNL     1     -17.968 -13.679   9.967  0.00  0.00    +0.000 C 
ATOM     36  C   UNL     1     -19.726 -13.173  11.362  0.00  0.00    +0.000 C 
ATOM     37  H   UNL     1     -17.896 -13.104   8.040  0.00  0.00    +0.000 HD
ATOM     38  H   UNL     1     -16.424 -13.737   8.648  0.00  0.00    +0.000 HD
ATOM     39  H   UNL     1     -21.498 -12.779  10.565  0.00  0.00    +0.000 HD
ATOM     40  H   UNL     1     -21.478 -12.971  12.258  0.00  0.00    +0.000 HD
ENDBRANCH  24  31
ENDBRANCH  22  24
ENDBRANCH   1  22
TORSDOF 9
ENDMDL
MODEL 3
REMARK VINA RESULT:      -6.4     18.879     21.008
REMARK  Name = Methotrexate.pdbqt.pdb
REMARK  9 active torsions:
REMARK  status: ('A' for Active; 'I' for Inactive)
REMARK    1  A    between atoms: C_1  and  N_22
REMARK    2  A    between atoms: C_2  and  C_9
REMARK    3  A    between atoms: CA_11  and  C_13
REMARK    4  A    between atoms: CA_11  and  CB_16
REMARK    5  A    between atoms: C_13  and  O_14
REMARK    6  A    between atoms: CG_17  and  CD_19
REMARK    7  A    between atoms: CD_19  and  OE1_20
REMARK    8  A    between atoms: N_22  and  C_24
REMARK    9  A    between atoms: C_24  and  C_31
REMARK                            x       y       z     vdW  Elec       q    Type
REMARK                         _______ _______ _______ _____ _____    ______ ____
ROOT
ATOM      1  C   UNL     1     -10.519 -16.509   7.561  0.00  0.00    +0.000 A 
ATOM      2  C   UNL     1     -12.252 -15.980   9.733  0.00  0.00    +0.000 A 
ATOM      3  C   UNL     1     -11.735 -15.836   7.378  0.00  0.00    +0.000 A 
ATOM      4  C   UNL     1     -10.201 -16.916   8.864  0.00  0.00    +0.000 A 
ATOM      5  C   UNL     1     -12.592 -15.571   8.447  0.00  0.00    +0.000 A 
ATOM      6  C   UNL     1     -11.051 -16.656   9.939  0.00  0.00    +0.000 A 
ENDROOT
BRANCH   2   9
ATOM      7  O   UNL     1     -12.827 -16.218  11.981  0.00  0.00    +0.000 OA
ATOM      8  N   UNL     1     -14.240 -14.933  10.669  0.00  0.00    +0.000 N 
ATOM      9  C   ACE A   0     -13.130 -15.724  10.902  0.00  0.00    +0.000 C 
ATOM     10  H   UNL     1     -14.408 -14.568   9.735  0.00  0.00    +0.000 HD
ATOM     11  CA  UNL     1     -15.202 -14.557  11.589  0.00  0.00    +0.000 C 
BRANCH  11  13
ATOM     12  OXT UNL     1     -16.683 -13.729   9.907  0.00  0.00    +0.000 OA
ATOM     13  C   UNL     1     -16.292 -13.698  11.064  0.00  0.00    +0.000 C 
BRANCH  13  14
ATOM     14  O   UNL     1     -16.825 -12.867  11.973  0.00  0.00    +0.000 OA
ATOM     15  H   UNL     1     -17.781 -13.083  11.986  0.00  0.00    +0.000 HD
ENDBRANCH  13  14
ENDBRANCH  11  13
BRANCH  11  16
ATOM     16  CB  UNL     1     -15.156 -14.967  12.947  0.00  0.00    +0.000 C 
ATOM     17  CG  UNL     1     -15.116 -15.401  14.417  0.00  0.00    +0.000 C 
BRANCH  17  19
ATOM     18  OE2 UNL     1     -14.306 -16.609  16.247  0.00  0.00    +0.000 OA
ATOM     19  CD  UNL     1     -15.090 -15.793  15.793  0.00  0.00    +0.000 C 
BRANCH  19  20
ATOM     20  OE1 UNL     1     -16.026 -15.194  16.552  0.00  0.00    +0.000 OA
ATOM     21  HE1 UNL     1     -15.581 -15.085  17.416  0.00  0.00    +0.000 HD
ENDBRANCH  19  20
ENDBRANCH  17  19
ENDBRANCH  11  16
ENDBRANCH   2   9
BRANCH   1  22
ATOM     22  N   UNL     1      -9.671 -16.788   6.463  0.00  0.00    +0.000 N 
ATOM     23  C   UNL     1      -8.884 -18.007   6.407  0.00  0.00    +0.000 C 
BRANCH  22  24
ATOM     24  C   UNL     1      -9.225 -15.721   5.592  0.00  0.00    +0.000 C 
BRANCH  24  31
ATOM     25  N   UNL     1      -7.810 -14.955   3.926  0.00  0.00    +0.000 NA
ATOM     26  N   UNL     1      -8.944 -12.195   3.972  0.00  0.00    +0.000 NA
ATOM     27  N   UNL     1      -7.433 -11.570   2.334  0.00  0.00    +0.000 NA
ATOM     28  N   UNL     1      -5.920 -13.108   1.356  0.00  0.00    +0.000 NA
ATOM     29  N   UNL     1      -5.761 -15.330   1.894  0.00  0.00    +0.000 N 
ATOM     30  N   UNL     1      -5.974 -10.892   0.732  0.00  0.00    +0.000 N 
ATOM     31  C   UNL     1      -8.790 -14.673   4.739  0.00  0.00    +0.000 C 
ATOM     32  C   UNL     1      -9.232 -13.318   4.645  0.00  0.00    +0.000 C 
ATOM     33  C   UNL     1      -7.392 -13.898   3.092  0.00  0.00    +0.000 C 
ATOM     34  C   UNL     1      -7.971 -12.506   3.157  0.00  0.00    +0.000 C 
ATOM     35  C   UNL     1      -6.335 -14.099   2.082  0.00  0.00    +0.000 C 
ATOM     36  C   UNL     1      -6.473 -11.872   1.522  0.00  0.00    +0.000 C 
ATOM     37  H   UNL     1      -4.857 -15.303   1.437  0.00  0.00    +0.000 HD
ATOM     38  H   UNL     1      -5.836 -15.978   2.670  0.00  0.00    +0.000 HD
ATOM     39  H   UNL     1      -5.576 -11.242  -0.130  0.00  0.00    +0.000 HD
ATOM     40  H   UNL     1      -6.614 -10.118   0.618  0.00  0.00    +0.000 HD
ENDBRANCH  24  31
ENDBRANCH  22  24
ENDBRANCH   1  22
TORSDOF 9
ENDMDL
MODEL 4
REMARK VINA RESULT:      -6.2     11.697     16.461
REMARK  Name = Methotrexate.pdbqt.pdb
REMARK  9 active torsions:
REMARK  status: ('A' for Active; 'I' for Inactive)
REMARK    1  A    between atoms: C_1  and  N_22
REMARK    2  A    between atoms: C_2  and  C_9
REMARK    3  A    between atoms: CA_11  and  C_13
REMARK    4  A    between atoms: CA_11  and  CB_16
REMARK    5  A    between atoms: C_13  and  O_14
REMARK    6  A    between atoms: CG_17  and  CD_19
REMARK    7  A    between atoms: CD_19  and  OE1_20
REMARK    8  A    between atoms: N_22  and  C_24
REMARK    9  A    between atoms: C_24  and  C_31
REMARK                            x       y       z     vdW  Elec       q    Type
REMARK                         _______ _______ _______ _____ _____    ______ ____
ROOT
ATOM      1  C   UNL     1     -19.065   5.395  13.183  0.00  0.00    +0.000 A 
ATOM      2  C   UNL     1     -20.342   3.914  11.141  0.00  0.00    +0.000 A 
ATOM      3  C   UNL     1     -19.766   6.032  12.150  0.00  0.00    +0.000 A 
ATOM      4  C   UNL     1     -19.015   3.994  13.158  0.00  0.00    +0.000 A 
ATOM      5  C   UNL     1     -20.400   5.305  11.141  0.00  0.00    +0.000 A 
ATOM      6  C   UNL     1     -19.646   3.259  12.154  0.00  0.00    +0.000 A 
ENDROOT
BRANCH   2   9
ATOM      7  O   UNL     1     -21.042   1.882  10.235  0.00  0.00    +0.000 OA
ATOM      8  N   UNL     1     -21.515   3.791   9.011  0.00  0.00    +0.000 N 
ATOM      9  C   ACE A   0     -20.998   3.097  10.089  0.00  0.00    +0.000 C 
ATOM     10  H   UNL     1     -21.429   4.804   8.979  0.00  0.00    +0.000 HD
ATOM     11  CA  UNL     1     -22.164   3.259   7.912  0.00  0.00    +0.000 C 
BRANCH  11  13
ATOM     12  OXT UNL     1     -23.785   4.572   6.749  0.00  0.00    +0.000 OA
ATOM     13  C   UNL     1     -22.619   4.240   6.896  0.00  0.00    +0.000 C 
BRANCH  13  14
ATOM     14  O   UNL     1     -21.634   4.742   6.136  0.00  0.00    +0.000 OA
ATOM     15  H   UNL     1     -21.121   5.322   6.735  0.00  0.00    +0.000 HD
ENDBRANCH  13  14
ENDBRANCH  11  13
BRANCH  11  16
ATOM     16  CB  UNL     1     -22.380   1.864   7.759  0.00  0.00    +0.000 C 
ATOM     17  CG  UNL     1     -22.615   0.356   7.609  0.00  0.00    +0.000 C 
BRANCH  17  19
ATOM     18  OE2 UNL     1     -22.264  -1.885   8.173  0.00  0.00    +0.000 OA
ATOM     19  CD  UNL     1     -22.834  -1.053   7.487  0.00  0.00    +0.000 C 
BRANCH  19  20
ATOM     20  OE1 UNL     1     -23.716  -1.391   6.530  0.00  0.00    +0.000 OA
ATOM     21  HE1 UNL     1     -24.571  -1.082   6.890  0.00  0.00    +0.000 HD
ENDBRANCH  19  20
ENDBRANCH  17  19
ENDBRANCH  11  16
ENDBRANCH   2   9
BRANCH   1  22
ATOM     22  N   UNL     1     -18.410   6.147  14.188  0.00  0.00    +0.000 N 
ATOM     23  C   UNL     1     -18.467   7.598  14.204  0.00  0.00    +0.000 C 
BRANCH  22  24
ATOM     24  C   UNL     1     -17.335   5.560  14.960  0.00  0.00    +0.000 C 
BRANCH  24  31
ATOM     25  N   UNL     1     -15.190   5.685  15.823  0.00  0.00    +0.000 NA
ATOM     26  N   UNL     1     -15.327   2.974  17.061  0.00  0.00    +0.000 NA
ATOM     27  N   UNL     1     -13.155   3.232  17.818  0.00  0.00    +0.000 NA
ATOM     28  N   UNL     1     -11.925   5.228  17.474  0.00  0.00    +0.000 NA
ATOM     29  N   UNL     1     -12.700   7.086  16.380  0.00  0.00    +0.000 N 
ATOM     30  N   UNL     1     -11.026   3.422  18.584  0.00  0.00    +0.000 N 
ATOM     31  C   UNL     1     -16.281   4.981  15.715  0.00  0.00    +0.000 C 
ATOM     32  C   UNL     1     -16.202   3.710  16.361  0.00  0.00    +0.000 C 
ATOM     33  C   UNL     1     -14.156   5.090  16.574  0.00  0.00    +0.000 C 
ATOM     34  C   UNL     1     -14.249   3.704  17.168  0.00  0.00    +0.000 C 
ATOM     35  C   UNL     1     -12.890   5.805  16.827  0.00  0.00    +0.000 C 
ATOM     36  C   UNL     1     -12.087   3.953  17.930  0.00  0.00    +0.000 C 
ATOM     37  H   UNL     1     -11.728   7.364  16.311  0.00  0.00    +0.000 HD
ATOM     38  H   UNL     1     -13.291   7.380  15.609  0.00  0.00    +0.000 HD
ATOM     39  H   UNL     1     -10.431   4.122  19.007  0.00  0.00    +0.000 HD
ATOM     40  H   UNL     1     -11.286   2.662  19.197  0.00  0.00    +0.000 HD
ENDBRANCH  24  31
ENDBRANCH  22  24
ENDBRANCH   1  22
TORSDOF 9
ENDMDL
MODEL 5
REMARK VINA RESULT:      -6.1     24.494     28.588
REMARK  Name = Methotrexate.pdbqt.pdb
REMARK  9 active torsions:
REMARK  status: ('A' for Active; 'I' for Inactive)
REMARK    1  A    between atoms: C_1  and  N_22
REMARK    2  A    between atoms: C_2  and  C_9
REMARK    3  A    between atoms: CA_11  and  C_13
REMARK    4  A    between atoms: CA_11  and  CB_16
REMARK    5  A    between atoms: C_13  and  O_14
REMARK    6  A    between atoms: CG_17  and  CD_19
REMARK    7  A    between atoms: CD_19  and  OE1_20
REMARK    8  A    between atoms: N_22  and  C_24
REMARK    9  A    between atoms: C_24  and  C_31
REMARK                            x       y       z     vdW  Elec       q    Type
REMARK                         _______ _______ _______ _____ _____    ______ ____
ROOT
ATOM      1  C   UNL     1       8.470 -11.587  11.142  0.00  0.00    +0.000 A 
ATOM      2  C   UNL     1       6.918 -13.887  11.688  0.00  0.00    +0.000 A 
ATOM      3  C   UNL     1       7.069 -11.547  11.111  0.00  0.00    +0.000 A 
ATOM      4  C   UNL     1       9.071 -12.816  11.448  0.00  0.00    +0.000 A 
ATOM      5  C   UNL     1       6.299 -12.678  11.382  0.00  0.00    +0.000 A 
ATOM      6  C   UNL     1       8.309 -13.953  11.721  0.00  0.00    +0.000 A 
ENDROOT
BRANCH   2   9
ATOM      7  O   UNL     1       4.921 -15.070  11.918  0.00  0.00    +0.000 OA
ATOM      8  N   UNL     1       6.882 -16.240  12.309  0.00  0.00    +0.000 N 
ATOM      9  C   ACE A   0       6.143 -15.119  11.982  0.00  0.00    +0.000 C 
ATOM     10  H   UNL     1       7.896 -16.182  12.337  0.00  0.00    +0.000 HD
ATOM     11  CA  UNL     1       6.394 -17.496  12.624  0.00  0.00    +0.000 C 
BRANCH  11  13
ATOM     12  OXT UNL     1       8.160 -19.018  12.104  0.00  0.00    +0.000 OA
ATOM     13  C   UNL     1       7.417 -18.524  12.938  0.00  0.00    +0.000 C 
BRANCH  13  14
ATOM     14  O   UNL     1       7.464 -18.877  14.232  0.00  0.00    +0.000 OA
ATOM     15  H   UNL     1       8.227 -19.487  14.302  0.00  0.00    +0.000 HD
ENDBRANCH  13  14
ENDBRANCH  11  13
BRANCH  11  16
ATOM     16  CB  UNL     1       5.004 -17.786  12.651  0.00  0.00    +0.000 C 
ATOM     17  CG  UNL     1       3.505 -18.104  12.692  0.00  0.00    +0.000 C 
BRANCH  17  19
ATOM     18  OE2 UNL     1       1.545 -18.808  13.753  0.00  0.00    +0.000 OA
ATOM     19  CD  UNL     1       2.108 -18.410  12.748  0.00  0.00    +0.000 C 
BRANCH  19  20
ATOM     20  OE1 UNL     1       1.462 -18.238  11.580  0.00  0.00    +0.000 OA
ATOM     21  HE1 UNL     1       1.444 -19.137  11.196  0.00  0.00    +0.000 HD
ENDBRANCH  19  20
ENDBRANCH  17  19
ENDBRANCH  11  16
ENDBRANCH   2   9
BRANCH   1  22
ATOM     22  N   UNL     1       9.237 -10.435  10.845  0.00  0.00    +0.000 N 
ATOM     23  C   UNL     1      10.680 -10.425  11.007  0.00  0.00    +0.000 C 
BRANCH  22  24
ATOM     24  C   UNL     1       8.609  -9.131  10.791  0.00  0.00    +0.000 C 
BRANCH  24  31
ATOM     25  N   UNL     1       7.108  -7.676   9.795  0.00  0.00    +0.000 NA
ATOM     26  N   UNL     1       7.797  -5.418  11.620  0.00  0.00    +0.000 NA
ATOM     27  N   UNL     1       6.288  -4.073  10.492  0.00  0.00    +0.000 NA
ATOM     28  N   UNL     1       4.947  -4.890   8.719  0.00  0.00    +0.000 NA
ATOM     29  N   UNL     1       4.977  -7.037   7.918  0.00  0.00    +0.000 N 
ATOM     30  N   UNL     1       4.828  -2.701   9.424  0.00  0.00    +0.000 N 
ATOM     31  C   UNL     1       7.994  -7.853  10.735  0.00  0.00    +0.000 C 
ATOM     32  C   UNL     1       8.216  -6.688  11.532  0.00  0.00    +0.000 C 
ATOM     33  C   UNL     1       6.514  -6.398   9.755  0.00  0.00    +0.000 C 
ATOM     34  C   UNL     1       6.902  -5.269  10.680  0.00  0.00    +0.000 C 
ATOM     35  C   UNL     1       5.450  -6.083   8.782  0.00  0.00    +0.000 C 
ATOM     36  C   UNL     1       5.399  -3.921   9.566  0.00  0.00    +0.000 C 
ATOM     37  H   UNL     1       4.509  -6.663   7.101  0.00  0.00    +0.000 HD
ATOM     38  H   UNL     1       5.595  -7.823   7.743  0.00  0.00    +0.000 HD
ATOM     39  H   UNL     1       3.898  -2.743   9.028  0.00  0.00    +0.000 HD
ATOM     40  H   UNL     1       4.908  -2.134  10.257  0.00  0.00    +0.000 HD
ENDBRANCH  24  31
ENDBRANCH  22  24
ENDBRANCH   1  22
TORSDOF 9
ENDMDL
MODEL 6
REMARK VINA RESULT:      -6.0      4.933     10.893
REMARK  Name = Methotrexate.pdbqt.pdb
REMARK  9 active torsions:
REMARK  status: ('A' for Active; 'I' for Inactive)
REMARK    1  A    between atoms: C_1  and  N_22
REMARK    2  A    between atoms: C_2  and  C_9
REMARK    3  A    between atoms: CA_11  and  C_13
REMARK    4  A    between atoms: CA_11  and  CB_16
REMARK    5  A    between atoms: C_13  and  O_14
REMARK    6  A    between atoms: CG_17  and  CD_19
REMARK    7  A    between atoms: CD_19  and  OE1_20
REMARK    8  A    between atoms: N_22  and  C_24
REMARK    9  A    between atoms: C_24  and  C_31
REMARK                            x       y       z     vdW  Elec       q    Type
REMARK                         _______ _______ _______ _____ _____    ______ ____
ROOT
ATOM      1  C   UNL     1     -12.801   4.714   0.177  0.00  0.00    +0.000 A 
ATOM      2  C   UNL     1     -13.567   2.579  -1.512  0.00  0.00    +0.000 A 
ATOM      3  C   UNL     1     -13.041   4.914  -1.189  0.00  0.00    +0.000 A 
ATOM      4  C   UNL     1     -12.948   3.409   0.671  0.00  0.00    +0.000 A 
ATOM      5  C   UNL     1     -13.421   3.864  -2.026  0.00  0.00    +0.000 A 
ATOM      6  C   UNL     1     -13.328   2.353  -0.158  0.00  0.00    +0.000 A 
ENDROOT
BRANCH   2   9
ATOM      7  O   UNL     1     -13.126   0.922  -3.093  0.00  0.00    +0.000 OA
ATOM      8  N   UNL     1     -15.283   1.019  -2.253  0.00  0.00    +0.000 N 
ATOM      9  C   ACE A   0     -13.967   1.429  -2.361  0.00  0.00    +0.000 C 
ATOM     10  H   UNL     1     -15.909   1.506  -1.616  0.00  0.00    +0.000 HD
ATOM     11  CA  UNL     1     -15.892  -0.018  -2.937  0.00  0.00    +0.000 C 
BRANCH  11  13
ATOM     12  OXT UNL     1     -18.072  -0.915  -3.317  0.00  0.00    +0.000 OA
ATOM     13  C   UNL     1     -17.325  -0.240  -2.625  0.00  0.00    +0.000 C 
BRANCH  13  14
ATOM     14  O   UNL     1     -17.746   0.369  -1.507  0.00  0.00    +0.000 OA
ATOM     15  H   UNL     1     -17.468  -0.221  -0.775  0.00  0.00    +0.000 HD
ENDBRANCH  13  14
ENDBRANCH  11  13
BRANCH  11  16
ATOM     16  CB  UNL     1     -15.194  -0.818  -3.880  0.00  0.00    +0.000 C 
ATOM     17  CG  UNL     1     -14.434  -1.687  -4.888  0.00  0.00    +0.000 C 
BRANCH  17  19
ATOM     18  OE2 UNL     1     -13.695  -2.305  -7.018  0.00  0.00    +0.000 OA
ATOM     19  CD  UNL     1     -13.713  -2.505  -5.815  0.00  0.00    +0.000 C 
BRANCH  19  20
ATOM     20  OE1 UNL     1     -13.064  -3.538  -5.247  0.00  0.00    +0.000 OA
ATOM     21  HE1 UNL     1     -13.747  -4.236  -5.200  0.00  0.00    +0.000 HD
ENDBRANCH  19  20
ENDBRANCH  17  19
ENDBRANCH  11  16
ENDBRANCH   2   9
BRANCH   1  22
ATOM     22  N   UNL     1     -12.396   5.785   1.009  0.00  0.00    +0.000 N 
ATOM     23  C   UNL     1     -12.647   7.166   0.637  0.00  0.00    +0.000 C 
BRANCH  22  24
ATOM     24  C   UNL     1     -11.368   5.588   2.010  0.00  0.00    +0.000 C 
BRANCH  24  31
ATOM     25  N   UNL     1     -10.666   5.749   4.210  0.00  0.00    +0.000 NA
ATOM     26  N   UNL     1      -7.942   4.684   3.616  0.00  0.00    +0.000 NA
ATOM     27  N   UNL     1      -7.375   4.947   5.844  0.00  0.00    +0.000 NA
ATOM     28  N   UNL     1      -8.926   5.717   7.461  0.00  0.00    +0.000 NA
ATOM     29  N   UNL     1     -11.105   6.286   7.037  0.00  0.00    +0.000 N 
ATOM     30  N   UNL     1      -6.755   5.186   8.015  0.00  0.00    +0.000 N 
ATOM     31  C   UNL     1     -10.363   5.394   2.993  0.00  0.00    +0.000 C 
ATOM     32  C   UNL     1      -9.030   4.899   2.861  0.00  0.00    +0.000 C 
ATOM     33  C   UNL     1      -9.650   5.552   5.169  0.00  0.00    +0.000 C 
ATOM     34  C   UNL     1      -8.274   5.032   4.830  0.00  0.00    +0.000 C 
ATOM     35  C   UNL     1      -9.882   5.852   6.595  0.00  0.00    +0.000 C 
ATOM     36  C   UNL     1      -7.699   5.287   7.049  0.00  0.00    +0.000 C 
ATOM     37  H   UNL     1     -11.080   6.764   7.930  0.00  0.00    +0.000 HD
ATOM     38  H   UNL     1     -11.706   6.708   6.337  0.00  0.00    +0.000 HD
ATOM     39  H   UNL     1      -7.146   5.040   8.937  0.00  0.00    +0.000 HD
ATOM     40  H   UNL     1      -6.009   4.551   7.767  0.00  0.00    +0.000 HD
ENDBRANCH  24  31
ENDBRANCH  22  24
ENDBRANCH   1  22
TORSDOF 9
ENDMDL
MODEL 7
REMARK VINA RESULT:      -5.9      4.785     10.853
REMARK  Name = Methotrexate.pdbqt.pdb
REMARK  9 active torsions:
REMARK  status: ('A' for Active; 'I' for Inactive)
REMARK    1  A    between atoms: C_1  and  N_22
REMARK    2  A    between atoms: C_2  and  C_9
REMARK    3  A    between atoms: CA_11  and  C_13
REMARK    4  A    between atoms: CA_11  and  CB_16
REMARK    5  A    between atoms: C_13  and  O_14
REMARK    6  A    between atoms: CG_17  and  CD_19
REMARK    7  A    between atoms: CD_19  and  OE1_20
REMARK    8  A    between atoms: N_22  and  C_24
REMARK    9  A    between atoms: C_24  and  C_31
REMARK                            x       y       z     vdW  Elec       q    Type
REMARK                         _______ _______ _______ _____ _____    ______ ____
ROOT
ATOM      1  C   UNL     1     -13.433   5.228   0.639  0.00  0.00    +0.000 A 
ATOM      2  C   UNL     1     -15.007   3.183  -0.519  0.00  0.00    +0.000 A 
ATOM      3  C   UNL     1     -14.692   5.500   0.086  0.00  0.00    +0.000 A 
ATOM      4  C   UNL     1     -12.983   3.901   0.588  0.00  0.00    +0.000 A 
ATOM      5  C   UNL     1     -15.473   4.495  -0.485  0.00  0.00    +0.000 A 
ATOM      6  C   UNL     1     -13.756   2.889   0.020  0.00  0.00    +0.000 A 
ENDROOT
BRANCH   2   9
ATOM      7  O   UNL     1     -15.427   1.604  -2.183  0.00  0.00    +0.000 OA
ATOM      8  N   UNL     1     -16.911   1.671  -0.405  0.00  0.00    +0.000 N 
ATOM      9  C   ACE A   0     -15.799   2.079  -1.117  0.00  0.00    +0.000 C 
ATOM     10  H   UNL     1     -17.139   2.129   0.474  0.00  0.00    +0.000 HD
ATOM     11  CA  UNL     1     -17.803   0.672  -0.753  0.00  0.00    +0.000 C 
BRANCH  11  13
ATOM     12  OXT UNL     1     -20.000   0.999   0.125  0.00  0.00    +0.000 OA
ATOM     13  C   UNL     1     -18.915   0.442   0.202  0.00  0.00    +0.000 C 
BRANCH  13  14
ATOM     14  O   UNL     1     -18.634  -0.438   1.174  0.00  0.00    +0.000 OA
ATOM     15  H   UNL     1     -19.413  -1.029   1.216  0.00  0.00    +0.000 HD
ENDBRANCH  13  14
ENDBRANCH  11  13
BRANCH  11  16
ATOM     16  CB  UNL     1     -17.668  -0.084  -1.947  0.00  0.00    +0.000 C 
ATOM     17  CG  UNL     1     -17.511  -0.892  -3.240  0.00  0.00    +0.000 C 
BRANCH  17  19
ATOM     18  OE2 UNL     1     -18.009  -2.624  -4.729  0.00  0.00    +0.000 OA
ATOM     19  CD  UNL     1     -17.350  -1.636  -4.452  0.00  0.00    +0.000 C 
BRANCH  19  20
ATOM     20  OE1 UNL     1     -16.388  -1.161  -5.264  0.00  0.00    +0.000 OA
ATOM     21  HE1 UNL     1     -16.744  -0.299  -5.557  0.00  0.00    +0.000 HD
ENDBRANCH  19  20
ENDBRANCH  17  19
ENDBRANCH  11  16
ENDBRANCH   2   9
BRANCH   1  22
ATOM     22  N   UNL     1     -12.645   6.263   1.196  0.00  0.00    +0.000 N 
ATOM     23  C   UNL     1     -12.576   7.575   0.579  0.00  0.00    +0.000 C 
BRANCH  22  24
ATOM     24  C   UNL     1     -11.571   5.952   2.116  0.00  0.00    +0.000 C 
BRANCH  24  31
ATOM     25  N   UNL     1     -10.721   5.946   4.270  0.00  0.00    +0.000 NA
ATOM     26  N   UNL     1      -8.112   4.759   3.439  0.00  0.00    +0.000 NA
ATOM     27  N   UNL     1      -7.389   4.861   5.635  0.00  0.00    +0.000 NA
ATOM     28  N   UNL     1      -8.784   5.627   7.391  0.00  0.00    +0.000 NA
ATOM     29  N   UNL     1     -10.946   6.345   7.144  0.00  0.00    +0.000 N 
ATOM     30  N   UNL     1      -6.619   4.939   7.770  0.00  0.00    +0.000 N 
ATOM     31  C   UNL     1     -10.519   5.644   3.018  0.00  0.00    +0.000 C 
ATOM     32  C   UNL     1      -9.230   5.080   2.771  0.00  0.00    +0.000 C 
ATOM     33  C   UNL     1      -9.661   5.635   5.147  0.00  0.00    +0.000 C 
ATOM     34  C   UNL     1      -8.344   5.056   4.690  0.00  0.00    +0.000 C 
ATOM     35  C   UNL     1      -9.783   5.866   6.599  0.00  0.00    +0.000 C 
ATOM     36  C   UNL     1      -7.615   5.149   6.876  0.00  0.00    +0.000 C 
ATOM     37  H   UNL     1     -10.834   6.769   8.058  0.00  0.00    +0.000 HD
ATOM     38  H   UNL     1     -11.563   6.840   6.509  0.00  0.00    +0.000 HD
ATOM     39  H   UNL     1      -6.959   4.764   8.706  0.00  0.00    +0.000 HD
ATOM     40  H   UNL     1      -5.931   4.277   7.439  0.00  0.00    +0.000 HD
ENDBRANCH  24  31
ENDBRANCH  22  24
ENDBRANCH   1  22
TORSDOF 9
ENDMDL
MODEL 8
REMARK VINA RESULT:      -5.8      5.027     11.102
REMARK  Name = Methotrexate.pdbqt.pdb
REMARK  9 active torsions:
REMARK  status: ('A' for Active; 'I' for Inactive)
REMARK    1  A    between atoms: C_1  and  N_22
REMARK    2  A    between atoms: C_2  and  C_9
REMARK    3  A    between atoms: CA_11  and  C_13
REMARK    4  A    between atoms: CA_11  and  CB_16
REMARK    5  A    between atoms: C_13  and  O_14
REMARK    6  A    between atoms: CG_17  and  CD_19
REMARK    7  A    between atoms: CD_19  and  OE1_20
REMARK    8  A    between atoms: N_22  and  C_24
REMARK    9  A    between atoms: C_24  and  C_31
REMARK                            x       y       z     vdW  Elec       q    Type
REMARK                         _______ _______ _______ _____ _____    ______ ____
ROOT
ATOM      1  C   UNL     1     -13.493   5.227   0.612  0.00  0.00    +0.000 A 
ATOM      2  C   UNL     1     -14.969   3.191  -0.681  0.00  0.00    +0.000 A 
ATOM      3  C   UNL     1     -14.727   5.494   0.003  0.00  0.00    +0.000 A 
ATOM      4  C   UNL     1     -13.017   3.910   0.548  0.00  0.00    +0.000 A 
ATOM      5  C   UNL     1     -15.460   4.493  -0.635  0.00  0.00    +0.000 A 
ATOM      6  C   UNL     1     -13.742   2.901  -0.087  0.00  0.00    +0.000 A 
ENDROOT
BRANCH   2   9
ATOM      7  O   UNL     1     -16.920   2.015  -1.181  0.00  0.00    +0.000 OA
ATOM      8  N   UNL     1     -14.954   1.227  -2.120  0.00  0.00    +0.000 N 
ATOM      9  C   ACE A   0     -15.709   2.091  -1.349  0.00  0.00    +0.000 C 
ATOM     10  H   UNL     1     -13.951   1.371  -2.199  0.00  0.00    +0.000 HD
ATOM     11  CA  UNL     1     -15.410   0.132  -2.833  0.00  0.00    +0.000 C 
BRANCH  11  13
ATOM     12  OXT UNL     1     -14.363  -0.739  -4.795  0.00  0.00    +0.000 OA
ATOM     13  C   UNL     1     -14.376  -0.626  -3.579  0.00  0.00    +0.000 C 
BRANCH  13  14
ATOM     14  O   UNL     1     -13.438  -1.189  -2.802  0.00  0.00    +0.000 OA
ATOM     15  H   UNL     1     -13.401  -2.125  -3.085  0.00  0.00    +0.000 HD
ENDBRANCH  13  14
ENDBRANCH  11  13
BRANCH  11  16
ATOM     16  CB  UNL     1     -16.778  -0.247  -2.848  0.00  0.00    +0.000 C 
ATOM     17  CG  UNL     1     -18.252  -0.669  -2.874  0.00  0.00    +0.000 C 
BRANCH  17  19
ATOM     18  OE2 UNL     1     -20.403  -0.741  -3.786  0.00  0.00    +0.000 OA
ATOM     19  CD  UNL     1     -19.624  -1.075  -2.909  0.00  0.00    +0.000 C 
BRANCH  19  20
ATOM     20  OE1 UNL     1     -19.994  -1.851  -1.874  0.00  0.00    +0.000 OA
ATOM     21  HE1 UNL     1     -20.961  -1.717  -1.825  0.00  0.00    +0.000 HD
ENDBRANCH  19  20
ENDBRANCH  17  19
ENDBRANCH  11  16
ENDBRANCH   2   9
BRANCH   1  22
ATOM     22  N   UNL     1     -12.753   6.259   1.237  0.00  0.00    +0.000 N 
ATOM     23  C   UNL     1     -12.751   7.612   0.711  0.00  0.00    +0.000 C 
BRANCH  22  24
ATOM     24  C   UNL     1     -11.659   5.938   2.131  0.00  0.00    +0.000 C 
BRANCH  24  31
ATOM     25  N   UNL     1     -10.756   5.920   4.263  0.00  0.00    +0.000 NA
ATOM     26  N   UNL     1      -8.173   4.729   3.361  0.00  0.00    +0.000 NA
ATOM     27  N   UNL     1      -7.394   4.819   5.538  0.00  0.00    +0.000 NA
ATOM     28  N   UNL     1      -8.742   5.581   7.332  0.00  0.00    +0.000 NA
ATOM     29  N   UNL     1     -10.907   6.308   7.143  0.00  0.00    +0.000 N 
ATOM     30  N   UNL     1      -6.571   4.885   7.654  0.00  0.00    +0.000 N 
ATOM     31  C   UNL     1     -10.586   5.623   3.005  0.00  0.00    +0.000 C 
ATOM     32  C   UNL     1      -9.305   5.056   2.723  0.00  0.00    +0.000 C 
ATOM     33  C   UNL     1      -9.675   5.603   5.111  0.00  0.00    +0.000 C 
ATOM     34  C   UNL     1      -8.372   5.021   4.618  0.00  0.00    +0.000 C 
ATOM     35  C   UNL     1      -9.760   5.827   6.567  0.00  0.00    +0.000 C 
ATOM     36  C   UNL     1      -7.587   5.103   6.786  0.00  0.00    +0.000 C 
ATOM     37  H   UNL     1     -10.771   6.727   8.056  0.00  0.00    +0.000 HD
ATOM     38  H   UNL     1     -11.538   6.808   6.526  0.00  0.00    +0.000 HD
ATOM     39  H   UNL     1      -6.887   4.707   8.598  0.00  0.00    +0.000 HD
ATOM     40  H   UNL     1      -5.893   4.222   7.302  0.00  0.00    +0.000 HD
ENDBRANCH  24  31
ENDBRANCH  22  24
ENDBRANCH   1  22
TORSDOF 9
ENDMDL
MODEL 9
REMARK VINA RESULT:      -5.8     17.472     18.963
REMARK  Name = Methotrexate.pdbqt.pdb
REMARK  9 active torsions:
REMARK  status: ('A' for Active; 'I' for Inactive)
REMARK    1  A    between atoms: C_1  and  N_22
REMARK    2  A    between atoms: C_2  and  C_9
REMARK    3  A    between atoms: CA_11  and  C_13
REMARK    4  A    between atoms: CA_11  and  CB_16
REMARK    5  A    between atoms: C_13  and  O_14
REMARK    6  A    between atoms: CG_17  and  CD_19
REMARK    7  A    between atoms: CD_19  and  OE1_20
REMARK    8  A    between atoms: N_22  and  C_24
REMARK    9  A    between atoms: C_24  and  C_31
REMARK                            x       y       z     vdW  Elec       q    Type
REMARK                         _______ _______ _______ _____ _____    ______ ____
ROOT
ATOM      1  C   UNL     1      -9.515 -13.904   3.643  0.00  0.00    +0.000 A 
ATOM      2  C   UNL     1      -9.543 -15.717   5.813  0.00  0.00    +0.000 A 
ATOM      3  C   UNL     1     -10.686 -14.151   4.373  0.00  0.00    +0.000 A 
ATOM      4  C   UNL     1      -8.360 -14.599   4.028  0.00  0.00    +0.000 A 
ATOM      5  C   UNL     1     -10.705 -15.042   5.446  0.00  0.00    +0.000 A 
ATOM      6  C   UNL     1      -8.368 -15.493   5.099  0.00  0.00    +0.000 A 
ENDROOT
BRANCH   2   9
ATOM      7  O   UNL     1      -8.882 -17.719   6.811  0.00  0.00    +0.000 OA
ATOM      8  N   UNL     1     -10.212 -16.306   8.078  0.00  0.00    +0.000 N 
ATOM      9  C   ACE A   0      -9.512 -16.677   6.945  0.00  0.00    +0.000 C 
ATOM     10  H   UNL     1     -10.707 -15.419   8.094  0.00  0.00    +0.000 HD
ATOM     11  CA  UNL     1     -10.335 -17.026   9.253  0.00  0.00    +0.000 C 
BRANCH  11  13
ATOM     12  OXT UNL     1     -12.337 -16.618  10.491  0.00  0.00    +0.000 OA
ATOM     13  C   UNL     1     -11.150 -16.388  10.316  0.00  0.00    +0.000 C 
BRANCH  13  14
ATOM     14  O   UNL     1     -10.472 -15.521  11.084  0.00  0.00    +0.000 OA
ATOM     15  H   UNL     1     -10.320 -14.740  10.513  0.00  0.00    +0.000 HD
ENDBRANCH  13  14
ENDBRANCH  11  13
BRANCH  11  16
ATOM     16  CB  UNL     1      -9.726 -18.296   9.433  0.00  0.00    +0.000 C 
ATOM     17  CG  UNL     1      -9.067 -19.665   9.641  0.00  0.00    +0.000 C 
BRANCH  17  19
ATOM     18  OE2 UNL     1      -8.479 -21.533  10.917  0.00  0.00    +0.000 OA
ATOM     19  CD  UNL     1      -8.449 -20.938   9.853  0.00  0.00    +0.000 C 
BRANCH  19  20
ATOM     20  OE1 UNL     1      -7.806 -21.422   8.775  0.00  0.00    +0.000 OA
ATOM     21  HE1 UNL     1      -8.176 -20.899   8.037  0.00  0.00    +0.000 HD
ENDBRANCH  19  20
ENDBRANCH  17  19
ENDBRANCH  11  16
ENDBRANCH   2   9
BRANCH   1  22
ATOM     22  N   UNL     1      -9.518 -13.011   2.544  0.00  0.00    +0.000 N 
ATOM     23  C   UNL     1      -8.483 -13.061   1.528  0.00  0.00    +0.000 C 
BRANCH  22  24
ATOM     24  C   UNL     1     -10.266 -11.773   2.608  0.00  0.00    +0.000 C 
BRANCH  24  31
ATOM     25  N   UNL     1     -11.088  -9.996   3.845  0.00  0.00    +0.000 NA
ATOM     26  N   UNL     1     -12.476  -8.767   1.506  0.00  0.00    +0.000 NA
ATOM     27  N   UNL     1     -13.259  -7.081   2.884  0.00  0.00    +0.000 NA
ATOM     28  N   UNL     1     -12.675  -6.947   5.176  0.00  0.00    +0.000 NA
ATOM     29  N   UNL     1     -11.314  -8.422   6.282  0.00  0.00    +0.000 N 
ATOM     30  N   UNL     1     -14.064  -5.401   4.184  0.00  0.00    +0.000 N 
ATOM     31  C   UNL     1     -11.001 -10.561   2.673  0.00  0.00    +0.000 C 
ATOM     32  C   UNL     1     -11.710  -9.858   1.651  0.00  0.00    +0.000 C 
ATOM     33  C   UNL     1     -11.827  -8.796   3.886  0.00  0.00    +0.000 C 
ATOM     34  C   UNL     1     -12.537  -8.212   2.688  0.00  0.00    +0.000 C 
ATOM     35  C   UNL     1     -11.951  -8.021   5.136  0.00  0.00    +0.000 C 
ATOM     36  C   UNL     1     -13.319  -6.525   4.051  0.00  0.00    +0.000 C 
ATOM     37  H   UNL     1     -11.706  -8.036   7.133  0.00  0.00    +0.000 HD
ATOM     38  H   UNL     1     -11.058  -9.402   6.328  0.00  0.00    +0.000 HD
ATOM     39  H   UNL     1     -13.744  -4.801   4.933  0.00  0.00    +0.000 HD
ATOM     40  H   UNL     1     -14.221  -4.931   3.303  0.00  0.00    +0.000 HD
ENDBRANCH  24  31
ENDBRANCH  22  24
ENDBRANCH   1  22
TORSDOF 9
ENDMDL
