MODEL 1
REMARK VINA RESULT:      -5.1      0.000      0.000
REMARK  Name = Monobenzone.pdbqt.pdb
REMARK  4 active torsions:
REMARK  status: ('A' for Active; 'I' for Inactive)
REMARK    1  A    between atoms: C_1  and  O_7
REMARK    2  A    between atoms: C_6  and  O_15
REMARK    3  A    between atoms: O_7  and  C_8
REMARK    4  A    between atoms: C_8  and  C_9
REMARK                            x       y       z     vdW  Elec       q    Type
REMARK                         _______ _______ _______ _____ _____    ______ ____
ROOT
ATOM      1  C   UNL     1       5.675  -8.042  10.144  0.00  0.00    +0.000 A 
ATOM      2  C   UNL     1       6.175  -6.915  10.801  0.00  0.00    +0.000 A 
ATOM      3  C   UNL     1       5.054  -7.899   8.902  0.00  0.00    +0.000 A 
ATOM      4  C   UNL     1       6.058  -5.654  10.221  0.00  0.00    +0.000 A 
ATOM      5  C   UNL     1       4.933  -6.641   8.318  0.00  0.00    +0.000 A 
ATOM      6  C   UNL     1       5.437  -5.528   8.983  0.00  0.00    +0.000 A 
ENDROOT
BRANCH   6   7
ATOM      7  O   UNL     1       5.308  -4.305   8.392  0.00  0.00    +0.000 OA
ATOM      8  H   UNL     1       5.712  -3.639   8.975  0.00  0.00    +0.000 HD
ENDBRANCH   6   7
BRANCH   1   9
ATOM      9  O   UNL     1       5.744  -9.322  10.635  0.00  0.00    +0.000 OA
BRANCH   9  10
ATOM     10  C   UNL     1       6.978  -9.796  10.787  0.00  0.00    +0.000 C 
BRANCH  10  11
ATOM     11  C   UNL     1       8.305 -10.299  10.935  0.00  0.00    +0.000 A 
ATOM     12  C   UNL     1       8.505 -11.617  11.339  0.00  0.00    +0.000 A 
ATOM     13  C   UNL     1       9.801 -12.107  11.489  0.00  0.00    +0.000 A 
ATOM     14  C   UNL     1      10.891 -11.279  11.235  0.00  0.00    +0.000 A 
ATOM     15  C   UNL     1      10.688  -9.961  10.831  0.00  0.00    +0.000 A 
ATOM     16  C   UNL     1       9.394  -9.470  10.680  0.00  0.00    +0.000 A 
ENDBRANCH  10  11
ENDBRANCH   9  10
ENDBRANCH   1   9
TORSDOF 4
ENDMDL
MODEL 2
REMARK VINA RESULT:      -4.7      2.536      3.630
REMARK  Name = Monobenzone.pdbqt.pdb
REMARK  4 active torsions:
REMARK  status: ('A' for Active; 'I' for Inactive)
REMARK    1  A    between atoms: C_1  and  O_7
REMARK    2  A    between atoms: C_6  and  O_15
REMARK    3  A    between atoms: O_7  and  C_8
REMARK    4  A    between atoms: C_8  and  C_9
REMARK                            x       y       z     vdW  Elec       q    Type
REMARK                         _______ _______ _______ _____ _____    ______ ____
ROOT
ATOM      1  C   UNL     1       6.321  -7.302  10.966  0.00  0.00    +0.000 A 
ATOM      2  C   UNL     1       6.392  -5.919  11.151  0.00  0.00    +0.000 A 
ATOM      3  C   UNL     1       5.748  -7.814   9.801  0.00  0.00    +0.000 A 
ATOM      4  C   UNL     1       5.896  -5.054  10.180  0.00  0.00    +0.000 A 
ATOM      5  C   UNL     1       5.249  -6.954   8.827  0.00  0.00    +0.000 A 
ATOM      6  C   UNL     1       5.328  -5.580   9.024  0.00  0.00    +0.000 A 
ENDROOT
BRANCH   6   7
ATOM      7  O   UNL     1       4.833  -4.756   8.055  0.00  0.00    +0.000 OA
ATOM      8  H   UNL     1       4.968  -3.835   8.339  0.00  0.00    +0.000 HD
ENDBRANCH   6   7
BRANCH   1   9
ATOM      9  O   UNL     1       6.783  -8.230  11.865  0.00  0.00    +0.000 OA
BRANCH   9  10
ATOM     10  C   UNL     1       6.082  -9.360  11.912  0.00  0.00    +0.000 C 
BRANCH  10  11
ATOM     11  C   UNL     1       5.342 -10.579  11.954  0.00  0.00    +0.000 A 
ATOM     12  C   UNL     1       3.960 -10.545  12.129  0.00  0.00    +0.000 A 
ATOM     13  C   UNL     1       3.239 -11.737  12.176  0.00  0.00    +0.000 A 
ATOM     14  C   UNL     1       3.899 -12.956  12.047  0.00  0.00    +0.000 A 
ATOM     15  C   UNL     1       5.281 -12.987  11.871  0.00  0.00    +0.000 A 
ATOM     16  C   UNL     1       6.003 -11.798  11.824  0.00  0.00    +0.000 A 
ENDBRANCH  10  11
ENDBRANCH   9  10
ENDBRANCH   1   9
TORSDOF 4
ENDMDL
MODEL 3
REMARK VINA RESULT:      -4.7     22.822     24.390
REMARK  Name = Monobenzone.pdbqt.pdb
REMARK  4 active torsions:
REMARK  status: ('A' for Active; 'I' for Inactive)
REMARK    1  A    between atoms: C_1  and  O_7
REMARK    2  A    between atoms: C_6  and  O_15
REMARK    3  A    between atoms: O_7  and  C_8
REMARK    4  A    between atoms: C_8  and  C_9
REMARK                            x       y       z     vdW  Elec       q    Type
REMARK                         _______ _______ _______ _____ _____    ______ ____
ROOT
ATOM      1  C   UNL     1     -10.493  -8.161  26.759  0.00  0.00    +0.000 A 
ATOM      2  C   UNL     1     -11.558  -7.359  27.175  0.00  0.00    +0.000 A 
ATOM      3  C   UNL     1     -10.749  -9.405  26.181  0.00  0.00    +0.000 A 
ATOM      4  C   UNL     1     -12.870  -7.795  27.013  0.00  0.00    +0.000 A 
ATOM      5  C   UNL     1     -12.059  -9.847  26.017  0.00  0.00    +0.000 A 
ATOM      6  C   UNL     1     -13.110  -9.037  26.435  0.00  0.00    +0.000 A 
ENDROOT
BRANCH   6   7
ATOM      7  O   UNL     1     -14.386  -9.490  26.265  0.00  0.00    +0.000 OA
ATOM      8  H   UNL     1     -14.383 -10.149  25.549  0.00  0.00    +0.000 HD
ENDBRANCH   6   7
BRANCH   1   9
ATOM      9  O   UNL     1      -9.169  -7.817  26.876  0.00  0.00    +0.000 OA
BRANCH   9  10
ATOM     10  C   UNL     1      -8.901  -6.536  26.633  0.00  0.00    +0.000 C 
BRANCH  10  11
ATOM     11  C   UNL     1      -8.598  -5.166  26.378  0.00  0.00    +0.000 A 
ATOM     12  C   UNL     1      -7.607  -4.836  25.456  0.00  0.00    +0.000 A 
ATOM     13  C   UNL     1      -7.307  -3.498  25.210  0.00  0.00    +0.000 A 
ATOM     14  C   UNL     1      -7.998  -2.494  25.885  0.00  0.00    +0.000 A 
ATOM     15  C   UNL     1      -8.989  -2.827  26.806  0.00  0.00    +0.000 A 
ATOM     16  C   UNL     1      -9.290  -4.164  27.053  0.00  0.00    +0.000 A 
ENDBRANCH  10  11
ENDBRANCH   9  10
ENDBRANCH   1   9
TORSDOF 4
ENDMDL
MODEL 4
REMARK VINA RESULT:      -4.7     22.150     23.474
REMARK  Name = Monobenzone.pdbqt.pdb
REMARK  4 active torsions:
REMARK  status: ('A' for Active; 'I' for Inactive)
REMARK    1  A    between atoms: C_1  and  O_7
REMARK    2  A    between atoms: C_6  and  O_15
REMARK    3  A    between atoms: O_7  and  C_8
REMARK    4  A    between atoms: C_8  and  C_9
REMARK                            x       y       z     vdW  Elec       q    Type
REMARK                         _______ _______ _______ _____ _____    ______ ____
ROOT
ATOM      1  C   UNL     1      -8.913   5.310   3.273  0.00  0.00    +0.000 A 
ATOM      2  C   UNL     1      -9.968   5.463   4.176  0.00  0.00    +0.000 A 
ATOM      3  C   UNL     1      -9.184   4.985   1.943  0.00  0.00    +0.000 A 
ATOM      4  C   UNL     1     -11.284   5.294   3.754  0.00  0.00    +0.000 A 
ATOM      5  C   UNL     1     -10.497   4.813   1.515  0.00  0.00    +0.000 A 
ATOM      6  C   UNL     1     -11.538   4.969   2.425  0.00  0.00    +0.000 A 
ENDROOT
BRANCH   6   7
ATOM      7  O   UNL     1     -12.817   4.797   1.983  0.00  0.00    +0.000 OA
ATOM      8  H   UNL     1     -12.801   4.173   1.237  0.00  0.00    +0.000 HD
ENDBRANCH   6   7
BRANCH   1   9
ATOM      9  O   UNL     1      -7.587   5.458   3.595  0.00  0.00    +0.000 OA
BRANCH   9  10
ATOM     10  C   UNL     1      -6.977   6.479   2.999  0.00  0.00    +0.000 C 
BRANCH  10  11
ATOM     11  C   UNL     1      -6.319   7.579   2.374  0.00  0.00    +0.000 A 
ATOM     12  C   UNL     1      -5.972   8.698   3.127  0.00  0.00    +0.000 A 
ATOM     13  C   UNL     1      -5.334   9.775   2.516  0.00  0.00    +0.000 A 
ATOM     14  C   UNL     1      -5.044   9.731   1.154  0.00  0.00    +0.000 A 
ATOM     15  C   UNL     1      -5.391   8.610   0.403  0.00  0.00    +0.000 A 
ATOM     16  C   UNL     1      -6.029   7.533   1.012  0.00  0.00    +0.000 A 
ENDBRANCH  10  11
ENDBRANCH   9  10
ENDBRANCH   1   9
TORSDOF 4
ENDMDL
MODEL 5
REMARK VINA RESULT:      -4.5     20.527     22.334
REMARK  Name = Monobenzone.pdbqt.pdb
REMARK  4 active torsions:
REMARK  status: ('A' for Active; 'I' for Inactive)
REMARK    1  A    between atoms: C_1  and  O_7
REMARK    2  A    between atoms: C_6  and  O_15
REMARK    3  A    between atoms: O_7  and  C_8
REMARK    4  A    between atoms: C_8  and  C_9
REMARK                            x       y       z     vdW  Elec       q    Type
REMARK                         _______ _______ _______ _____ _____    ______ ____
ROOT
ATOM      1  C   UNL     1      -6.528   7.707   2.558  0.00  0.00    +0.000 A 
ATOM      2  C   UNL     1      -6.116   8.598   3.552  0.00  0.00    +0.000 A 
ATOM      3  C   UNL     1      -6.088   7.885   1.245  0.00  0.00    +0.000 A 
ATOM      4  C   UNL     1      -5.270   9.659   3.238  0.00  0.00    +0.000 A 
ATOM      5  C   UNL     1      -5.243   8.945   0.925  0.00  0.00    +0.000 A 
ATOM      6  C   UNL     1      -4.840   9.823   1.925  0.00  0.00    +0.000 A 
ENDROOT
BRANCH   6   7
ATOM      7  O   UNL     1      -4.012  10.853   1.589  0.00  0.00    +0.000 OA
ATOM      8  H   UNL     1      -3.844  11.384   2.387  0.00  0.00    +0.000 HD
ENDBRANCH   6   7
BRANCH   1   9
ATOM      9  O   UNL     1      -7.357   6.635   2.771  0.00  0.00    +0.000 OA
BRANCH   9  10
ATOM     10  C   UNL     1      -7.531   6.307   4.049  0.00  0.00    +0.000 C 
BRANCH  10  11
ATOM     11  C   UNL     1      -7.714   5.940   5.415  0.00  0.00    +0.000 A 
ATOM     12  C   UNL     1      -6.605   5.714   6.226  0.00  0.00    +0.000 A 
ATOM     13  C   UNL     1      -6.784   5.350   7.560  0.00  0.00    +0.000 A 
ATOM     14  C   UNL     1      -8.070   5.215   8.077  0.00  0.00    +0.000 A 
ATOM     15  C   UNL     1      -9.178   5.442   7.263  0.00  0.00    +0.000 A 
ATOM     16  C   UNL     1      -9.001   5.805   5.931  0.00  0.00    +0.000 A 
ENDBRANCH  10  11
ENDBRANCH   9  10
ENDBRANCH   1   9
TORSDOF 4
ENDMDL
MODEL 6
REMARK VINA RESULT:      -4.5     20.657     24.032
REMARK  Name = Monobenzone.pdbqt.pdb
REMARK  4 active torsions:
REMARK  status: ('A' for Active; 'I' for Inactive)
REMARK    1  A    between atoms: C_1  and  O_7
REMARK    2  A    between atoms: C_6  and  O_15
REMARK    3  A    between atoms: O_7  and  C_8
REMARK    4  A    between atoms: C_8  and  C_9
REMARK                            x       y       z     vdW  Elec       q    Type
REMARK                         _______ _______ _______ _____ _____    ______ ____
ROOT
ATOM      1  C   UNL     1     -12.483   6.647   6.182  0.00  0.00    +0.000 A 
ATOM      2  C   UNL     1     -13.673   6.436   6.882  0.00  0.00    +0.000 A 
ATOM      3  C   UNL     1     -11.992   7.944   6.027  0.00  0.00    +0.000 A 
ATOM      4  C   UNL     1     -14.369   7.514   7.423  0.00  0.00    +0.000 A 
ATOM      5  C   UNL     1     -12.684   9.026   6.565  0.00  0.00    +0.000 A 
ATOM      6  C   UNL     1     -13.868   8.802   7.260  0.00  0.00    +0.000 A 
ENDROOT
BRANCH   6   7
ATOM      7  O   UNL     1     -14.529   9.876   7.780  0.00  0.00    +0.000 OA
ATOM      8  H   UNL     1     -15.207  10.156   7.141  0.00  0.00    +0.000 HD
ENDBRANCH   6   7
BRANCH   1   9
ATOM      9  O   UNL     1     -11.728   5.650   5.615  0.00  0.00    +0.000 OA
BRANCH   9  10
ATOM     10  C   UNL     1     -10.474   5.580   6.053  0.00  0.00    +0.000 C 
BRANCH  10  11
ATOM     11  C   UNL     1      -9.127   5.520   6.519  0.00  0.00    +0.000 A 
ATOM     12  C   UNL     1      -8.869   5.416   7.883  0.00  0.00    +0.000 A 
ATOM     13  C   UNL     1      -7.553   5.363   8.338  0.00  0.00    +0.000 A 
ATOM     14  C   UNL     1      -6.500   5.413   7.428  0.00  0.00    +0.000 A 
ATOM     15  C   UNL     1      -6.760   5.517   6.064  0.00  0.00    +0.000 A 
ATOM     16  C   UNL     1      -8.075   5.570   5.607  0.00  0.00    +0.000 A 
ENDBRANCH  10  11
ENDBRANCH   9  10
ENDBRANCH   1   9
TORSDOF 4
ENDMDL
MODEL 7
REMARK VINA RESULT:      -4.4     22.698     24.008
REMARK  Name = Monobenzone.pdbqt.pdb
REMARK  4 active torsions:
REMARK  status: ('A' for Active; 'I' for Inactive)
REMARK    1  A    between atoms: C_1  and  O_7
REMARK    2  A    between atoms: C_6  and  O_15
REMARK    3  A    between atoms: O_7  and  C_8
REMARK    4  A    between atoms: C_8  and  C_9
REMARK                            x       y       z     vdW  Elec       q    Type
REMARK                         _______ _______ _______ _____ _____    ______ ____
ROOT
ATOM      1  C   UNL     1      -8.336  -6.810  26.608  0.00  0.00    +0.000 A 
ATOM      2  C   UNL     1      -7.483  -6.207  25.680  0.00  0.00    +0.000 A 
ATOM      3  C   UNL     1      -9.315  -6.046  27.245  0.00  0.00    +0.000 A 
ATOM      4  C   UNL     1      -7.607  -4.851  25.390  0.00  0.00    +0.000 A 
ATOM      5  C   UNL     1      -9.444  -4.689  26.959  0.00  0.00    +0.000 A 
ATOM      6  C   UNL     1      -8.588  -4.102  26.032  0.00  0.00    +0.000 A 
ENDROOT
BRANCH   6   7
ATOM      7  O   UNL     1      -8.733  -2.772  25.767  0.00  0.00    +0.000 OA
ATOM      8  H   UNL     1      -9.672  -2.597  25.584  0.00  0.00    +0.000 HD
ENDBRANCH   6   7
BRANCH   1   9
ATOM      9  O   UNL     1      -8.290  -8.136  26.959  0.00  0.00    +0.000 OA
BRANCH   9  10
ATOM     10  C   UNL     1      -9.449  -8.781  26.858  0.00  0.00    +0.000 C 
BRANCH  10  11
ATOM     11  C   UNL     1     -10.685  -9.485  26.743  0.00  0.00    +0.000 A 
ATOM     12  C   UNL     1     -11.668  -9.021  25.872  0.00  0.00    +0.000 A 
ATOM     13  C   UNL     1     -12.877  -9.706  25.763  0.00  0.00    +0.000 A 
ATOM     14  C   UNL     1     -13.099 -10.850  26.525  0.00  0.00    +0.000 A 
ATOM     15  C   UNL     1     -12.114 -11.313  27.395  0.00  0.00    +0.000 A 
ATOM     16  C   UNL     1     -10.906 -10.630  27.505  0.00  0.00    +0.000 A 
ENDBRANCH  10  11
ENDBRANCH   9  10
ENDBRANCH   1   9
TORSDOF 4
ENDMDL
MODEL 8
REMARK VINA RESULT:      -4.2      1.630      2.312
REMARK  Name = Monobenzone.pdbqt.pdb
REMARK  4 active torsions:
REMARK  status: ('A' for Active; 'I' for Inactive)
REMARK    1  A    between atoms: C_1  and  O_7
REMARK    2  A    between atoms: C_6  and  O_15
REMARK    3  A    between atoms: O_7  and  C_8
REMARK    4  A    between atoms: C_8  and  C_9
REMARK                            x       y       z     vdW  Elec       q    Type
REMARK                         _______ _______ _______ _____ _____    ______ ____
ROOT
ATOM      1  C   UNL     1       8.220  -7.110   9.926  0.00  0.00    +0.000 A 
ATOM      2  C   UNL     1       6.941  -7.525  10.305  0.00  0.00    +0.000 A 
ATOM      3  C   UNL     1       8.369  -5.994   9.102  0.00  0.00    +0.000 A 
ATOM      4  C   UNL     1       5.818  -6.828   9.866  0.00  0.00    +0.000 A 
ATOM      5  C   UNL     1       7.249  -5.294   8.658  0.00  0.00    +0.000 A 
ATOM      6  C   UNL     1       5.982  -5.717   9.045  0.00  0.00    +0.000 A 
ENDROOT
BRANCH   6   7
ATOM      7  O   UNL     1       4.900  -5.016   8.599  0.00  0.00    +0.000 OA
ATOM      8  H   UNL     1       4.639  -4.384   9.291  0.00  0.00    +0.000 HD
ENDBRANCH   6   7
BRANCH   1   9
ATOM      9  O   UNL     1       9.383  -7.731  10.308  0.00  0.00    +0.000 OA
BRANCH   9  10
ATOM     10  C   UNL     1       9.257  -9.021  10.606  0.00  0.00    +0.000 C 
BRANCH  10  11
ATOM     11  C   UNL     1       9.114 -10.408  10.911  0.00  0.00    +0.000 A 
ATOM     12  C   UNL     1       7.877 -11.028  10.754  0.00  0.00    +0.000 A 
ATOM     13  C   UNL     1       7.737 -12.381  11.057  0.00  0.00    +0.000 A 
ATOM     14  C   UNL     1       8.832 -13.109  11.514  0.00  0.00    +0.000 A 
ATOM     15  C   UNL     1      10.069 -12.486  11.670  0.00  0.00    +0.000 A 
ATOM     16  C   UNL     1      10.211 -11.134  11.368  0.00  0.00    +0.000 A 
ENDBRANCH  10  11
ENDBRANCH   9  10
ENDBRANCH   1   9
TORSDOF 4
ENDMDL
MODEL 9
REMARK VINA RESULT:      -4.1     22.341     24.075
REMARK  Name = Monobenzone.pdbqt.pdb
REMARK  4 active torsions:
REMARK  status: ('A' for Active; 'I' for Inactive)
REMARK    1  A    between atoms: C_1  and  O_7
REMARK    2  A    between atoms: C_6  and  O_15
REMARK    3  A    between atoms: O_7  and  C_8
REMARK    4  A    between atoms: C_8  and  C_9
REMARK                            x       y       z     vdW  Elec       q    Type
REMARK                         _______ _______ _______ _____ _____    ______ ____
ROOT
ATOM      1  C   UNL     1      -3.853   7.724  -3.859  0.00  0.00    +0.000 A 
ATOM      2  C   UNL     1      -4.497   7.000  -4.865  0.00  0.00    +0.000 A 
ATOM      3  C   UNL     1      -2.790   7.145  -3.163  0.00  0.00    +0.000 A 
ATOM      4  C   UNL     1      -4.082   5.708  -5.175  0.00  0.00    +0.000 A 
ATOM      5  C   UNL     1      -2.372   5.852  -3.468  0.00  0.00    +0.000 A 
ATOM      6  C   UNL     1      -3.022   5.144  -4.473  0.00  0.00    +0.000 A 
ENDROOT
BRANCH   6   7
ATOM      7  O   UNL     1      -2.594   3.880  -4.756  0.00  0.00    +0.000 OA
ATOM      8  H   UNL     1      -1.713   3.760  -4.362  0.00  0.00    +0.000 HD
ENDBRANCH   6   7
BRANCH   1   9
ATOM      9  O   UNL     1      -4.189   9.000  -3.483  0.00  0.00    +0.000 OA
BRANCH   9  10
ATOM     10  C   UNL     1      -4.351   9.174  -2.174  0.00  0.00    +0.000 C 
BRANCH  10  11
ATOM     11  C   UNL     1      -4.536   9.349  -0.770  0.00  0.00    +0.000 A 
ATOM     12  C   UNL     1      -3.842  10.354  -0.100  0.00  0.00    +0.000 A 
ATOM     13  C   UNL     1      -4.019  10.521   1.273  0.00  0.00    +0.000 A 
ATOM     14  C   UNL     1      -4.887   9.684   1.969  0.00  0.00    +0.000 A 
ATOM     15  C   UNL     1      -5.580   8.680   1.296  0.00  0.00    +0.000 A 
ATOM     16  C   UNL     1      -5.404   8.511  -0.075  0.00  0.00    +0.000 A 
ENDBRANCH  10  11
ENDBRANCH   9  10
ENDBRANCH   1   9
TORSDOF 4
ENDMDL
