MODEL 1
REMARK VINA RESULT:      -5.0      0.000      0.000
REMARK  Name = 
REMARK  5 active torsions:
REMARK  status: ('A' for Active; 'I' for Inactive)
REMARK    1  A    between atoms: O_4  and  C_15
REMARK    2  A    between atoms: C_6  and  C_13
REMARK    3  A    between atoms: C_7  and  C_12
REMARK    4  A    between atoms: C_8  and  C_14
REMARK    5  A    between atoms: C_12  and  C_15
REMARK                            x       y       z     vdW  Elec       q    Type
REMARK                         _______ _______ _______ _____ _____    ______ ____
ROOT
ATOM      1  C   UNL     1      -8.902  -4.528  26.783  0.00  0.00    +0.000 A 
ATOM      2  C   UNL     1      -8.991  -6.973  26.649  0.00  0.00    +0.000 A 
ATOM      3  C   UNL     1      -7.887  -4.514  25.801  0.00  0.00    +0.000 A 
ATOM      4  C   UNL     1      -9.440  -5.763  27.194  0.00  0.00    +0.000 A 
ATOM      5  C   UNL     1      -7.978  -6.945  25.686  0.00  0.00    +0.000 A 
ATOM      6  C   UNL     1      -7.435  -5.730  25.266  0.00  0.00    +0.000 A 
ATOM      7  C   UNL     1      -7.269  -3.228  25.325  0.00  0.00    +0.000 C 
ENDROOT
BRANCH   1  11
ATOM      8  F   UNL     1      -9.810  -2.333  26.469  0.00  0.00    +0.000 F 
ATOM      9  F   UNL     1     -10.508  -3.431  28.205  0.00  0.00    +0.000 F 
ATOM     10  F   UNL     1      -8.495  -2.619  28.179  0.00  0.00    +0.000 F 
ATOM     11  C   UNL     1      -9.421  -3.247  27.402  0.00  0.00    +0.000 C 
ENDBRANCH   1  11
BRANCH   2  12
ATOM     12  C   UNL     1      -9.568  -8.288  27.116  0.00  0.00    +0.000 C 
BRANCH  12  14
ATOM     13  O   UNL     1     -11.883  -8.465  26.303  0.00  0.00    +0.000 OA
ATOM     14  C   UNL     1     -10.708  -8.793  26.267  0.00  0.00    +0.000 C 
BRANCH  14  15
ATOM     15  O   UNL     1     -10.293  -9.707  25.363  0.00  0.00    +0.000 OA
ATOM     16  H   UNL     1      -9.808 -10.366  25.906  0.00  0.00    +0.000 HD
ENDBRANCH  14  15
ENDBRANCH  12  14
ENDBRANCH   2  12
TORSDOF 4
ENDMDL
MODEL 2
REMARK VINA RESULT:      -4.8     22.146     23.432
REMARK  Name = 
REMARK  5 active torsions:
REMARK  status: ('A' for Active; 'I' for Inactive)
REMARK    1  A    between atoms: O_4  and  C_15
REMARK    2  A    between atoms: C_6  and  C_13
REMARK    3  A    between atoms: C_7  and  C_12
REMARK    4  A    between atoms: C_8  and  C_14
REMARK    5  A    between atoms: C_12  and  C_15
REMARK                            x       y       z     vdW  Elec       q    Type
REMARK                         _______ _______ _______ _____ _____    ______ ____
ROOT
ATOM      1  C   UNL     1       7.138 -10.506  11.288  0.00  0.00    +0.000 A 
ATOM      2  C   UNL     1       5.773  -8.555  10.707  0.00  0.00    +0.000 A 
ATOM      3  C   UNL     1       6.000 -11.135  11.837  0.00  0.00    +0.000 A 
ATOM      4  C   UNL     1       7.006  -9.219  10.729  0.00  0.00    +0.000 A 
ATOM      5  C   UNL     1       4.656  -9.186  11.265  0.00  0.00    +0.000 A 
ATOM      6  C   UNL     1       4.769 -10.461  11.821  0.00  0.00    +0.000 A 
ATOM      7  C   UNL     1       6.077 -12.506  12.453  0.00  0.00    +0.000 C 
ENDROOT
BRANCH   1  11
ATOM      8  F   UNL     1       8.436 -12.472  10.851  0.00  0.00    +0.000 F 
ATOM      9  F   UNL     1       9.409 -10.568  10.484  0.00  0.00    +0.000 F 
ATOM     10  F   UNL     1       9.064 -11.229  12.523  0.00  0.00    +0.000 F 
ATOM     11  C   UNL     1       8.493 -11.182  11.287  0.00  0.00    +0.000 C 
ENDBRANCH   1  11
BRANCH   2  12
ATOM     12  C   UNL     1       5.656  -7.169  10.120  0.00  0.00    +0.000 C 
BRANCH  12  14
ATOM     13  O   UNL     1       7.388  -6.585   8.474  0.00  0.00    +0.000 OA
ATOM     14  C   UNL     1       6.287  -7.026   8.757  0.00  0.00    +0.000 C 
BRANCH  14  15
ATOM     15  O   UNL     1       5.474  -7.483   7.779  0.00  0.00    +0.000 OA
ATOM     16  H   UNL     1       5.999  -8.197   7.356  0.00  0.00    +0.000 HD
ENDBRANCH  14  15
ENDBRANCH  12  14
ENDBRANCH   2  12
TORSDOF 4
ENDMDL
MODEL 3
REMARK VINA RESULT:      -4.5     13.409     14.597
REMARK  Name = 
REMARK  5 active torsions:
REMARK  status: ('A' for Active; 'I' for Inactive)
REMARK    1  A    between atoms: O_4  and  C_15
REMARK    2  A    between atoms: C_6  and  C_13
REMARK    3  A    between atoms: C_7  and  C_12
REMARK    4  A    between atoms: C_8  and  C_14
REMARK    5  A    between atoms: C_12  and  C_15
REMARK                            x       y       z     vdW  Elec       q    Type
REMARK                         _______ _______ _______ _____ _____    ______ ____
ROOT
ATOM      1  C   UNL     1     -19.493  -6.067  17.253  0.00  0.00    +0.000 A 
ATOM      2  C   UNL     1     -20.071  -4.249  18.792  0.00  0.00    +0.000 A 
ATOM      3  C   UNL     1     -20.728  -5.895  16.592  0.00  0.00    +0.000 A 
ATOM      4  C   UNL     1     -19.182  -5.238  18.350  0.00  0.00    +0.000 A 
ATOM      5  C   UNL     1     -21.295  -4.098  18.134  0.00  0.00    +0.000 A 
ATOM      6  C   UNL     1     -21.618  -4.910  17.046  0.00  0.00    +0.000 A 
ATOM      7  C   UNL     1     -21.120  -6.753  15.419  0.00  0.00    +0.000 C 
ENDROOT
BRANCH   1  11
ATOM      8  F   UNL     1     -18.222  -7.057  15.480  0.00  0.00    +0.000 F 
ATOM      9  F   UNL     1     -17.290  -7.027  17.438  0.00  0.00    +0.000 F 
ATOM     10  F   UNL     1     -18.933  -8.391  17.045  0.00  0.00    +0.000 F 
ATOM     11  C   UNL     1     -18.499  -7.121  16.813  0.00  0.00    +0.000 C 
ENDBRANCH   1  11
BRANCH   2  12
ATOM     12  C   UNL     1     -19.727  -3.382  19.980  0.00  0.00    +0.000 C 
BRANCH  12  14
ATOM     13  O   UNL     1     -20.371  -1.012  20.118  0.00  0.00    +0.000 OA
ATOM     14  C   UNL     1     -19.676  -1.907  19.667  0.00  0.00    +0.000 C 
BRANCH  14  15
ATOM     15  O   UNL     1     -18.700  -1.617  18.780  0.00  0.00    +0.000 OA
ATOM     16  H   UNL     1     -18.792  -2.316  18.097  0.00  0.00    +0.000 HD
ENDBRANCH  14  15
ENDBRANCH  12  14
ENDBRANCH   2  12
TORSDOF 4
ENDMDL
MODEL 4
REMARK VINA RESULT:      -4.5     23.387     24.811
REMARK  Name = 
REMARK  5 active torsions:
REMARK  status: ('A' for Active; 'I' for Inactive)
REMARK    1  A    between atoms: O_4  and  C_15
REMARK    2  A    between atoms: C_6  and  C_13
REMARK    3  A    between atoms: C_7  and  C_12
REMARK    4  A    between atoms: C_8  and  C_14
REMARK    5  A    between atoms: C_12  and  C_15
REMARK                            x       y       z     vdW  Elec       q    Type
REMARK                         _______ _______ _______ _____ _____    ______ ____
ROOT
ATOM      1  C   UNL     1      -8.433   5.769   4.145  0.00  0.00    +0.000 A 
ATOM      2  C   UNL     1      -8.016   5.734   6.559  0.00  0.00    +0.000 A 
ATOM      3  C   UNL     1      -9.809   5.561   4.383  0.00  0.00    +0.000 A 
ATOM      4  C   UNL     1      -7.553   5.852   5.243  0.00  0.00    +0.000 A 
ATOM      5  C   UNL     1      -9.380   5.518   6.779  0.00  0.00    +0.000 A 
ATOM      6  C   UNL     1     -10.265   5.435   5.703  0.00  0.00    +0.000 A 
ATOM      7  C   UNL     1     -10.797   5.458   3.252  0.00  0.00    +0.000 C 
ENDROOT
BRANCH   1  11
ATOM      8  F   UNL     1      -6.560   6.228   2.722  0.00  0.00    +0.000 F 
ATOM      9  F   UNL     1      -7.985   4.760   2.003  0.00  0.00    +0.000 F 
ATOM     10  F   UNL     1      -8.515   6.865   2.012  0.00  0.00    +0.000 F 
ATOM     11  C   UNL     1      -7.883   5.903   2.740  0.00  0.00    +0.000 C 
ENDBRANCH   1  11
BRANCH   2  12
ATOM     12  C   UNL     1      -7.055   5.808   7.722  0.00  0.00    +0.000 C 
BRANCH  12  14
ATOM     13  O   UNL     1      -7.720   7.853   8.917  0.00  0.00    +0.000 OA
ATOM     14  C   UNL     1      -6.900   7.193   8.301  0.00  0.00    +0.000 C 
BRANCH  14  15
ATOM     15  O   UNL     1      -5.662   7.689   8.085  0.00  0.00    +0.000 OA
ATOM     16  H   UNL     1      -5.743   8.144   7.218  0.00  0.00    +0.000 HD
ENDBRANCH  14  15
ENDBRANCH  12  14
ENDBRANCH   2  12
TORSDOF 4
ENDMDL
MODEL 5
REMARK VINA RESULT:      -4.5     12.516     13.827
REMARK  Name = 
REMARK  5 active torsions:
REMARK  status: ('A' for Active; 'I' for Inactive)
REMARK    1  A    between atoms: O_4  and  C_15
REMARK    2  A    between atoms: C_6  and  C_13
REMARK    3  A    between atoms: C_7  and  C_12
REMARK    4  A    between atoms: C_8  and  C_14
REMARK    5  A    between atoms: C_12  and  C_15
REMARK                            x       y       z     vdW  Elec       q    Type
REMARK                         _______ _______ _______ _____ _____    ______ ____
ROOT
ATOM      1  C   UNL     1      -5.149 -16.583  18.994  0.00  0.00    +0.000 A 
ATOM      2  C   UNL     1      -5.733 -16.893  21.354  0.00  0.00    +0.000 A 
ATOM      3  C   UNL     1      -6.479 -16.197  18.720  0.00  0.00    +0.000 A 
ATOM      4  C   UNL     1      -4.795 -16.928  20.314  0.00  0.00    +0.000 A 
ATOM      5  C   UNL     1      -7.048 -16.519  21.066  0.00  0.00    +0.000 A 
ATOM      6  C   UNL     1      -7.415 -16.173  19.764  0.00  0.00    +0.000 A 
ATOM      7  C   UNL     1      -6.919 -15.823  17.330  0.00  0.00    +0.000 C 
ENDROOT
BRANCH   1  11
ATOM      8  F   UNL     1      -3.899 -15.427  17.308  0.00  0.00    +0.000 F 
ATOM      9  F   UNL     1      -2.870 -17.029  18.349  0.00  0.00    +0.000 F 
ATOM     10  F   UNL     1      -4.418 -17.501  16.901  0.00  0.00    +0.000 F 
ATOM     11  C   UNL     1      -4.099 -16.637  17.905  0.00  0.00    +0.000 C 
ENDBRANCH   1  11
BRANCH   2  12
ATOM     12  C   UNL     1      -5.338 -17.284  22.759  0.00  0.00    +0.000 C 
BRANCH  12  14
ATOM     13  O   UNL     1      -6.746 -16.240  24.485  0.00  0.00    +0.000 OA
ATOM     14  C   UNL     1      -5.732 -16.274  23.808  0.00  0.00    +0.000 C 
BRANCH  14  15
ATOM     15  O   UNL     1      -4.782 -15.328  23.975  0.00  0.00    +0.000 OA
ATOM     16  H   UNL     1      -5.186 -14.522  23.588  0.00  0.00    +0.000 HD
ENDBRANCH  14  15
ENDBRANCH  12  14
ENDBRANCH   2  12
TORSDOF 4
ENDMDL
MODEL 6
REMARK VINA RESULT:      -4.4     15.873     17.215
REMARK  Name = 
REMARK  5 active torsions:
REMARK  status: ('A' for Active; 'I' for Inactive)
REMARK    1  A    between atoms: O_4  and  C_15
REMARK    2  A    between atoms: C_6  and  C_13
REMARK    3  A    between atoms: C_7  and  C_12
REMARK    4  A    between atoms: C_8  and  C_14
REMARK    5  A    between atoms: C_12  and  C_15
REMARK                            x       y       z     vdW  Elec       q    Type
REMARK                         _______ _______ _______ _____ _____    ______ ____
ROOT
ATOM      1  C   UNL     1       4.365   1.398  17.222  0.00  0.00    +0.000 A 
ATOM      2  C   UNL     1       3.360  -0.744  17.860  0.00  0.00    +0.000 A 
ATOM      3  C   UNL     1       3.843   1.988  18.393  0.00  0.00    +0.000 A 
ATOM      4  C   UNL     1       4.113   0.034  16.971  0.00  0.00    +0.000 A 
ATOM      5  C   UNL     1       2.839  -0.143  19.010  0.00  0.00    +0.000 A 
ATOM      6  C   UNL     1       3.080   1.206  19.274  0.00  0.00    +0.000 A 
ATOM      7  C   UNL     1       4.072   3.441  18.713  0.00  0.00    +0.000 C 
ENDROOT
BRANCH   1  11
ATOM      8  F   UNL     1       6.330   2.695  16.778  0.00  0.00    +0.000 F 
ATOM      9  F   UNL     1       5.587   1.474  15.146  0.00  0.00    +0.000 F 
ATOM     10  F   UNL     1       4.513   3.269  15.727  0.00  0.00    +0.000 F 
ATOM     11  C   UNL     1       5.185   2.197  16.231  0.00  0.00    +0.000 C 
ENDBRANCH   1  11
BRANCH   2  12
ATOM     12  C   UNL     1       3.086  -2.200  17.565  0.00  0.00    +0.000 C 
BRANCH  12  14
ATOM     13  O   UNL     1       4.295  -3.296  19.405  0.00  0.00    +0.000 OA
ATOM     14  C   UNL     1       3.283  -3.112  18.751  0.00  0.00    +0.000 C 
BRANCH  14  15
ATOM     15  O   UNL     1       2.143  -3.758  19.080  0.00  0.00    +0.000 OA
ATOM     16  H   UNL     1       2.400  -4.705  19.063  0.00  0.00    +0.000 HD
ENDBRANCH  14  15
ENDBRANCH  12  14
ENDBRANCH   2  12
TORSDOF 4
ENDMDL
MODEL 7
REMARK VINA RESULT:      -4.4     12.298     13.255
REMARK  Name = 
REMARK  5 active torsions:
REMARK  status: ('A' for Active; 'I' for Inactive)
REMARK    1  A    between atoms: O_4  and  C_15
REMARK    2  A    between atoms: C_6  and  C_13
REMARK    3  A    between atoms: C_7  and  C_12
REMARK    4  A    between atoms: C_8  and  C_14
REMARK    5  A    between atoms: C_12  and  C_15
REMARK                            x       y       z     vdW  Elec       q    Type
REMARK                         _______ _______ _______ _____ _____    ______ ____
ROOT
ATOM      1  C   UNL     1      -6.306 -16.539  19.572  0.00  0.00    +0.000 A 
ATOM      2  C   UNL     1      -8.085 -16.413  21.251  0.00  0.00    +0.000 A 
ATOM      3  C   UNL     1      -5.377 -16.861  20.585  0.00  0.00    +0.000 A 
ATOM      4  C   UNL     1      -7.652 -16.318  19.923  0.00  0.00    +0.000 A 
ATOM      5  C   UNL     1      -7.152 -16.721  22.246  0.00  0.00    +0.000 A 
ATOM      6  C   UNL     1      -5.815 -16.944  21.915  0.00  0.00    +0.000 A 
ATOM      7  C   UNL     1      -3.924 -17.102  20.274  0.00  0.00    +0.000 C 
ENDROOT
BRANCH   1  11
ATOM      8  F   UNL     1      -4.904 -15.501  17.928  0.00  0.00    +0.000 F 
ATOM      9  F   UNL     1      -5.397 -17.588  17.601  0.00  0.00    +0.000 F 
ATOM     10  F   UNL     1      -6.911 -16.061  17.299  0.00  0.00    +0.000 F 
ATOM     11  C   UNL     1      -5.887 -16.426  18.121  0.00  0.00    +0.000 C 
ENDBRANCH   1  11
BRANCH   2  12
ATOM     12  C   UNL     1      -9.530 -16.154  21.610  0.00  0.00    +0.000 C 
BRANCH  12  14
ATOM     13  O   UNL     1     -10.132 -17.757  23.376  0.00  0.00    +0.000 OA
ATOM     14  C   UNL     1      -9.909 -16.620  22.994  0.00  0.00    +0.000 C 
BRANCH  14  15
ATOM     15  O   UNL     1      -9.972 -15.592  23.868  0.00  0.00    +0.000 OA
ATOM     16  H   UNL     1     -10.588 -14.960  23.439  0.00  0.00    +0.000 HD
ENDBRANCH  14  15
ENDBRANCH  12  14
ENDBRANCH   2  12
TORSDOF 4
ENDMDL
MODEL 8
REMARK VINA RESULT:      -4.3     18.107     19.664
REMARK  Name = 
REMARK  5 active torsions:
REMARK  status: ('A' for Active; 'I' for Inactive)
REMARK    1  A    between atoms: O_4  and  C_15
REMARK    2  A    between atoms: C_6  and  C_13
REMARK    3  A    between atoms: C_7  and  C_12
REMARK    4  A    between atoms: C_8  and  C_14
REMARK    5  A    between atoms: C_12  and  C_15
REMARK                            x       y       z     vdW  Elec       q    Type
REMARK                         _______ _______ _______ _____ _____    ______ ____
ROOT
ATOM      1  C   UNL     1     -10.886 -16.991  10.344  0.00  0.00    +0.000 A 
ATOM      2  C   UNL     1     -12.304 -17.156  12.336  0.00  0.00    +0.000 A 
ATOM      3  C   UNL     1     -11.022 -18.381  10.137  0.00  0.00    +0.000 A 
ATOM      4  C   UNL     1     -11.532 -16.397  11.447  0.00  0.00    +0.000 A 
ATOM      5  C   UNL     1     -12.420 -18.533  12.125  0.00  0.00    +0.000 A 
ATOM      6  C   UNL     1     -11.788 -19.137  11.037  0.00  0.00    +0.000 A 
ATOM      7  C   UNL     1     -10.351 -19.074   8.981  0.00  0.00    +0.000 C 
ENDROOT
BRANCH   1  11
ATOM      8  F   UNL     1      -9.866 -14.869   9.896  0.00  0.00    +0.000 F 
ATOM      9  F   UNL     1      -8.815 -16.622   9.169  0.00  0.00    +0.000 F 
ATOM     10  F   UNL     1     -10.638 -15.972   8.186  0.00  0.00    +0.000 F 
ATOM     11  C   UNL     1     -10.063 -16.128   9.411  0.00  0.00    +0.000 C 
ENDBRANCH   1  11
BRANCH   2  12
ATOM     12  C   UNL     1     -12.973 -16.504  13.523  0.00  0.00    +0.000 C 
BRANCH  12  14
ATOM     13  O   UNL     1     -15.273 -16.077  12.761  0.00  0.00    +0.000 OA
ATOM     14  C   UNL     1     -14.191 -15.687  13.165  0.00  0.00    +0.000 C 
BRANCH  14  15
ATOM     15  O   UNL     1     -13.983 -14.367  13.363  0.00  0.00    +0.000 OA
ATOM     16  H   UNL     1     -14.178 -13.968  12.487  0.00  0.00    +0.000 HD
ENDBRANCH  14  15
ENDBRANCH  12  14
ENDBRANCH   2  12
TORSDOF 4
ENDMDL
MODEL 9
REMARK VINA RESULT:      -4.3      4.182      5.538
REMARK  Name = 
REMARK  5 active torsions:
REMARK  status: ('A' for Active; 'I' for Inactive)
REMARK    1  A    between atoms: O_4  and  C_15
REMARK    2  A    between atoms: C_6  and  C_13
REMARK    3  A    between atoms: C_7  and  C_12
REMARK    4  A    between atoms: C_8  and  C_14
REMARK    5  A    between atoms: C_12  and  C_15
REMARK                            x       y       z     vdW  Elec       q    Type
REMARK                         _______ _______ _______ _____ _____    ______ ____
ROOT
ATOM      1  C   UNL     1     -11.776  -8.181  26.802  0.00  0.00    +0.000 A 
ATOM      2  C   UNL     1      -9.444  -7.456  26.607  0.00  0.00    +0.000 A 
ATOM      3  C   UNL     1     -12.084  -6.993  27.500  0.00  0.00    +0.000 A 
ATOM      4  C   UNL     1     -10.454  -8.395  26.364  0.00  0.00    +0.000 A 
ATOM      5  C   UNL     1      -9.760  -6.290  27.310  0.00  0.00    +0.000 A 
ATOM      6  C   UNL     1     -11.065  -6.061  27.748  0.00  0.00    +0.000 A 
ATOM      7  C   UNL     1     -13.475  -6.709  27.997  0.00  0.00    +0.000 C 
ENDROOT
BRANCH   1  11
ATOM      8  F   UNL     1     -13.907  -8.718  25.844  0.00  0.00    +0.000 F 
ATOM      9  F   UNL     1     -12.384 -10.261  25.747  0.00  0.00    +0.000 F 
ATOM     10  F   UNL     1     -13.335  -9.800  27.644  0.00  0.00    +0.000 F 
ATOM     11  C   UNL     1     -12.833  -9.226  26.514  0.00  0.00    +0.000 C 
ENDBRANCH   1  11
BRANCH   2  12
ATOM     12  C   UNL     1      -8.028  -7.713  26.146  0.00  0.00    +0.000 C 
BRANCH  12  14
ATOM     13  O   UNL     1      -7.352  -5.680  24.937  0.00  0.00    +0.000 OA
ATOM     14  C   UNL     1      -7.238  -6.457  25.870  0.00  0.00    +0.000 C 
BRANCH  14  15
ATOM     15  O   UNL     1      -6.319  -6.223  26.832  0.00  0.00    +0.000 OA
ATOM     16  H   UNL     1      -6.294  -5.243  26.895  0.00  0.00    +0.000 HD
ENDBRANCH  14  15
ENDBRANCH  12  14
ENDBRANCH   2  12
TORSDOF 4
ENDMDL
