MODEL 1
REMARK VINA RESULT:      -5.9      0.000      0.000
REMARK  Name = OTSSP167.pdbqt.pdb
REMARK  7 active torsions:
REMARK  status: ('A' for Active; 'I' for Inactive)
REMARK    1  A    between atoms: C_5  and  N_19
REMARK    2  A    between atoms: C_7  and  C_31
REMARK    3  A    between atoms: C_11  and  C_13
REMARK    4  A    between atoms: C_18  and  O_34
REMARK    5  A    between atoms: N_19  and  C_21
REMARK    6  A    between atoms: C_24  and  C_27
REMARK    7  A    between atoms: C_27  and  N_28
REMARK                            x       y       z     vdW  Elec       q    Type
REMARK                         _______ _______ _______ _____ _____    ______ ____
ROOT
ATOM      1  N   UNL     1      -1.985  -5.825  -2.012  0.00  0.00    +0.000 NA
ATOM      2  N   UNL     1      -5.201  -6.103  -0.299  0.00  0.00    +0.000 NA
ATOM      3  C   UNL     1      -3.512  -4.075  -1.279  0.00  0.00    +0.000 A 
ATOM      4  C   UNL     1      -3.148  -5.440  -1.428  0.00  0.00    +0.000 A 
ATOM      5  C   UNL     1      -4.727  -3.776  -0.629  0.00  0.00    +0.000 A 
ATOM      6  C   UNL     1      -4.042  -6.400  -0.909  0.00  0.00    +0.000 A 
ATOM      7  C   UNL     1      -5.520  -4.803  -0.168  0.00  0.00    +0.000 A 
ATOM      8  C   UNL     1      -3.692  -7.732  -1.040  0.00  0.00    +0.000 A 
ATOM      9  C   UNL     1      -1.671  -7.138  -2.135  0.00  0.00    +0.000 A 
ATOM     10  C   UNL     1      -2.510  -8.123  -1.652  0.00  0.00    +0.000 A 
ENDROOT
BRANCH   9  13
ATOM     11 CL   UNL     1       2.044 -10.583  -3.147  0.00  0.00    +0.000 Cl
ATOM     12 CL   UNL     1       2.212  -5.511  -5.133  0.00  0.00    +0.000 Cl
ATOM     13  C   UNL     1      -0.411  -7.439  -2.818  0.00  0.00    +0.000 A 
ATOM     14  C   UNL     1       0.262  -6.477  -3.580  0.00  0.00    +0.000 A 
ATOM     15  C   UNL     1       0.176  -8.707  -2.717  0.00  0.00    +0.000 A 
ATOM     16  C   UNL     1       1.383  -9.005  -3.344  0.00  0.00    +0.000 A 
ATOM     17  C   UNL     1       1.469  -6.766  -4.218  0.00  0.00    +0.000 A 
ATOM     18  C   UNL     1       2.037  -8.035  -4.101  0.00  0.00    +0.000 A 
BRANCH  18  19
ATOM     19  O   UNL     1       3.224  -8.312  -4.726  0.00  0.00    +0.000 OA
ATOM     20  H   UNL     1       3.549  -7.493  -5.145  0.00  0.00    +0.000 HD
ENDBRANCH  18  19
ENDBRANCH   9  13
BRANCH   5  21
ATOM     21  C   UNL     1      -5.182  -2.410  -0.378  0.00  0.00    +0.000 C 
ATOM     22  O   UNL     1      -4.450  -1.453  -0.187  0.00  0.00    +0.000 OA
ATOM     23  C   UNL     1      -6.623  -2.015  -0.273  0.00  0.00    +0.000 C 
ENDBRANCH   5  21
BRANCH   3  24
ATOM     24  N   UNL     1      -2.755  -3.000  -1.846  0.00  0.00    +0.000 N 
ATOM     25  H   UNL     1      -1.880  -2.792  -1.357  0.00  0.00    +0.000 HD
BRANCH  24  26
ATOM     26  C   UNL     1      -2.778  -2.547  -3.136  0.00  0.00    +0.000 A 
ATOM     27  C   UNL     1      -1.595  -2.746  -3.934  0.00  0.00    +0.000 A 
ATOM     28  C   UNL     1      -0.980  -1.725  -4.926  0.00  0.00    +0.000 A 
ATOM     29  C   UNL     1      -1.506  -0.407  -5.188  0.00  0.00    +0.000 A 
ATOM     30  C   UNL     1      -2.676  -0.196  -4.372  0.00  0.00    +0.000 A 
ATOM     31  C   UNL     1      -3.286  -1.219  -3.381  0.00  0.00    +0.000 A 
BRANCH  29  32
ATOM     32  C   UNL     1      -1.039   0.478  -6.184  0.00  0.00    +0.000 C 
BRANCH  32  33
ATOM     33  N   UNL     1      -0.556   1.373  -7.221  0.00  0.00    +0.000 NA
ATOM     34  C   UNL     1       0.733   0.869  -7.665  0.00  0.00    +0.000 C 
ATOM     35  C   UNL     1      -0.317   2.666  -6.600  0.00  0.00    +0.000 C 
ENDBRANCH  32  33
ENDBRANCH  29  32
ENDBRANCH  24  26
ENDBRANCH   3  24
TORSDOF 7
ENDMDL
MODEL 2
REMARK VINA RESULT:      -5.7     30.960     33.568
REMARK  Name = OTSSP167.pdbqt.pdb
REMARK  7 active torsions:
REMARK  status: ('A' for Active; 'I' for Inactive)
REMARK    1  A    between atoms: C_5  and  N_19
REMARK    2  A    between atoms: C_7  and  C_31
REMARK    3  A    between atoms: C_11  and  C_13
REMARK    4  A    between atoms: C_18  and  O_34
REMARK    5  A    between atoms: N_19  and  C_21
REMARK    6  A    between atoms: C_24  and  C_27
REMARK    7  A    between atoms: C_27  and  N_28
REMARK                            x       y       z     vdW  Elec       q    Type
REMARK                         _______ _______ _______ _____ _____    ______ ____
ROOT
ATOM      1  N   UNL     1     -11.497  -8.538  27.318  0.00  0.00    +0.000 NA
ATOM      2  N   UNL     1     -15.128  -8.273  27.620  0.00  0.00    +0.000 NA
ATOM      3  C   UNL     1     -13.205 -10.257  27.081  0.00  0.00    +0.000 A 
ATOM      4  C   UNL     1     -12.797  -8.921  27.341  0.00  0.00    +0.000 A 
ATOM      5  C   UNL     1     -14.584 -10.549  27.097  0.00  0.00    +0.000 A 
ATOM      6  C   UNL     1     -13.818  -7.981  27.600  0.00  0.00    +0.000 A 
ATOM      7  C   UNL     1     -15.486  -9.545  27.367  0.00  0.00    +0.000 A 
ATOM      8  C   UNL     1     -13.433  -6.675  27.844  0.00  0.00    +0.000 A 
ATOM      9  C   UNL     1     -11.147  -7.253  27.570  0.00  0.00    +0.000 A 
ATOM     10  C   UNL     1     -12.100  -6.289  27.836  0.00  0.00    +0.000 A 
ENDROOT
BRANCH   9  13
ATOM     11 CL   UNL     1      -7.283  -4.367  25.715  0.00  0.00    +0.000 Cl
ATOM     12 CL   UNL     1      -6.401  -8.408  29.262  0.00  0.00    +0.000 Cl
ATOM     13  C   UNL     1      -9.711  -6.960  27.558  0.00  0.00    +0.000 A 
ATOM     14  C   UNL     1      -8.801  -7.706  28.315  0.00  0.00    +0.000 A 
ATOM     15  C   UNL     1      -9.196  -5.924  26.768  0.00  0.00    +0.000 A 
ATOM     16  C   UNL     1      -7.832  -5.644  26.730  0.00  0.00    +0.000 A 
ATOM     17  C   UNL     1      -7.433  -7.431  28.290  0.00  0.00    +0.000 A 
ATOM     18  C   UNL     1      -6.941  -6.396  27.494  0.00  0.00    +0.000 A 
BRANCH  18  19
ATOM     19  O   UNL     1      -5.597  -6.133  27.470  0.00  0.00    +0.000 OA
ATOM     20  H   UNL     1      -5.267  -6.136  28.388  0.00  0.00    +0.000 HD
ENDBRANCH  18  19
ENDBRANCH   9  13
BRANCH   5  21
ATOM     21  C   UNL     1     -15.122 -11.875  26.799  0.00  0.00    +0.000 C 
ATOM     22  O   UNL     1     -14.910 -12.880  27.456  0.00  0.00    +0.000 OA
ATOM     23  C   UNL     1     -15.974 -12.182  25.605  0.00  0.00    +0.000 C 
ENDBRANCH   5  21
BRANCH   3  24
ATOM     24  N   UNL     1     -12.278 -11.334  26.906  0.00  0.00    +0.000 N 
ATOM     25  H   UNL     1     -11.968 -11.475  25.940  0.00  0.00    +0.000 HD
BRANCH  24  26
ATOM     26  C   UNL     1     -11.426 -11.867  27.833  0.00  0.00    +0.000 A 
ATOM     27  C   UNL     1     -11.754 -11.683  29.224  0.00  0.00    +0.000 A 
ATOM     28  C   UNL     1     -10.756 -11.349  30.362  0.00  0.00    +0.000 A 
ATOM     29  C   UNL     1      -9.336 -11.162  30.186  0.00  0.00    +0.000 A 
ATOM     30  C   UNL     1      -9.009 -11.320  28.791  0.00  0.00    +0.000 A 
ATOM     31  C   UNL     1     -10.010 -11.653  27.658  0.00  0.00    +0.000 A 
BRANCH  29  32
ATOM     32  C   UNL     1      -8.398 -10.993  31.228  0.00  0.00    +0.000 C 
BRANCH  32  33
ATOM     33  N   UNL     1      -7.446 -10.825  32.312  0.00  0.00    +0.000 NA
ATOM     34  C   UNL     1      -7.477  -9.426  32.706  0.00  0.00    +0.000 C 
ATOM     35  C   UNL     1      -6.122 -11.086  31.772  0.00  0.00    +0.000 C 
ENDBRANCH  32  33
ENDBRANCH  29  32
ENDBRANCH  24  26
ENDBRANCH   3  24
TORSDOF 7
ENDMDL
MODEL 3
REMARK VINA RESULT:      -5.7     29.727     32.867
REMARK  Name = OTSSP167.pdbqt.pdb
REMARK  7 active torsions:
REMARK  status: ('A' for Active; 'I' for Inactive)
REMARK    1  A    between atoms: C_5  and  N_19
REMARK    2  A    between atoms: C_7  and  C_31
REMARK    3  A    between atoms: C_11  and  C_13
REMARK    4  A    between atoms: C_18  and  O_34
REMARK    5  A    between atoms: N_19  and  C_21
REMARK    6  A    between atoms: C_24  and  C_27
REMARK    7  A    between atoms: C_27  and  N_28
REMARK                            x       y       z     vdW  Elec       q    Type
REMARK                         _______ _______ _______ _____ _____    ______ ____
ROOT
ATOM      1  N   UNL     1      -9.418  -3.883  27.275  0.00  0.00    +0.000 NA
ATOM      2  N   UNL     1      -7.321  -6.268  25.469  0.00  0.00    +0.000 NA
ATOM      3  C   UNL     1      -9.206  -6.292  27.559  0.00  0.00    +0.000 A 
ATOM      4  C   UNL     1      -8.876  -5.072  26.911  0.00  0.00    +0.000 A 
ATOM      5  C   UNL     1      -8.565  -7.472  27.129  0.00  0.00    +0.000 A 
ATOM      6  C   UNL     1      -7.920  -5.138  25.875  0.00  0.00    +0.000 A 
ATOM      7  C   UNL     1      -7.650  -7.409  26.101  0.00  0.00    +0.000 A 
ATOM      8  C   UNL     1      -7.583  -3.954  25.245  0.00  0.00    +0.000 A 
ATOM      9  C   UNL     1      -9.076  -2.739  26.634  0.00  0.00    +0.000 A 
ATOM     10  C   UNL     1      -8.151  -2.741  25.608  0.00  0.00    +0.000 A 
ENDROOT
BRANCH   9  13
ATOM     11 CL   UNL     1     -11.824  -0.360  30.305  0.00  0.00    +0.000 Cl
ATOM     12 CL   UNL     1     -10.470   2.142  25.658  0.00  0.00    +0.000 Cl
ATOM     13  C   UNL     1      -9.753  -1.520  27.083  0.00  0.00    +0.000 A 
ATOM     14  C   UNL     1      -9.808  -0.370  26.287  0.00  0.00    +0.000 A 
ATOM     15  C   UNL     1     -10.387  -1.470  28.332  0.00  0.00    +0.000 A 
ATOM     16  C   UNL     1     -11.052  -0.326  28.767  0.00  0.00    +0.000 A 
ATOM     17  C   UNL     1     -10.465   0.783  26.715  0.00  0.00    +0.000 A 
ATOM     18  C   UNL     1     -11.093   0.810  27.961  0.00  0.00    +0.000 A 
BRANCH  18  19
ATOM     19  O   UNL     1     -11.741   1.944  28.375  0.00  0.00    +0.000 OA
ATOM     20  H   UNL     1     -11.747   2.581  27.636  0.00  0.00    +0.000 HD
ENDBRANCH  18  19
ENDBRANCH   9  13
BRANCH   5  21
ATOM     21  C   UNL     1      -8.790  -8.775  27.750  0.00  0.00    +0.000 C 
ATOM     22  O   UNL     1      -8.311  -9.136  28.812  0.00  0.00    +0.000 OA
ATOM     23  C   UNL     1      -9.610  -9.866  27.131  0.00  0.00    +0.000 C 
ENDBRANCH   5  21
BRANCH   3  24
ATOM     24  N   UNL     1     -10.232  -6.394  28.554  0.00  0.00    +0.000 N 
ATOM     25  H   UNL     1     -10.080  -5.809  29.381  0.00  0.00    +0.000 HD
BRANCH  24  26
ATOM     26  C   UNL     1     -11.537  -6.760  28.378  0.00  0.00    +0.000 A 
ATOM     27  C   UNL     1     -12.049  -7.822  29.206  0.00  0.00    +0.000 A 
ATOM     28  C   UNL     1     -12.989  -8.967  28.747  0.00  0.00    +0.000 A 
ATOM     29  C   UNL     1     -13.485  -9.139  27.403  0.00  0.00    +0.000 A 
ATOM     30  C   UNL     1     -12.953  -8.092  26.566  0.00  0.00    +0.000 A 
ATOM     31  C   UNL     1     -12.013  -6.952  27.029  0.00  0.00    +0.000 A 
BRANCH  29  32
ATOM     32  C   UNL     1     -14.447 -10.092  27.001  0.00  0.00    +0.000 C 
BRANCH  32  33
ATOM     33  N   UNL     1     -15.445 -11.070  26.605  0.00  0.00    +0.000 NA
ATOM     34  C   UNL     1     -16.715 -10.649  27.173  0.00  0.00    +0.000 C 
ATOM     35  C   UNL     1     -15.092 -12.330  27.238  0.00  0.00    +0.000 C 
ENDBRANCH  32  33
ENDBRANCH  29  32
ENDBRANCH  24  26
ENDBRANCH   3  24
TORSDOF 7
ENDMDL
MODEL 4
REMARK VINA RESULT:      -5.5      2.006      2.506
REMARK  Name = OTSSP167.pdbqt.pdb
REMARK  7 active torsions:
REMARK  status: ('A' for Active; 'I' for Inactive)
REMARK    1  A    between atoms: C_5  and  N_19
REMARK    2  A    between atoms: C_7  and  C_31
REMARK    3  A    between atoms: C_11  and  C_13
REMARK    4  A    between atoms: C_18  and  O_34
REMARK    5  A    between atoms: N_19  and  C_21
REMARK    6  A    between atoms: C_24  and  C_27
REMARK    7  A    between atoms: C_27  and  N_28
REMARK                            x       y       z     vdW  Elec       q    Type
REMARK                         _______ _______ _______ _____ _____    ______ ____
ROOT
ATOM      1  N   UNL     1      -1.693  -5.945  -2.180  0.00  0.00    +0.000 NA
ATOM      2  N   UNL     1      -4.976  -6.147  -0.588  0.00  0.00    +0.000 NA
ATOM      3  C   UNL     1      -3.208  -4.160  -1.512  0.00  0.00    +0.000 A 
ATOM      4  C   UNL     1      -2.868  -5.533  -1.642  0.00  0.00    +0.000 A 
ATOM      5  C   UNL     1      -4.440  -3.832  -0.910  0.00  0.00    +0.000 A 
ATOM      6  C   UNL     1      -3.802  -6.471  -1.153  0.00  0.00    +0.000 A 
ATOM      7  C   UNL     1      -5.272  -4.839  -0.475  0.00  0.00    +0.000 A 
ATOM      8  C   UNL     1      -3.476  -7.811  -1.265  0.00  0.00    +0.000 A 
ATOM      9  C   UNL     1      -1.403  -7.265  -2.285  0.00  0.00    +0.000 A 
ATOM     10  C   UNL     1      -2.281  -8.230  -1.831  0.00  0.00    +0.000 A 
ENDROOT
BRANCH   9  13
ATOM     11 CL   UNL     1       2.252 -10.806  -3.178  0.00  0.00    +0.000 Cl
ATOM     12 CL   UNL     1       2.645  -5.724  -5.106  0.00  0.00    +0.000 Cl
ATOM     13  C   UNL     1      -0.124  -7.596  -2.919  0.00  0.00    +0.000 A 
ATOM     14  C   UNL     1       0.606  -6.647  -3.644  0.00  0.00    +0.000 A 
ATOM     15  C   UNL     1       0.421  -8.882  -2.806  0.00  0.00    +0.000 A 
ATOM     16  C   UNL     1       1.645  -9.209  -3.386  0.00  0.00    +0.000 A 
ATOM     17  C   UNL     1       1.830  -6.966  -4.235  0.00  0.00    +0.000 A 
ATOM     18  C   UNL     1       2.357  -8.251  -4.107  0.00  0.00    +0.000 A 
BRANCH  18  19
ATOM     19  O   UNL     1       3.560  -8.557  -4.685  0.00  0.00    +0.000 OA
ATOM     20  H   UNL     1       3.925  -7.744  -5.083  0.00  0.00    +0.000 HD
ENDBRANCH  18  19
ENDBRANCH   9  13
BRANCH   5  21
ATOM     21  C   UNL     1      -4.875  -2.455  -0.681  0.00  0.00    +0.000 C 
ATOM     22  O   UNL     1      -4.132  -1.518  -0.441  0.00  0.00    +0.000 OA
ATOM     23  C   UNL     1      -6.310  -2.023  -0.663  0.00  0.00    +0.000 C 
ENDBRANCH   5  21
BRANCH   3  24
ATOM     24  N   UNL     1      -2.408  -3.104  -2.054  0.00  0.00    +0.000 N 
ATOM     25  H   UNL     1      -1.546  -2.915  -1.535  0.00  0.00    +0.000 HD
BRANCH  24  26
ATOM     26  C   UNL     1      -2.375  -2.655  -3.345  0.00  0.00    +0.000 A 
ATOM     27  C   UNL     1      -3.026  -1.402  -3.633  0.00  0.00    +0.000 A 
ATOM     28  C   UNL     1      -3.887  -1.085  -4.882  0.00  0.00    +0.000 A 
ATOM     29  C   UNL     1      -4.172  -2.017  -5.947  0.00  0.00    +0.000 A 
ATOM     30  C   UNL     1      -3.543  -3.279  -5.649  0.00  0.00    +0.000 A 
ATOM     31  C   UNL     1      -2.685  -3.591  -4.398  0.00  0.00    +0.000 A 
BRANCH  29  32
ATOM     32  C   UNL     1      -4.837  -1.703  -7.152  0.00  0.00    +0.000 C 
BRANCH  32  33
ATOM     33  N   UNL     1      -5.509  -1.366  -8.395  0.00  0.00    +0.000 NA
ATOM     34  C   UNL     1      -5.616   0.083  -8.452  0.00  0.00    +0.000 C 
ATOM     35  C   UNL     1      -6.862  -1.890  -8.312  0.00  0.00    +0.000 C 
ENDBRANCH  32  33
ENDBRANCH  29  32
ENDBRANCH  24  26
ENDBRANCH   3  24
TORSDOF 7
ENDMDL
MODEL 5
REMARK VINA RESULT:      -5.5     17.382     20.861
REMARK  Name = OTSSP167.pdbqt.pdb
REMARK  7 active torsions:
REMARK  status: ('A' for Active; 'I' for Inactive)
REMARK    1  A    between atoms: C_5  and  N_19
REMARK    2  A    between atoms: C_7  and  C_31
REMARK    3  A    between atoms: C_11  and  C_13
REMARK    4  A    between atoms: C_18  and  O_34
REMARK    5  A    between atoms: N_19  and  C_21
REMARK    6  A    between atoms: C_24  and  C_27
REMARK    7  A    between atoms: C_27  and  N_28
REMARK                            x       y       z     vdW  Elec       q    Type
REMARK                         _______ _______ _______ _____ _____    ______ ____
ROOT
ATOM      1  N   UNL     1     -13.688 -15.759   8.917  0.00  0.00    +0.000 NA
ATOM      2  N   UNL     1     -16.666 -16.387  10.939  0.00  0.00    +0.000 NA
ATOM      3  C   UNL     1     -13.912 -15.953  11.334  0.00  0.00    +0.000 A 
ATOM      4  C   UNL     1     -14.454 -15.945  10.021  0.00  0.00    +0.000 A 
ATOM      5  C   UNL     1     -14.787 -16.186  12.416  0.00  0.00    +0.000 A 
ATOM      6  C   UNL     1     -15.841 -16.173   9.901  0.00  0.00    +0.000 A 
ATOM      7  C   UNL     1     -16.126 -16.392  12.172  0.00  0.00    +0.000 A 
ATOM      8  C   UNL     1     -16.377 -16.179   8.626  0.00  0.00    +0.000 A 
ATOM      9  C   UNL     1     -14.241 -15.760   7.680  0.00  0.00    +0.000 A 
ATOM     10  C   UNL     1     -15.594 -15.972   7.500  0.00  0.00    +0.000 A 
ENDROOT
BRANCH   9  13
ATOM     11 CL   UNL     1     -13.649 -14.557   2.690  0.00  0.00    +0.000 Cl
ATOM     12 CL   UNL     1      -9.381 -15.535   5.934  0.00  0.00    +0.000 Cl
ATOM     13  C   UNL     1     -13.325 -15.510   6.564  0.00  0.00    +0.000 A 
ATOM     14  C   UNL     1     -11.937 -15.612   6.712  0.00  0.00    +0.000 A 
ATOM     15  C   UNL     1     -13.815 -15.171   5.296  0.00  0.00    +0.000 A 
ATOM     16  C   UNL     1     -12.960 -14.947   4.219  0.00  0.00    +0.000 A 
ATOM     17  C   UNL     1     -11.071 -15.385   5.642  0.00  0.00    +0.000 A 
ATOM     18  C   UNL     1     -11.580 -15.051   4.387  0.00  0.00    +0.000 A 
BRANCH  18  19
ATOM     19  O   UNL     1     -10.726 -14.833   3.339  0.00  0.00    +0.000 OA
ATOM     20  H   UNL     1      -9.965 -14.316   3.666  0.00  0.00    +0.000 HD
ENDBRANCH  18  19
ENDBRANCH   9  13
BRANCH   5  21
ATOM     21  C   UNL     1     -14.336 -16.263  13.803  0.00  0.00    +0.000 C 
ATOM     22  O   UNL     1     -13.371 -16.899  14.192  0.00  0.00    +0.000 OA
ATOM     23  C   UNL     1     -15.040 -15.601  14.949  0.00  0.00    +0.000 C 
ENDBRANCH   5  21
BRANCH   3  24
ATOM     24  N   UNL     1     -12.545 -15.634  11.615  0.00  0.00    +0.000 N 
ATOM     25  H   UNL     1     -12.415 -14.923  12.341  0.00  0.00    +0.000 HD
BRANCH  24  26
ATOM     26  C   UNL     1     -11.443 -16.420  11.421  0.00  0.00    +0.000 A 
ATOM     27  C   UNL     1     -10.366 -15.876  10.634  0.00  0.00    +0.000 A 
ATOM     28  C   UNL     1      -9.530 -16.640   9.575  0.00  0.00    +0.000 A 
ATOM     29  C   UNL     1      -9.722 -18.024   9.214  0.00  0.00    +0.000 A 
ATOM     30  C   UNL     1     -10.817 -18.564   9.981  0.00  0.00    +0.000 A 
ATOM     31  C   UNL     1     -11.649 -17.796  11.037  0.00  0.00    +0.000 A 
BRANCH  29  32
ATOM     32  C   UNL     1      -8.885 -18.769   8.354  0.00  0.00    +0.000 C 
BRANCH  32  33
ATOM     33  N   UNL     1      -8.031 -19.526   7.456  0.00  0.00    +0.000 NA
ATOM     34  C   UNL     1      -6.676 -19.449   7.976  0.00  0.00    +0.000 C 
ATOM     35  C   UNL     1      -8.035 -18.841   6.174  0.00  0.00    +0.000 C 
ENDBRANCH  32  33
ENDBRANCH  29  32
ENDBRANCH  24  26
ENDBRANCH   3  24
TORSDOF 7
ENDMDL
MODEL 6
REMARK VINA RESULT:      -5.3     16.492     18.527
REMARK  Name = OTSSP167.pdbqt.pdb
REMARK  7 active torsions:
REMARK  status: ('A' for Active; 'I' for Inactive)
REMARK    1  A    between atoms: C_5  and  N_19
REMARK    2  A    between atoms: C_7  and  C_31
REMARK    3  A    between atoms: C_11  and  C_13
REMARK    4  A    between atoms: C_18  and  O_34
REMARK    5  A    between atoms: N_19  and  C_21
REMARK    6  A    between atoms: C_24  and  C_27
REMARK    7  A    between atoms: C_27  and  N_28
REMARK                            x       y       z     vdW  Elec       q    Type
REMARK                         _______ _______ _______ _____ _____    ______ ____
ROOT
ATOM      1  N   UNL     1       6.892  -6.939  10.531  0.00  0.00    +0.000 NA
ATOM      2  N   UNL     1       5.517  -4.251   8.474  0.00  0.00    +0.000 NA
ATOM      3  C   UNL     1       7.521  -4.590  10.422  0.00  0.00    +0.000 A 
ATOM      4  C   UNL     1       6.737  -5.698  10.006  0.00  0.00    +0.000 A 
ATOM      5  C   UNL     1       7.262  -3.333   9.838  0.00  0.00    +0.000 A 
ATOM      6  C   UNL     1       5.750  -5.452   9.028  0.00  0.00    +0.000 A 
ATOM      7  C   UNL     1       6.272  -3.218   8.888  0.00  0.00    +0.000 A 
ATOM      8  C   UNL     1       4.973  -6.523   8.624  0.00  0.00    +0.000 A 
ATOM      9  C   UNL     1       6.123  -7.973  10.110  0.00  0.00    +0.000 A 
ATOM     10  C   UNL     1       5.145  -7.794   9.151  0.00  0.00    +0.000 A 
ENDROOT
BRANCH   9  13
ATOM     11 CL   UNL     1       4.313 -12.129  12.589  0.00  0.00    +0.000 Cl
ATOM     12 CL   UNL     1       9.594 -11.596  11.354  0.00  0.00    +0.000 Cl
ATOM     13  C   UNL     1       6.405  -9.276  10.717  0.00  0.00    +0.000 A 
ATOM     14  C   UNL     1       7.701  -9.804  10.763  0.00  0.00    +0.000 A 
ATOM     15  C   UNL     1       5.378 -10.038  11.290  0.00  0.00    +0.000 A 
ATOM     16  C   UNL     1       5.631 -11.270  11.888  0.00  0.00    +0.000 A 
ATOM     17  C   UNL     1       7.964 -11.040  11.354  0.00  0.00    +0.000 A 
ATOM     18  C   UNL     1       6.928 -11.780  11.922  0.00  0.00    +0.000 A 
BRANCH  18  19
ATOM     19  O   UNL     1       7.193 -12.992  12.504  0.00  0.00    +0.000 OA
ATOM     20  H   UNL     1       6.968 -13.695  11.866  0.00  0.00    +0.000 HD
ENDBRANCH  18  19
ENDBRANCH   9  13
BRANCH   5  21
ATOM     21  C   UNL     1       7.972  -2.114  10.220  0.00  0.00    +0.000 C 
ATOM     22  O   UNL     1       9.152  -2.058  10.525  0.00  0.00    +0.000 OA
ATOM     23  C   UNL     1       7.323  -0.768  10.334  0.00  0.00    +0.000 C 
ENDBRANCH   5  21
BRANCH   3  24
ATOM     24  N   UNL     1       8.625  -4.711  11.326  0.00  0.00    +0.000 N 
ATOM     25  H   UNL     1       9.342  -3.987  11.220  0.00  0.00    +0.000 HD
BRANCH  24  26
ATOM     26  C   UNL     1       8.644  -5.320  12.550  0.00  0.00    +0.000 A 
ATOM     27  C   UNL     1       9.404  -6.537  12.677  0.00  0.00    +0.000 A 
ATOM     28  C   UNL     1       8.978  -7.803  13.465  0.00  0.00    +0.000 A 
ATOM     29  C   UNL     1       7.736  -7.949  14.185  0.00  0.00    +0.000 A 
ATOM     30  C   UNL     1       6.962  -6.742  14.038  0.00  0.00    +0.000 A 
ATOM     31  C   UNL     1       7.391  -5.480  13.248  0.00  0.00    +0.000 A 
BRANCH  29  32
ATOM     32  C   UNL     1       7.395  -9.038  15.017  0.00  0.00    +0.000 C 
BRANCH  32  33
ATOM     33  N   UNL     1       7.026 -10.153  15.871  0.00  0.00    +0.000 NA
ATOM     34  C   UNL     1       7.899 -11.266  15.535  0.00  0.00    +0.000 C 
ATOM     35  C   UNL     1       5.675 -10.547  15.510  0.00  0.00    +0.000 C 
ENDBRANCH  32  33
ENDBRANCH  29  32
ENDBRANCH  24  26
ENDBRANCH   3  24
TORSDOF 7
ENDMDL
MODEL 7
REMARK VINA RESULT:      -5.3     18.776     22.082
REMARK  Name = OTSSP167.pdbqt.pdb
REMARK  7 active torsions:
REMARK  status: ('A' for Active; 'I' for Inactive)
REMARK    1  A    between atoms: C_5  and  N_19
REMARK    2  A    between atoms: C_7  and  C_31
REMARK    3  A    between atoms: C_11  and  C_13
REMARK    4  A    between atoms: C_18  and  O_34
REMARK    5  A    between atoms: N_19  and  C_21
REMARK    6  A    between atoms: C_24  and  C_27
REMARK    7  A    between atoms: C_27  and  N_28
REMARK                            x       y       z     vdW  Elec       q    Type
REMARK                         _______ _______ _______ _____ _____    ______ ____
ROOT
ATOM      1  N   UNL     1       9.348 -13.017  12.154  0.00  0.00    +0.000 NA
ATOM      2  N   UNL     1      12.684 -11.743  11.378  0.00  0.00    +0.000 NA
ATOM      3  C   UNL     1      11.527 -14.037  12.530  0.00  0.00    +0.000 A 
ATOM      4  C   UNL     1      10.701 -12.984  12.056  0.00  0.00    +0.000 A 
ATOM      5  C   UNL     1      12.925 -13.894  12.411  0.00  0.00    +0.000 A 
ATOM      6  C   UNL     1      11.352 -11.865  11.494  0.00  0.00    +0.000 A 
ATOM      7  C   UNL     1      13.443 -12.754  11.839  0.00  0.00    +0.000 A 
ATOM      8  C   UNL     1      10.557 -10.828  11.039  0.00  0.00    +0.000 A 
ATOM      9  C   UNL     1       8.593 -11.991  11.691  0.00  0.00    +0.000 A 
ATOM     10  C   UNL     1       9.173 -10.872  11.126  0.00  0.00    +0.000 A 
ENDROOT
BRANCH   9  13
ATOM     11 CL   UNL     1       4.534 -15.187  11.761  0.00  0.00    +0.000 Cl
ATOM     12 CL   UNL     1       3.950  -9.793  12.268  0.00  0.00    +0.000 Cl
ATOM     13  C   UNL     1       7.142 -12.151  11.814  0.00  0.00    +0.000 A 
ATOM     14  C   UNL     1       6.289 -11.053  11.971  0.00  0.00    +0.000 A 
ATOM     15  C   UNL     1       6.553 -13.422  11.762  0.00  0.00    +0.000 A 
ATOM     16  C   UNL     1       5.175 -13.592  11.858  0.00  0.00    +0.000 A 
ATOM     17  C   UNL     1       4.907 -11.212  12.075  0.00  0.00    +0.000 A 
ATOM     18  C   UNL     1       4.342 -12.486  12.017  0.00  0.00    +0.000 A 
BRANCH  18  19
ATOM     19  O   UNL     1       2.983 -12.635  12.115  0.00  0.00    +0.000 OA
ATOM     20  H   UNL     1       2.559 -11.939  11.581  0.00  0.00    +0.000 HD
ENDBRANCH  18  19
ENDBRANCH   9  13
BRANCH   5  21
ATOM     21  C   UNL     1      13.873 -14.890  12.905  0.00  0.00    +0.000 C 
ATOM     22  O   UNL     1      13.922 -15.302  14.052  0.00  0.00    +0.000 OA
ATOM     23  C   UNL     1      14.953 -15.505  12.067  0.00  0.00    +0.000 C 
ENDBRANCH   5  21
BRANCH   3  24
ATOM     24  N   UNL     1      11.005 -15.274  13.028  0.00  0.00    +0.000 N 
ATOM     25  H   UNL     1      10.645 -15.228  13.985  0.00  0.00    +0.000 HD
BRANCH  24  26
ATOM     26  C   UNL     1      10.504 -16.323  12.308  0.00  0.00    +0.000 A 
ATOM     27  C   UNL     1      11.333 -16.874  11.266  0.00  0.00    +0.000 A 
ATOM     28  C   UNL     1      10.857 -17.330   9.863  0.00  0.00    +0.000 A 
ATOM     29  C   UNL     1       9.495 -17.257   9.389  0.00  0.00    +0.000 A 
ATOM     30  C   UNL     1       8.668 -16.682  10.420  0.00  0.00    +0.000 A 
ATOM     31  C   UNL     1       9.149 -16.227  11.820  0.00  0.00    +0.000 A 
BRANCH  29  32
ATOM     32  C   UNL     1       9.023 -17.792   8.171  0.00  0.00    +0.000 C 
BRANCH  32  33
ATOM     33  N   UNL     1       8.520 -18.345   6.925  0.00  0.00    +0.000 NA
ATOM     34  C   UNL     1       8.684 -19.788   6.993  0.00  0.00    +0.000 C 
ATOM     35  C   UNL     1       9.385 -17.868   5.859  0.00  0.00    +0.000 C 
ENDBRANCH  32  33
ENDBRANCH  29  32
ENDBRANCH  24  26
ENDBRANCH   3  24
TORSDOF 7
ENDMDL
MODEL 8
REMARK VINA RESULT:      -5.1     17.091     18.114
REMARK  Name = OTSSP167.pdbqt.pdb
REMARK  7 active torsions:
REMARK  status: ('A' for Active; 'I' for Inactive)
REMARK    1  A    between atoms: C_5  and  N_19
REMARK    2  A    between atoms: C_7  and  C_31
REMARK    3  A    between atoms: C_11  and  C_13
REMARK    4  A    between atoms: C_18  and  O_34
REMARK    5  A    between atoms: N_19  and  C_21
REMARK    6  A    between atoms: C_24  and  C_27
REMARK    7  A    between atoms: C_27  and  N_28
REMARK                            x       y       z     vdW  Elec       q    Type
REMARK                         _______ _______ _______ _____ _____    ______ ____
ROOT
ATOM      1  N   UNL     1       6.798  -0.724   9.751  0.00  0.00    +0.000 NA
ATOM      2  N   UNL     1       8.775   1.861   8.091  0.00  0.00    +0.000 NA
ATOM      3  C   UNL     1       6.481   1.690   9.715  0.00  0.00    +0.000 A 
ATOM      4  C   UNL     1       7.192   0.513   9.359  0.00  0.00    +0.000 A 
ATOM      5  C   UNL     1       6.954   2.927   9.230  0.00  0.00    +0.000 A 
ATOM      6  C   UNL     1       8.330   0.677   8.540  0.00  0.00    +0.000 A 
ATOM      7  C   UNL     1       8.081   2.960   8.440  0.00  0.00    +0.000 A 
ATOM      8  C   UNL     1       9.023  -0.464   8.179  0.00  0.00    +0.000 A 
ATOM      9  C   UNL     1       7.502  -1.825   9.390  0.00  0.00    +0.000 A 
ATOM     10  C   UNL     1       8.627  -1.727   8.595  0.00  0.00    +0.000 A 
ENDROOT
BRANCH   9  13
ATOM     11 CL   UNL     1       7.031  -5.040  13.407  0.00  0.00    +0.000 Cl
ATOM     12 CL   UNL     1       5.095  -6.307   8.473  0.00  0.00    +0.000 Cl
ATOM     13  C   UNL     1       7.007  -3.105   9.904  0.00  0.00    +0.000 A 
ATOM     14  C   UNL     1       6.350  -4.026   9.080  0.00  0.00    +0.000 A 
ATOM     15  C   UNL     1       7.190  -3.458  11.247  0.00  0.00    +0.000 A 
ATOM     16  C   UNL     1       6.743  -4.678  11.749  0.00  0.00    +0.000 A 
ATOM     17  C   UNL     1       5.892  -5.248   9.573  0.00  0.00    +0.000 A 
ATOM     18  C   UNL     1       6.088  -5.581  10.913  0.00  0.00    +0.000 A 
BRANCH  18  19
ATOM     19  O   UNL     1       5.640  -6.784  11.391  0.00  0.00    +0.000 OA
ATOM     20  H   UNL     1       6.180  -7.493  10.991  0.00  0.00    +0.000 HD
ENDBRANCH  18  19
ENDBRANCH   9  13
BRANCH   5  21
ATOM     21  C   UNL     1       6.279   4.196   9.492  0.00  0.00    +0.000 C 
ATOM     22  O   UNL     1       5.187   4.512   9.051  0.00  0.00    +0.000 OA
ATOM     23  C   UNL     1       6.871   5.306  10.307  0.00  0.00    +0.000 C 
ENDBRANCH   5  21
BRANCH   3  24
ATOM     24  N   UNL     1       5.373   1.687  10.622  0.00  0.00    +0.000 N 
ATOM     25  H   UNL     1       4.585   1.104  10.327  0.00  0.00    +0.000 HD
BRANCH  24  26
ATOM     26  C   UNL     1       5.388   1.943  11.964  0.00  0.00    +0.000 A 
ATOM     27  C   UNL     1       4.449   2.913  12.469  0.00  0.00    +0.000 A 
ATOM     28  C   UNL     1       4.738   3.991  13.546  0.00  0.00    +0.000 A 
ATOM     29  C   UNL     1       6.010   4.185  14.199  0.00  0.00    +0.000 A 
ATOM     30  C   UNL     1       6.958   3.232  13.678  0.00  0.00    +0.000 A 
ATOM     31  C   UNL     1       6.665   2.159  12.601  0.00  0.00    +0.000 A 
BRANCH  29  32
ATOM     32  C   UNL     1       6.250   5.067  15.276  0.00  0.00    +0.000 C 
BRANCH  32  33
ATOM     33  N   UNL     1       6.491   5.960  16.395  0.00  0.00    +0.000 NA
ATOM     34  C   UNL     1       5.719   5.464  17.522  0.00  0.00    +0.000 C 
ATOM     35  C   UNL     1       5.942   7.258  16.040  0.00  0.00    +0.000 C 
ENDBRANCH  32  33
ENDBRANCH  29  32
ENDBRANCH  24  26
ENDBRANCH   3  24
TORSDOF 7
ENDMDL
MODEL 9
REMARK VINA RESULT:      -5.0     23.619     26.195
REMARK  Name = OTSSP167.pdbqt.pdb
REMARK  7 active torsions:
REMARK  status: ('A' for Active; 'I' for Inactive)
REMARK    1  A    between atoms: C_5  and  N_19
REMARK    2  A    between atoms: C_7  and  C_31
REMARK    3  A    between atoms: C_11  and  C_13
REMARK    4  A    between atoms: C_18  and  O_34
REMARK    5  A    between atoms: N_19  and  C_21
REMARK    6  A    between atoms: C_24  and  C_27
REMARK    7  A    between atoms: C_27  and  N_28
REMARK                            x       y       z     vdW  Elec       q    Type
REMARK                         _______ _______ _______ _____ _____    ______ ____
ROOT
ATOM      1  N   UNL     1       0.154 -14.210  21.986  0.00  0.00    +0.000 NA
ATOM      2  N   UNL     1       2.272 -15.116  24.821  0.00  0.00    +0.000 NA
ATOM      3  C   UNL     1       1.649 -12.821  23.315  0.00  0.00    +0.000 A 
ATOM      4  C   UNL     1       1.032 -14.064  23.009  0.00  0.00    +0.000 A 
ATOM      5  C   UNL     1       2.573 -12.779  24.379  0.00  0.00    +0.000 A 
ATOM      6  C   UNL     1       1.396 -15.171  23.805  0.00  0.00    +0.000 A 
ATOM      7  C   UNL     1       2.844 -13.928  25.087  0.00  0.00    +0.000 A 
ATOM      8  C   UNL     1       0.810 -16.388  23.509  0.00  0.00    +0.000 A 
ATOM      9  C   UNL     1      -0.414 -15.413  21.724  0.00  0.00    +0.000 A 
ATOM     10  C   UNL     1      -0.101 -16.531  22.472  0.00  0.00    +0.000 A 
ENDROOT
BRANCH   9  13
ATOM     11 CL   UNL     1      -4.061 -18.038  19.175  0.00  0.00    +0.000 Cl
ATOM     12 CL   UNL     1      -2.500 -13.053  17.626  0.00  0.00    +0.000 Cl
ATOM     13  C   UNL     1      -1.378 -15.445  20.621  0.00  0.00    +0.000 A 
ATOM     14  C   UNL     1      -1.508 -14.378  19.724  0.00  0.00    +0.000 A 
ATOM     15  C   UNL     1      -2.199 -16.562  20.418  0.00  0.00    +0.000 A 
ATOM     16  C   UNL     1      -3.108 -16.617  19.364  0.00  0.00    +0.000 A 
ATOM     17  C   UNL     1      -2.419 -14.420  18.669  0.00  0.00    +0.000 A 
ATOM     18  C   UNL     1      -3.225 -15.544  18.483  0.00  0.00    +0.000 A 
BRANCH  18  19
ATOM     19  O   UNL     1      -4.115 -15.581  17.442  0.00  0.00    +0.000 OA
ATOM     20  H   UNL     1      -4.854 -14.979  17.649  0.00  0.00    +0.000 HD
ENDBRANCH  18  19
ENDBRANCH   9  13
BRANCH   5  21
ATOM     21  C   UNL     1       3.302 -11.570  24.754  0.00  0.00    +0.000 C 
ATOM     22  O   UNL     1       4.082 -10.970  24.032  0.00  0.00    +0.000 OA
ATOM     23  C   UNL     1       3.223 -10.931  26.107  0.00  0.00    +0.000 C 
ENDBRANCH   5  21
BRANCH   3  24
ATOM     24  N   UNL     1       1.299 -11.596  22.661  0.00  0.00    +0.000 N 
ATOM     25  H   UNL     1       1.074 -10.826  23.297  0.00  0.00    +0.000 HD
BRANCH  24  26
ATOM     26  C   UNL     1       1.658 -11.181  21.409  0.00  0.00    +0.000 A 
ATOM     27  C   UNL     1       0.617 -11.073  20.419  0.00  0.00    +0.000 A 
ATOM     28  C   UNL     1       0.724 -11.494  18.930  0.00  0.00    +0.000 A 
ATOM     29  C   UNL     1       1.896 -12.073  18.318  0.00  0.00    +0.000 A 
ATOM     30  C   UNL     1       2.930 -12.207  19.313  0.00  0.00    +0.000 A 
ATOM     31  C   UNL     1       2.818 -11.785  20.799  0.00  0.00    +0.000 A 
BRANCH  29  32
ATOM     32  C   UNL     1       2.055 -12.335  16.940  0.00  0.00    +0.000 C 
BRANCH  32  33
ATOM     33  N   UNL     1       2.204 -12.616  15.523  0.00  0.00    +0.000 NA
ATOM     34  C   UNL     1       2.890 -13.892  15.403  0.00  0.00    +0.000 C 
ATOM     35  C   UNL     1       3.088 -11.603  14.970  0.00  0.00    +0.000 C 
ENDBRANCH  32  33
ENDBRANCH  29  32
ENDBRANCH  24  26
ENDBRANCH   3  24
TORSDOF 7
ENDMDL
