MODEL 1
REMARK VINA RESULT:      -5.2      0.000      0.000
REMARK  Name = 
REMARK  0 active torsions:
REMARK  status: ('A' for Active; 'I' for Inactive)
REMARK                            x       y       z     vdW  Elec       q    Type
REMARK                         _______ _______ _______ _____ _____    ______ ____
ROOT
ATOM      1  O   UNL     1     -10.451  -8.316  29.433  0.00  0.00    +0.000 OA
ATOM      2  O   UNL     1      -9.304  -3.647  27.423  0.00  0.00    +0.000 OA
ATOM      3  N   UNL     1     -11.520  -8.809  28.737  0.00  0.00    +0.000 N 
ATOM      4  N   UNL     1      -9.907  -5.847  27.028  0.00  0.00    +0.000 N 
ATOM      5  C   UNL     1     -11.785  -8.046  27.425  0.00  0.00    +0.000 C 
ATOM      6  C   UNL     1     -10.622  -8.153  26.419  0.00  0.00    +0.000 C 
ATOM      7  C   UNL     1     -12.194  -6.585  27.649  0.00  0.00    +0.000 C 
ATOM      8  C   UNL     1      -9.430  -7.229  26.795  0.00  0.00    +0.000 C 
ATOM      9  C   UNL     1     -10.273  -9.635  26.187  0.00  0.00    +0.000 C 
ATOM     10  C   UNL     1     -10.995  -5.705  28.000  0.00  0.00    +0.000 C 
ATOM     11  C   UNL     1     -11.242 -10.262  28.415  0.00  0.00    +0.000 C 
ATOM     12  C   UNL     1     -13.337  -6.464  28.665  0.00  0.00    +0.000 C 
ATOM     13  C   UNL     1     -12.749  -8.716  29.618  0.00  0.00    +0.000 C 
ATOM     14  C   UNL     1     -10.046 -10.403  27.482  0.00  0.00    +0.000 C 
ATOM     15  C   UNL     1     -13.097  -7.268  29.938  0.00  0.00    +0.000 C 
ATOM     16  C   UNL     1      -8.333  -7.288  25.720  0.00  0.00    +0.000 C 
ATOM     17  C   UNL     1      -7.259  -6.256  26.007  0.00  0.00    +0.000 C 
ATOM     18  C   UNL     1      -9.060  -4.742  26.911  0.00  0.00    +0.000 C 
ATOM     19  C   UNL     1      -7.880  -4.879  25.976  0.00  0.00    +0.000 C 
ENDROOT
TORSDOF 0
ENDMDL
MODEL 2
REMARK VINA RESULT:      -5.1     28.406     30.066
REMARK  Name = 
REMARK  0 active torsions:
REMARK  status: ('A' for Active; 'I' for Inactive)
REMARK                            x       y       z     vdW  Elec       q    Type
REMARK                         _______ _______ _______ _____ _____    ______ ____
ROOT
ATOM      1  O   UNL     1      -2.932  -6.852  -1.231  0.00  0.00    +0.000 OA
ATOM      2  O   UNL     1      -5.515  -2.925   1.019  0.00  0.00    +0.000 OA
ATOM      3  N   UNL     1      -3.783  -7.443  -2.123  0.00  0.00    +0.000 N 
ATOM      4  N   UNL     1      -5.027  -4.078  -0.928  0.00  0.00    +0.000 N 
ATOM      5  C   UNL     1      -5.023  -6.581  -2.430  0.00  0.00    +0.000 C 
ATOM      6  C   UNL     1      -4.673  -5.239  -3.103  0.00  0.00    +0.000 C 
ATOM      7  C   UNL     1      -5.930  -6.373  -1.212  0.00  0.00    +0.000 C 
ATOM      8  C   UNL     1      -4.117  -4.199  -2.089  0.00  0.00    +0.000 C 
ATOM      9  C   UNL     1      -3.801  -5.494  -4.346  0.00  0.00    +0.000 C 
ATOM     10  C   UNL     1      -5.360  -5.333  -0.248  0.00  0.00    +0.000 C 
ATOM     11  C   UNL     1      -3.021  -7.687  -3.408  0.00  0.00    +0.000 C 
ATOM     12  C   UNL     1      -6.268  -7.701  -0.522  0.00  0.00    +0.000 C 
ATOM     13  C   UNL     1      -4.236  -8.769  -1.548  0.00  0.00    +0.000 C 
ATOM     14  C   UNL     1      -2.594  -6.376  -4.057  0.00  0.00    +0.000 C 
ATOM     15  C   UNL     1      -5.046  -8.576  -0.272  0.00  0.00    +0.000 C 
ATOM     16  C   UNL     1      -3.873  -2.845  -2.775  0.00  0.00    +0.000 C 
ATOM     17  C   UNL     1      -3.499  -1.795  -1.747  0.00  0.00    +0.000 C 
ATOM     18  C   UNL     1      -5.055  -2.935  -0.125  0.00  0.00    +0.000 C 
ATOM     19  C   UNL     1      -4.642  -1.633  -0.771  0.00  0.00    +0.000 C 
ENDROOT
TORSDOF 0
ENDMDL
MODEL 3
REMARK VINA RESULT:      -5.0     29.241     31.420
REMARK  Name = 
REMARK  0 active torsions:
REMARK  status: ('A' for Active; 'I' for Inactive)
REMARK                            x       y       z     vdW  Elec       q    Type
REMARK                         _______ _______ _______ _____ _____    ______ ____
ROOT
ATOM      1  O   UNL     1      -0.740  -4.594  -2.329  0.00  0.00    +0.000 OA
ATOM      2  O   UNL     1      -4.902  -5.382   0.704  0.00  0.00    +0.000 OA
ATOM      3  N   UNL     1      -1.089  -4.948  -3.603  0.00  0.00    +0.000 N 
ATOM      4  N   UNL     1      -4.078  -4.600  -1.312  0.00  0.00    +0.000 N 
ATOM      5  C   UNL     1      -2.611  -5.096  -3.787  0.00  0.00    +0.000 C 
ATOM      6  C   UNL     1      -3.379  -3.779  -3.557  0.00  0.00    +0.000 C 
ATOM      7  C   UNL     1      -3.211  -6.241  -2.961  0.00  0.00    +0.000 C 
ATOM      8  C   UNL     1      -3.526  -3.439  -2.047  0.00  0.00    +0.000 C 
ATOM      9  C   UNL     1      -2.777  -2.668  -4.438  0.00  0.00    +0.000 C 
ATOM     10  C   UNL     1      -3.356  -5.864  -1.487  0.00  0.00    +0.000 C 
ATOM     11  C   UNL     1      -0.580  -3.877  -4.544  0.00  0.00    +0.000 C 
ATOM     12  C   UNL     1      -2.441  -7.552  -3.166  0.00  0.00    +0.000 C 
ATOM     13  C   UNL     1      -0.422  -6.266  -3.934  0.00  0.00    +0.000 C 
ATOM     14  C   UNL     1      -1.267  -2.541  -4.287  0.00  0.00    +0.000 C 
ATOM     15  C   UNL     1      -0.931  -7.389  -3.040  0.00  0.00    +0.000 C 
ATOM     16  C   UNL     1      -4.380  -2.175  -1.854  0.00  0.00    +0.000 C 
ATOM     17  C   UNL     1      -4.662  -1.953  -0.380  0.00  0.00    +0.000 C 
ATOM     18  C   UNL     1      -4.747  -4.456  -0.095  0.00  0.00    +0.000 C 
ATOM     19  C   UNL     1      -5.437  -3.134   0.156  0.00  0.00    +0.000 C 
ENDROOT
TORSDOF 0
ENDMDL
MODEL 4
REMARK VINA RESULT:      -4.9     12.242     13.457
REMARK  Name = 
REMARK  0 active torsions:
REMARK  status: ('A' for Active; 'I' for Inactive)
REMARK                            x       y       z     vdW  Elec       q    Type
REMARK                         _______ _______ _______ _____ _____    ______ ____
ROOT
ATOM      1  O   UNL     1     -22.776  -4.289  19.972  0.00  0.00    +0.000 OA
ATOM      2  O   UNL     1     -19.421  -0.436  18.950  0.00  0.00    +0.000 OA
ATOM      3  N   UNL     1     -22.120  -5.470  19.759  0.00  0.00    +0.000 N 
ATOM      4  N   UNL     1     -19.777  -2.506  19.921  0.00  0.00    +0.000 N 
ATOM      5  C   UNL     1     -20.592  -5.297  19.658  0.00  0.00    +0.000 C 
ATOM      6  C   UNL     1     -19.958  -4.764  20.957  0.00  0.00    +0.000 C 
ATOM      7  C   UNL     1     -20.158  -4.465  18.445  0.00  0.00    +0.000 C 
ATOM      8  C   UNL     1     -20.187  -3.237  21.142  0.00  0.00    +0.000 C 
ATOM      9  C   UNL     1     -20.380  -5.652  22.142  0.00  0.00    +0.000 C 
ATOM     10  C   UNL     1     -20.382  -2.971  18.669  0.00  0.00    +0.000 C 
ATOM     11  C   UNL     1     -22.436  -6.399  20.912  0.00  0.00    +0.000 C 
ATOM     12  C   UNL     1     -20.801  -4.974  17.148  0.00  0.00    +0.000 C 
ATOM     13  C   UNL     1     -22.633  -6.077  18.470  0.00  0.00    +0.000 C 
ATOM     14  C   UNL     1     -21.887  -5.857  22.226  0.00  0.00    +0.000 C 
ATOM     15  C   UNL     1     -22.303  -5.199  17.269  0.00  0.00    +0.000 C 
ATOM     16  C   UNL     1     -19.458  -2.724  22.394  0.00  0.00    +0.000 C 
ATOM     17  C   UNL     1     -19.542  -1.211  22.468  0.00  0.00    +0.000 C 
ATOM     18  C   UNL     1     -19.422  -1.156  19.951  0.00  0.00    +0.000 C 
ATOM     19  C   UNL     1     -18.867  -0.621  21.251  0.00  0.00    +0.000 C 
ENDROOT
TORSDOF 0
ENDMDL
MODEL 5
REMARK VINA RESULT:      -4.8     21.344     24.052
REMARK  Name = 
REMARK  0 active torsions:
REMARK  status: ('A' for Active; 'I' for Inactive)
REMARK                            x       y       z     vdW  Elec       q    Type
REMARK                         _______ _______ _______ _____ _____    ______ ____
ROOT
ATOM      1  O   UNL     1       7.637  -8.908  13.219  0.00  0.00    +0.000 OA
ATOM      2  O   UNL     1       5.656 -13.705  12.753  0.00  0.00    +0.000 OA
ATOM      3  N   UNL     1       8.099  -8.535  11.987  0.00  0.00    +0.000 N 
ATOM      4  N   UNL     1       5.868 -11.586  11.847  0.00  0.00    +0.000 N 
ATOM      5  C   UNL     1       7.579  -9.439  10.853  0.00  0.00    +0.000 C 
ATOM      6  C   UNL     1       6.047  -9.386  10.693  0.00  0.00    +0.000 C 
ATOM      7  C   UNL     1       8.078 -10.885  10.957  0.00  0.00    +0.000 C 
ATOM      8  C   UNL     1       5.311 -10.215  11.783  0.00  0.00    +0.000 C 
ATOM      9  C   UNL     1       5.592  -7.923  10.545  0.00  0.00    +0.000 C 
ATOM     10  C   UNL     1       7.321 -11.673  12.026  0.00  0.00    +0.000 C 
ATOM     11  C   UNL     1       7.651  -7.112  11.728  0.00  0.00    +0.000 C 
ATOM     12  C   UNL     1       9.600 -10.950  11.138  0.00  0.00    +0.000 C 
ATOM     13  C   UNL     1       9.613  -8.590  12.006  0.00  0.00    +0.000 C 
ATOM     14  C   UNL     1       6.132  -7.016  11.643  0.00  0.00    +0.000 C 
ATOM     15  C   UNL     1      10.116 -10.011  12.222  0.00  0.00    +0.000 C 
ATOM     16  C   UNL     1       3.794 -10.220  11.534  0.00  0.00    +0.000 C 
ATOM     17  C   UNL     1       3.107 -11.170  12.496  0.00  0.00    +0.000 C 
ATOM     18  C   UNL     1       5.136 -12.660  12.358  0.00  0.00    +0.000 C 
ATOM     19  C   UNL     1       3.630 -12.569  12.263  0.00  0.00    +0.000 C 
ENDROOT
TORSDOF 0
ENDMDL
MODEL 6
REMARK VINA RESULT:      -4.8     21.465     24.165
REMARK  Name = 
REMARK  0 active torsions:
REMARK  status: ('A' for Active; 'I' for Inactive)
REMARK                            x       y       z     vdW  Elec       q    Type
REMARK                         _______ _______ _______ _____ _____    ______ ____
ROOT
ATOM      1  O   UNL     1       8.394 -12.471  13.225  0.00  0.00    +0.000 OA
ATOM      2  O   UNL     1       3.185 -12.404  13.179  0.00  0.00    +0.000 OA
ATOM      3  N   UNL     1       8.812 -12.693  11.942  0.00  0.00    +0.000 N 
ATOM      4  N   UNL     1       5.153 -11.759  12.147  0.00  0.00    +0.000 N 
ATOM      5  C   UNL     1       7.692 -12.487  10.904  0.00  0.00    +0.000 C 
ATOM      6  C   UNL     1       7.163 -11.040  10.864  0.00  0.00    +0.000 C 
ATOM      7  C   UNL     1       6.545 -13.495  11.046  0.00  0.00    +0.000 C 
ATOM      8  C   UNL     1       6.211 -10.727  12.054  0.00  0.00    +0.000 C 
ATOM      9  C   UNL     1       8.339 -10.064  10.674  0.00  0.00    +0.000 C 
ATOM     10  C   UNL     1       5.622 -13.146  12.213  0.00  0.00    +0.000 C 
ATOM     11  C   UNL     1       9.944 -11.732  11.643  0.00  0.00    +0.000 C 
ATOM     12  C   UNL     1       7.061 -14.938  11.107  0.00  0.00    +0.000 C 
ATOM     13  C   UNL     1       9.321 -14.116  11.842  0.00  0.00    +0.000 C 
ATOM     14  C   UNL     1       9.465 -10.286  11.675  0.00  0.00    +0.000 C 
ATOM     15  C   UNL     1       8.208 -15.125  12.094  0.00  0.00    +0.000 C 
ATOM     16  C   UNL     1       5.628  -9.311  11.927  0.00  0.00    +0.000 C 
ATOM     17  C   UNL     1       4.571  -9.082  12.991  0.00  0.00    +0.000 C 
ATOM     18  C   UNL     1       3.929 -11.510  12.772  0.00  0.00    +0.000 C 
ATOM     19  C   UNL     1       3.450 -10.076  12.793  0.00  0.00    +0.000 C 
ENDROOT
TORSDOF 0
ENDMDL
MODEL 7
REMARK VINA RESULT:      -4.8     24.825     26.022
REMARK  Name = 
REMARK  0 active torsions:
REMARK  status: ('A' for Active; 'I' for Inactive)
REMARK                            x       y       z     vdW  Elec       q    Type
REMARK                         _______ _______ _______ _____ _____    ______ ____
ROOT
ATOM      1  O   UNL     1     -15.088  -9.525   0.903  0.00  0.00    +0.000 OA
ATOM      2  O   UNL     1     -15.080  -7.716   5.789  0.00  0.00    +0.000 OA
ATOM      3  N   UNL     1     -14.911  -8.455   0.071  0.00  0.00    +0.000 N 
ATOM      4  N   UNL     1     -14.130  -7.642   3.680  0.00  0.00    +0.000 N 
ATOM      5  C   UNL     1     -14.419  -7.196   0.810  0.00  0.00    +0.000 C 
ATOM      6  C   UNL     1     -13.033  -7.379   1.459  0.00  0.00    +0.000 C 
ATOM      7  C   UNL     1     -15.438  -6.651   1.818  0.00  0.00    +0.000 C 
ATOM      8  C   UNL     1     -13.104  -8.206   2.775  0.00  0.00    +0.000 C 
ATOM      9  C   UNL     1     -12.029  -7.881   0.406  0.00  0.00    +0.000 C 
ATOM     10  C   UNL     1     -15.467  -7.479   3.102  0.00  0.00    +0.000 C 
ATOM     11  C   UNL     1     -13.890  -8.840  -0.979  0.00  0.00    +0.000 C 
ATOM     12  C   UNL     1     -16.827  -6.484   1.188  0.00  0.00    +0.000 C 
ATOM     13  C   UNL     1     -16.232  -8.147  -0.603  0.00  0.00    +0.000 C 
ATOM     14  C   UNL     1     -12.525  -9.104  -0.354  0.00  0.00    +0.000 C 
ATOM     15  C   UNL     1     -17.285  -7.712   0.408  0.00  0.00    +0.000 C 
ATOM     16  C   UNL     1     -11.722  -8.284   3.444  0.00  0.00    +0.000 C 
ATOM     17  C   UNL     1     -11.835  -8.940   4.807  0.00  0.00    +0.000 C 
ATOM     18  C   UNL     1     -14.095  -7.852   5.061  0.00  0.00    +0.000 C 
ATOM     19  C   UNL     1     -12.740  -8.103   5.682  0.00  0.00    +0.000 C 
ENDROOT
TORSDOF 0
ENDMDL
MODEL 8
REMARK VINA RESULT:      -4.8     17.358     18.951
REMARK  Name = 
REMARK  0 active torsions:
REMARK  status: ('A' for Active; 'I' for Inactive)
REMARK                            x       y       z     vdW  Elec       q    Type
REMARK                         _______ _______ _______ _____ _____    ______ ____
ROOT
ATOM      1  O   UNL     1     -14.021 -18.337  11.281  0.00  0.00    +0.000 OA
ATOM      2  O   UNL     1     -15.467 -13.675   9.458  0.00  0.00    +0.000 OA
ATOM      3  N   UNL     1     -12.814 -18.177  11.902  0.00  0.00    +0.000 N 
ATOM      4  N   UNL     1     -14.542 -14.888  11.199  0.00  0.00    +0.000 N 
ATOM      5  C   UNL     1     -12.472 -16.700  12.175  0.00  0.00    +0.000 C 
ATOM      6  C   UNL     1     -13.464 -16.019  13.139  0.00  0.00    +0.000 C 
ATOM      7  C   UNL     1     -12.285 -15.876  10.895  0.00  0.00    +0.000 C 
ATOM      8  C   UNL     1     -14.804 -15.650  12.441  0.00  0.00    +0.000 C 
ATOM      9  C   UNL     1     -13.588 -16.850  14.428  0.00  0.00    +0.000 C 
ATOM     10  C   UNL     1     -13.623 -15.519  10.248  0.00  0.00    +0.000 C 
ATOM     11  C   UNL     1     -12.859 -18.924  13.218  0.00  0.00    +0.000 C 
ATOM     12  C   UNL     1     -11.315 -16.555   9.919  0.00  0.00    +0.000 C 
ATOM     13  C   UNL     1     -11.737 -18.776  11.020  0.00  0.00    +0.000 C 
ATOM     14  C   UNL     1     -13.889 -18.319  14.163  0.00  0.00    +0.000 C 
ATOM     15  C   UNL     1     -11.622 -18.031   9.696  0.00  0.00    +0.000 C 
ATOM     16  C   UNL     1     -15.728 -14.887  13.403  0.00  0.00    +0.000 C 
ATOM     17  C   UNL     1     -16.953 -14.382  12.665  0.00  0.00    +0.000 C 
ATOM     18  C   UNL     1     -15.498 -14.040  10.636  0.00  0.00    +0.000 C 
ATOM     19  C   UNL     1     -16.514 -13.431  11.575  0.00  0.00    +0.000 C 
ENDROOT
TORSDOF 0
ENDMDL
MODEL 9
REMARK VINA RESULT:      -4.8     18.299     19.775
REMARK  Name = 
REMARK  0 active torsions:
REMARK  status: ('A' for Active; 'I' for Inactive)
REMARK                            x       y       z     vdW  Elec       q    Type
REMARK                         _______ _______ _______ _____ _____    ______ ____
ROOT
ATOM      1  O   UNL     1     -14.761 -13.956  10.907  0.00  0.00    +0.000 OA
ATOM      2  O   UNL     1     -11.720 -15.370   6.919  0.00  0.00    +0.000 OA
ATOM      3  N   UNL     1     -15.461 -15.062  11.299  0.00  0.00    +0.000 N 
ATOM      4  N   UNL     1     -12.576 -15.900   9.003  0.00  0.00    +0.000 N 
ATOM      5  C   UNL     1     -14.888 -16.371  10.723  0.00  0.00    +0.000 C 
ATOM      6  C   UNL     1     -13.453 -16.665  11.205  0.00  0.00    +0.000 C 
ATOM      7  C   UNL     1     -14.989 -16.453   9.195  0.00  0.00    +0.000 C 
ATOM      8  C   UNL     1     -12.394 -15.796  10.468  0.00  0.00    +0.000 C 
ATOM      9  C   UNL     1     -13.404 -16.619  12.743  0.00  0.00    +0.000 C 
ATOM     10  C   UNL     1     -13.923 -15.601   8.507  0.00  0.00    +0.000 C 
ATOM     11  C   UNL     1     -15.424 -15.131  12.811  0.00  0.00    +0.000 C 
ATOM     12  C   UNL     1     -16.408 -16.141   8.702  0.00  0.00    +0.000 C 
ATOM     13  C   UNL     1     -16.896 -14.909  10.839  0.00  0.00    +0.000 C 
ATOM     14  C   UNL     1     -14.003 -15.344  13.321  0.00  0.00    +0.000 C 
ATOM     15  C   UNL     1     -16.994 -14.876   9.319  0.00  0.00    +0.000 C 
ATOM     16  C   UNL     1     -10.972 -16.186  10.903  0.00  0.00    +0.000 C 
ATOM     17  C   UNL     1      -9.946 -15.459  10.055  0.00  0.00    +0.000 C 
ATOM     18  C   UNL     1     -11.536 -15.640   8.108  0.00  0.00    +0.000 C 
ATOM     19  C   UNL     1     -10.128 -15.862   8.610  0.00  0.00    +0.000 C 
ENDROOT
TORSDOF 0
ENDMDL
