MODEL 1
REMARK VINA RESULT:      -5.1      0.000      0.000
REMARK  Name = 
REMARK  23 active torsions:
REMARK  status: ('A' for Active; 'I' for Inactive)
REMARK    1  A    between atoms: O_2  and  C_17
REMARK    2  A    between atoms: O_2  and  C_36
REMARK    3  A    between atoms: O_3  and  C_20
REMARK    4  A    between atoms: O_3  and  C_37
REMARK    5  A    between atoms: O_4  and  C_21
REMARK    6  A    between atoms: O_5  and  C_22
REMARK    7  A    between atoms: O_6  and  C_30
REMARK    8  A    between atoms: O_6  and  C_39
REMARK    9  A    between atoms: O_8  and  C_31
REMARK   10  A    between atoms: O_8  and  C_40
REMARK   11  A    between atoms: O_13  and  C_42
REMARK   12  A    between atoms: N_15  and  C_46
REMARK   13  A    between atoms: C_18  and  C_29
REMARK   14  A    between atoms: C_24  and  C_33
REMARK   15  A    between atoms: C_24  and  C_34
REMARK   16  A    between atoms: C_32  and  C_35
REMARK   17  A    between atoms: C_36  and  C_38
REMARK   18  A    between atoms: C_37  and  C_41
REMARK   19  A    between atoms: C_39  and  C_43
REMARK   20  A    between atoms: C_40  and  C_42
REMARK   21  A    between atoms: C_42  and  C_46
REMARK   22  A    between atoms: C_46  and  C_50
REMARK   23  A    between atoms: C_53  and  C_56
REMARK                            x       y       z     vdW  Elec       q    Type
REMARK                         _______ _______ _______ _____ _____    ______ ____
ROOT
ATOM      1  O   UNL     1       5.864 -11.315  11.612  0.00  0.00    +0.000 OA
ATOM      2  O   UNL     1       8.126 -17.566  12.128  0.00  0.00    +0.000 OA
ATOM      3  C   UNL     1       4.949 -14.585  12.166  0.00  0.00    +0.000 C 
ATOM      4  C   UNL     1       5.112 -13.085  12.551  0.00  0.00    +0.000 C 
ATOM      5  C   UNL     1       6.571 -15.454  12.626  0.00  0.00    +0.000 C 
ATOM      6  C   UNL     1       6.212 -12.720  11.473  0.00  0.00    +0.000 C 
ATOM      7  C   UNL     1       3.287 -15.260  12.678  0.00  0.00    +0.000 C 
ATOM      8  C   UNL     1       2.279 -16.863  12.691  0.00  0.00    +0.000 C 
ATOM      9  C   UNL     1       7.669 -14.712  11.755  0.00  0.00    +0.000 C 
ATOM     10  C   UNL     1       7.623 -13.154  11.797  0.00  0.00    +0.000 C 
ATOM     11  C   UNL     1       2.826 -18.517  12.359  0.00  0.00    +0.000 C 
ATOM     12  C   UNL     1       4.491 -11.789  11.895  0.00  0.00    +0.000 C 
ATOM     13  C   UNL     1       6.962 -17.290  12.491  0.00  0.00    +0.000 C 
ATOM     14  C   UNL     1       1.767 -17.043  14.194  0.00  0.00    +0.000 C 
ATOM     15  C   UNL     1       4.081 -18.925  13.273  0.00  0.00    +0.000 C 
ATOM     16  C   UNL     1       7.029 -15.142  14.111  0.00  0.00    +0.000 C 
ATOM     17  C   UNL     1       5.813 -18.796  12.812  0.00  0.00    +0.000 C 
ATOM     18  C   UNL     1       2.605 -17.983  15.173  0.00  0.00    +0.000 C 
ATOM     19  C   UNL     1       3.767 -18.881  14.612  0.00  0.00    +0.000 C 
ATOM     20  C   UNL     1       1.606 -19.488  12.765  0.00  0.00    +0.000 C 
ATOM     21  C   UNL     1       2.905 -19.012  10.879  0.00  0.00    +0.000 C 
ATOM     22  C   UNL     1       4.667 -19.462  15.674  0.00  0.00    +0.000 C 
ENDROOT
BRANCH   9  23
ATOM     23  O   UNL     1       7.516 -15.094  10.388  0.00  0.00    +0.000 OA
ATOM     24  H   UNL     1       8.365 -15.499  10.119  0.00  0.00    +0.000 HD
ENDBRANCH   9  23
BRANCH   8  25
ATOM     25  O   UNL     1       1.113 -16.593  11.889  0.00  0.00    +0.000 OA
ATOM     26  H   UNL     1       1.096 -17.216  11.141  0.00  0.00    +0.000 HD
ENDBRANCH   8  25
BRANCH  18  27
ATOM     27  O   UNL     1       3.197 -17.141  16.206  0.00  0.00    +0.000 OA
BRANCH  27  29
ATOM     28  O   UNL     1       1.392 -16.528  17.426  0.00  0.00    +0.000 OA
ATOM     29  C   UNL     1       2.511 -17.026  17.373  0.00  0.00    +0.000 C 
BRANCH  29  30
ATOM     30  C   UNL     1       3.311 -17.417  18.619  0.00  0.00    +0.000 C 
BRANCH  30  31
ATOM     31  O   UNL     1       3.095 -18.751  19.092  0.00  0.00    +0.000 OA
ATOM     32  H   UNL     1       3.818 -19.290  18.722  0.00  0.00    +0.000 HD
ENDBRANCH  30  31
BRANCH  30  33
ATOM     33  C   UNL     1       2.996 -16.385  19.737  0.00  0.00    +0.000 C 
BRANCH  33  34
ATOM     34  C   UNL     1       4.212 -16.171  20.628  0.00  0.00    +0.000 A 
ATOM     35  C   UNL     1       4.097 -15.361  21.771  0.00  0.00    +0.000 A 
ATOM     36  C   UNL     1       5.463 -16.734  20.329  0.00  0.00    +0.000 A 
ATOM     37  C   UNL     1       5.197 -15.136  22.600  0.00  0.00    +0.000 A 
ATOM     38  C   UNL     1       6.561 -16.510  21.160  0.00  0.00    +0.000 A 
ATOM     39  C   UNL     1       6.428 -15.713  22.296  0.00  0.00    +0.000 A 
ENDBRANCH  33  34
BRANCH  33  41
ATOM     40  O   UNL     1      -0.357 -16.833  21.016  0.00  0.00    +0.000 OA
ATOM     41  N   UNL     1       1.836 -16.820  20.526  0.00  0.00    +0.000 N 
ATOM     42  C   UNL     1       0.643 -16.182  20.726  0.00  0.00    +0.000 C 
ATOM     43  H   UNL     1       1.802 -17.817  20.716  0.00  0.00    +0.000 HD
BRANCH  42  44
ATOM     44  C   UNL     1       0.536 -14.716  20.550  0.00  0.00    +0.000 A 
ATOM     45  C   UNL     1       0.871 -13.832  21.580  0.00  0.00    +0.000 A 
ATOM     46  C   UNL     1       0.021 -14.223  19.346  0.00  0.00    +0.000 A 
ATOM     47  C   UNL     1       0.748 -12.455  21.382  0.00  0.00    +0.000 A 
ATOM     48  C   UNL     1      -0.103 -12.848  19.151  0.00  0.00    +0.000 A 
ATOM     49  C   UNL     1       0.270 -11.965  20.166  0.00  0.00    +0.000 A 
ENDBRANCH  42  44
ENDBRANCH  33  41
ENDBRANCH  30  33
ENDBRANCH  29  30
ENDBRANCH  27  29
ENDBRANCH  18  27
BRANCH  17  50
ATOM     50  O   UNL     1       5.979 -19.838  11.826  0.00  0.00    +0.000 OA
BRANCH  50  52
ATOM     51  O   UNL     1       7.850 -21.045  11.596  0.00  0.00    +0.000 OA
ATOM     52  C   UNL     1       6.712 -20.953  12.046  0.00  0.00    +0.000 C 
ATOM     53  C   UNL     1       6.057 -22.089  12.773  0.00  0.00    +0.000 C 
ENDBRANCH  50  52
ENDBRANCH  17  50
BRANCH   7  54
ATOM     54  O   UNL     1       3.894 -15.670  13.771  0.00  0.00    +0.000 OA
BRANCH  54  56
ATOM     55  O   UNL     1       2.509 -14.219  13.672  0.00  0.00    +0.000 OA
ATOM     56  C   UNL     1       3.262 -14.699  14.512  0.00  0.00    +0.000 C 
BRANCH  56  57
ATOM     57  C   UNL     1       3.803 -14.164  16.268  0.00  0.00    +0.000 A 
ATOM     58  C   UNL     1       5.130 -14.373  16.843  0.00  0.00    +0.000 A 
ATOM     59  C   UNL     1       3.060 -13.385  17.206  0.00  0.00    +0.000 A 
ATOM     60  C   UNL     1       5.609 -13.898  18.090  0.00  0.00    +0.000 A 
ATOM     61  C   UNL     1       3.522 -12.900  18.462  0.00  0.00    +0.000 A 
ATOM     62  C   UNL     1       4.798 -13.152  18.906  0.00  0.00    +0.000 A 
ENDBRANCH  56  57
ENDBRANCH  54  56
ENDBRANCH   7  54
BRANCH   4  63
ATOM     63  O   UNL     1       5.539 -12.913  13.922  0.00  0.00    +0.000 OA
BRANCH  63  65
ATOM     64  O   UNL     1       6.890 -11.315  14.709  0.00  0.00    +0.000 OA
ATOM     65  C   UNL     1       5.744 -11.716  14.517  0.00  0.00    +0.000 C 
ATOM     66  C   UNL     1       4.574 -10.948  15.043  0.00  0.00    +0.000 C 
ENDBRANCH  63  65
ENDBRANCH   4  63
TORSDOF 17
ENDMDL
MODEL 2
REMARK VINA RESULT:      -4.3      3.774      9.776
REMARK  Name = 
REMARK  23 active torsions:
REMARK  status: ('A' for Active; 'I' for Inactive)
REMARK    1  A    between atoms: O_2  and  C_17
REMARK    2  A    between atoms: O_2  and  C_36
REMARK    3  A    between atoms: O_3  and  C_20
REMARK    4  A    between atoms: O_3  and  C_37
REMARK    5  A    between atoms: O_4  and  C_21
REMARK    6  A    between atoms: O_5  and  C_22
REMARK    7  A    between atoms: O_6  and  C_30
REMARK    8  A    between atoms: O_6  and  C_39
REMARK    9  A    between atoms: O_8  and  C_31
REMARK   10  A    between atoms: O_8  and  C_40
REMARK   11  A    between atoms: O_13  and  C_42
REMARK   12  A    between atoms: N_15  and  C_46
REMARK   13  A    between atoms: C_18  and  C_29
REMARK   14  A    between atoms: C_24  and  C_33
REMARK   15  A    between atoms: C_24  and  C_34
REMARK   16  A    between atoms: C_32  and  C_35
REMARK   17  A    between atoms: C_36  and  C_38
REMARK   18  A    between atoms: C_37  and  C_41
REMARK   19  A    between atoms: C_39  and  C_43
REMARK   20  A    between atoms: C_40  and  C_42
REMARK   21  A    between atoms: C_42  and  C_46
REMARK   22  A    between atoms: C_46  and  C_50
REMARK   23  A    between atoms: C_53  and  C_56
REMARK                            x       y       z     vdW  Elec       q    Type
REMARK                         _______ _______ _______ _____ _____    ______ ____
ROOT
ATOM      1  O   UNL     1       1.221 -11.690  18.869  0.00  0.00    +0.000 OA
ATOM      2  O   UNL     1       7.017 -10.540  21.958  0.00  0.00    +0.000 OA
ATOM      3  C   UNL     1       4.537 -10.901  18.395  0.00  0.00    +0.000 C 
ATOM      4  C   UNL     1       3.269 -11.793  18.255  0.00  0.00    +0.000 C 
ATOM      5  C   UNL     1       5.370 -11.376  20.032  0.00  0.00    +0.000 C 
ATOM      6  C   UNL     1       2.446 -11.163  19.451  0.00  0.00    +0.000 C 
ATOM      7  C   UNL     1       5.491 -10.789  16.797  0.00  0.00    +0.000 C 
ATOM      8  C   UNL     1       7.072 -10.046  16.063  0.00  0.00    +0.000 C 
ATOM      9  C   UNL     1       4.272 -11.061  21.132  0.00  0.00    +0.000 C 
ATOM     10  C   UNL     1       2.845 -11.615  20.837  0.00  0.00    +0.000 C 
ATOM     11  C   UNL     1       8.441  -9.302  16.910  0.00  0.00    +0.000 C 
ATOM     12  C   UNL     1       1.882 -11.496  17.559  0.00  0.00    +0.000 C 
ATOM     13  C   UNL     1       6.992 -10.718  20.722  0.00  0.00    +0.000 C 
ATOM     14  C   UNL     1       7.825 -11.255  15.339  0.00  0.00    +0.000 C 
ATOM     15  C   UNL     1       9.042 -10.270  18.040  0.00  0.00    +0.000 C 
ATOM     16  C   UNL     1       5.577 -12.942  20.178  0.00  0.00    +0.000 C 
ATOM     17  C   UNL     1       8.606 -10.260  19.784  0.00  0.00    +0.000 C 
ATOM     18  C   UNL     1       8.979 -12.016  16.136  0.00  0.00    +0.000 C 
ATOM     19  C   UNL     1       9.511 -11.446  17.502  0.00  0.00    +0.000 C 
ATOM     20  C   UNL     1       9.594  -9.087  15.806  0.00  0.00    +0.000 C 
ATOM     21  C   UNL     1       8.359  -7.794  17.315  0.00  0.00    +0.000 C 
ATOM     22  C   UNL     1      10.356 -12.416  18.289  0.00  0.00    +0.000 C 
ENDROOT
BRANCH   9  23
ATOM     23  O   UNL     1       4.147  -9.647  21.273  0.00  0.00    +0.000 OA
ATOM     24  H   UNL     1       4.255  -9.270  20.376  0.00  0.00    +0.000 HD
ENDBRANCH   9  23
BRANCH   8  25
ATOM     25  O   UNL     1       6.633  -9.153  15.022  0.00  0.00    +0.000 OA
ATOM     26  H   UNL     1       5.933  -8.577  15.378  0.00  0.00    +0.000 HD
ENDBRANCH   8  25
BRANCH  18  27
ATOM     27  O   UNL     1       8.519 -13.372  16.406  0.00  0.00    +0.000 OA
BRANCH  27  29
ATOM     28  O   UNL     1      10.206 -14.373  15.276  0.00  0.00    +0.000 OA
ATOM     29  C   UNL     1       9.031 -14.360  15.627  0.00  0.00    +0.000 C 
BRANCH  29  30
ATOM     30  C   UNL     1       7.991 -15.354  15.100  0.00  0.00    +0.000 C 
BRANCH  30  31
ATOM     31  O   UNL     1       8.388 -16.730  15.133  0.00  0.00    +0.000 OA
ATOM     32  H   UNL     1       7.817 -17.192  14.491  0.00  0.00    +0.000 HD
ENDBRANCH  30  31
BRANCH  30  33
ATOM     33  C   UNL     1       7.610 -14.932  13.654  0.00  0.00    +0.000 C 
BRANCH  33  34
ATOM     34  C   UNL     1       6.157 -15.277  13.359  0.00  0.00    +0.000 A 
ATOM     35  C   UNL     1       5.639 -15.045  12.073  0.00  0.00    +0.000 A 
ATOM     36  C   UNL     1       5.300 -15.794  14.344  0.00  0.00    +0.000 A 
ATOM     37  C   UNL     1       4.308 -15.339  11.776  0.00  0.00    +0.000 A 
ATOM     38  C   UNL     1       3.970 -16.089  14.044  0.00  0.00    +0.000 A 
ATOM     39  C   UNL     1       3.474 -15.864  12.761  0.00  0.00    +0.000 A 
ENDBRANCH  33  34
BRANCH  33  41
ATOM     40  O   UNL     1      10.443 -15.711  11.545  0.00  0.00    +0.000 OA
ATOM     41  N   UNL     1       8.509 -15.565  12.680  0.00  0.00    +0.000 N 
ATOM     42  C   UNL     1       9.527 -15.006  11.957  0.00  0.00    +0.000 C 
ATOM     43  H   UNL     1       8.569 -16.576  12.753  0.00  0.00    +0.000 HD
BRANCH  42  44
ATOM     44  C   UNL     1       9.556 -13.547  11.706  0.00  0.00    +0.000 A 
ATOM     45  C   UNL     1      10.726 -12.801  11.873  0.00  0.00    +0.000 A 
ATOM     46  C   UNL     1       8.360 -12.904  11.363  0.00  0.00    +0.000 A 
ATOM     47  C   UNL     1      10.713 -11.425  11.637  0.00  0.00    +0.000 A 
ATOM     48  C   UNL     1       8.349 -11.529  11.130  0.00  0.00    +0.000 A 
ATOM     49  C   UNL     1       9.528 -10.793  11.259  0.00  0.00    +0.000 A 
ENDBRANCH  42  44
ENDBRANCH  33  41
ENDBRANCH  30  33
ENDBRANCH  29  30
ENDBRANCH  27  29
ENDBRANCH  18  27
BRANCH  17  50
ATOM     50  O   UNL     1       9.203  -9.041  20.275  0.00  0.00    +0.000 OA
BRANCH  50  52
ATOM     51  O   UNL     1      11.277  -9.579  20.922  0.00  0.00    +0.000 OA
ATOM     52  C   UNL     1      10.212  -9.023  21.174  0.00  0.00    +0.000 C 
ATOM     53  C   UNL     1       9.953  -8.386  22.506  0.00  0.00    +0.000 C 
ENDBRANCH  50  52
ENDBRANCH  17  50
BRANCH   7  54
ATOM     54  O   UNL     1       6.215 -11.783  17.267  0.00  0.00    +0.000 OA
BRANCH  54  56
ATOM     55  O   UNL     1       5.859 -13.741  16.991  0.00  0.00    +0.000 OA
ATOM     56  C   UNL     1       5.542 -12.678  16.469  0.00  0.00    +0.000 C 
BRANCH  56  57
ATOM     57  C   UNL     1       4.679 -12.215  14.824  0.00  0.00    +0.000 A 
ATOM     58  C   UNL     1       5.363 -11.815  13.596  0.00  0.00    +0.000 A 
ATOM     59  C   UNL     1       3.289 -12.315  14.514  0.00  0.00    +0.000 A 
ATOM     60  C   UNL     1       4.777 -11.573  12.328  0.00  0.00    +0.000 A 
ATOM     61  C   UNL     1       2.682 -12.074  13.249  0.00  0.00    +0.000 A 
ATOM     62  C   UNL     1       3.424 -11.706  12.153  0.00  0.00    +0.000 A 
ENDBRANCH  56  57
ENDBRANCH  54  56
ENDBRANCH   7  54
BRANCH   4  63
ATOM     63  O   UNL     1       3.568 -13.201  18.411  0.00  0.00    +0.000 OA
BRANCH  63  65
ATOM     64  O   UNL     1       2.053 -14.618  19.244  0.00  0.00    +0.000 OA
ATOM     65  C   UNL     1       2.665 -14.197  18.265  0.00  0.00    +0.000 C 
ATOM     66  C   UNL     1       2.509 -14.856  16.931  0.00  0.00    +0.000 C 
ENDBRANCH  63  65
ENDBRANCH   4  63
TORSDOF 17
ENDMDL
MODEL 3
REMARK VINA RESULT:      -4.3      2.960      5.790
REMARK  Name = 
REMARK  23 active torsions:
REMARK  status: ('A' for Active; 'I' for Inactive)
REMARK    1  A    between atoms: O_2  and  C_17
REMARK    2  A    between atoms: O_2  and  C_36
REMARK    3  A    between atoms: O_3  and  C_20
REMARK    4  A    between atoms: O_3  and  C_37
REMARK    5  A    between atoms: O_4  and  C_21
REMARK    6  A    between atoms: O_5  and  C_22
REMARK    7  A    between atoms: O_6  and  C_30
REMARK    8  A    between atoms: O_6  and  C_39
REMARK    9  A    between atoms: O_8  and  C_31
REMARK   10  A    between atoms: O_8  and  C_40
REMARK   11  A    between atoms: O_13  and  C_42
REMARK   12  A    between atoms: N_15  and  C_46
REMARK   13  A    between atoms: C_18  and  C_29
REMARK   14  A    between atoms: C_24  and  C_33
REMARK   15  A    between atoms: C_24  and  C_34
REMARK   16  A    between atoms: C_32  and  C_35
REMARK   17  A    between atoms: C_36  and  C_38
REMARK   18  A    between atoms: C_37  and  C_41
REMARK   19  A    between atoms: C_39  and  C_43
REMARK   20  A    between atoms: C_40  and  C_42
REMARK   21  A    between atoms: C_42  and  C_46
REMARK   22  A    between atoms: C_46  and  C_50
REMARK   23  A    between atoms: C_53  and  C_56
REMARK                            x       y       z     vdW  Elec       q    Type
REMARK                         _______ _______ _______ _____ _____    ______ ____
ROOT
ATOM      1  O   UNL     1      10.690 -17.227  17.768  0.00  0.00    +0.000 OA
ATOM      2  O   UNL     1       5.116 -18.892  14.509  0.00  0.00    +0.000 OA
ATOM      3  C   UNL     1       8.228 -16.069  15.661  0.00  0.00    +0.000 C 
ATOM      4  C   UNL     1       9.044 -16.104  16.986  0.00  0.00    +0.000 C 
ATOM      5  C   UNL     1       6.825 -17.333  15.841  0.00  0.00    +0.000 C 
ATOM      6  C   UNL     1       9.641 -17.560  16.818  0.00  0.00    +0.000 C 
ATOM      7  C   UNL     1       7.919 -14.325  15.078  0.00  0.00    +0.000 C 
ATOM      8  C   UNL     1       7.038 -13.353  13.711  0.00  0.00    +0.000 C 
ATOM      9  C   UNL     1       7.573 -18.713  16.067  0.00  0.00    +0.000 C 
ATOM     10  C   UNL     1       8.702 -18.700  17.142  0.00  0.00    +0.000 C 
ATOM     11  C   UNL     1       5.864 -13.940  12.517  0.00  0.00    +0.000 C 
ATOM     12  C   UNL     1      10.580 -15.846  17.248  0.00  0.00    +0.000 C 
ATOM     13  C   UNL     1       5.445 -17.690  14.613  0.00  0.00    +0.000 C 
ATOM     14  C   UNL     1       6.141 -12.264  14.461  0.00  0.00    +0.000 C 
ATOM     15  C   UNL     1       4.631 -14.695  13.214  0.00  0.00    +0.000 C 
ATOM     16  C   UNL     1       6.009 -17.149  17.188  0.00  0.00    +0.000 C 
ATOM     17  C   UNL     1       4.489 -16.467  13.481  0.00  0.00    +0.000 C 
ATOM     18  C   UNL     1       4.603 -12.597  14.722  0.00  0.00    +0.000 C 
ATOM     19  C   UNL     1       3.940 -13.861  14.061  0.00  0.00    +0.000 C 
ATOM     20  C   UNL     1       5.270 -12.633  11.787  0.00  0.00    +0.000 C 
ATOM     21  C   UNL     1       6.383 -14.607  11.202  0.00  0.00    +0.000 C 
ATOM     22  C   UNL     1       2.596 -14.227  14.640  0.00  0.00    +0.000 C 
ENDROOT
BRANCH   9  23
ATOM     23  O   UNL     1       8.173 -19.124  14.839  0.00  0.00    +0.000 OA
ATOM     24  H   UNL     1       7.920 -18.455  14.172  0.00  0.00    +0.000 HD
ENDBRANCH   9  23
BRANCH   8  25
ATOM     25  O   UNL     1       8.074 -12.629  13.022  0.00  0.00    +0.000 OA
ATOM     26  H   UNL     1       8.939 -12.963  13.317  0.00  0.00    +0.000 HD
ENDBRANCH   8  25
BRANCH  18  27
ATOM     27  O   UNL     1       4.412 -12.737  16.160  0.00  0.00    +0.000 OA
BRANCH  27  29
ATOM     28  O   UNL     1       4.236 -10.812  17.337  0.00  0.00    +0.000 OA
ATOM     29  C   UNL     1       3.697 -11.764  16.782  0.00  0.00    +0.000 C 
BRANCH  29  30
ATOM     30  C   UNL     1       2.193 -12.039  16.871  0.00  0.00    +0.000 C 
BRANCH  30  31
ATOM     31  O   UNL     1       1.363 -11.152  16.113  0.00  0.00    +0.000 OA
ATOM     32  H   UNL     1       0.495 -11.592  16.037  0.00  0.00    +0.000 HD
ENDBRANCH  30  31
BRANCH  30  33
ATOM     33  C   UNL     1       1.786 -12.019  18.370  0.00  0.00    +0.000 C 
BRANCH  33  34
ATOM     34  C   UNL     1       0.878 -13.197  18.696  0.00  0.00    +0.000 A 
ATOM     35  C   UNL     1       1.430 -14.486  18.800  0.00  0.00    +0.000 A 
ATOM     36  C   UNL     1      -0.507 -13.044  18.865  0.00  0.00    +0.000 A 
ATOM     37  C   UNL     1       0.621 -15.587  19.084  0.00  0.00    +0.000 A 
ATOM     38  C   UNL     1      -1.314 -14.146  19.151  0.00  0.00    +0.000 A 
ATOM     39  C   UNL     1      -0.750 -15.417  19.263  0.00  0.00    +0.000 A 
ENDBRANCH  33  34
BRANCH  33  41
ATOM     40  O   UNL     1       1.051  -8.765  19.767  0.00  0.00    +0.000 OA
ATOM     41  N   UNL     1       1.137 -10.745  18.708  0.00  0.00    +0.000 N 
ATOM     42  C   UNL     1       1.297  -9.966  19.822  0.00  0.00    +0.000 C 
ATOM     43  H   UNL     1       0.739 -10.249  17.917  0.00  0.00    +0.000 HD
BRANCH  42  44
ATOM     44  C   UNL     1       1.811 -10.552  21.080  0.00  0.00    +0.000 A 
ATOM     45  C   UNL     1       3.129 -10.346  21.496  0.00  0.00    +0.000 A 
ATOM     46  C   UNL     1       0.966 -11.387  21.823  0.00  0.00    +0.000 A 
ATOM     47  C   UNL     1       3.582 -10.923  22.684  0.00  0.00    +0.000 A 
ATOM     48  C   UNL     1       1.422 -11.964  23.007  0.00  0.00    +0.000 A 
ATOM     49  C   UNL     1       2.726 -11.724  23.441  0.00  0.00    +0.000 A 
ENDBRANCH  42  44
ENDBRANCH  33  41
ENDBRANCH  30  33
ENDBRANCH  29  30
ENDBRANCH  27  29
ENDBRANCH  18  27
BRANCH  17  50
ATOM     50  O   UNL     1       4.278 -16.993  12.152  0.00  0.00    +0.000 OA
BRANCH  50  52
ATOM     51  O   UNL     1       3.196 -18.788  11.366  0.00  0.00    +0.000 OA
ATOM     52  C   UNL     1       3.146 -17.634  11.784  0.00  0.00    +0.000 C 
ATOM     53  C   UNL     1       1.861 -16.864  11.818  0.00  0.00    +0.000 C 
ENDBRANCH  50  52
ENDBRANCH  17  50
BRANCH   7  54
ATOM     54  O   UNL     1       6.768 -14.416  15.710  0.00  0.00    +0.000 OA
BRANCH  54  56
ATOM     55  O   UNL     1       8.270 -13.173  16.196  0.00  0.00    +0.000 OA
ATOM     56  C   UNL     1       7.212 -13.555  16.685  0.00  0.00    +0.000 C 
BRANCH  56  57
ATOM     57  C   UNL     1       6.422 -13.397  18.422  0.00  0.00    +0.000 A 
ATOM     58  C   UNL     1       5.340 -14.233  18.936  0.00  0.00    +0.000 A 
ATOM     59  C   UNL     1       6.844 -12.554  19.495  0.00  0.00    +0.000 A 
ATOM     60  C   UNL     1       4.801 -14.228  20.247  0.00  0.00    +0.000 A 
ATOM     61  C   UNL     1       6.315 -12.533  20.816  0.00  0.00    +0.000 A 
ATOM     62  C   UNL     1       5.295 -13.372  21.197  0.00  0.00    +0.000 A 
ENDBRANCH  56  57
ENDBRANCH  54  56
ENDBRANCH   7  54
BRANCH   4  63
ATOM     63  O   UNL     1       8.204 -15.934  18.152  0.00  0.00    +0.000 OA
BRANCH  63  65
ATOM     64  O   UNL     1       9.372 -14.828  19.705  0.00  0.00    +0.000 OA
ATOM     65  C   UNL     1       8.665 -15.791  19.416  0.00  0.00    +0.000 C 
ATOM     66  C   UNL     1       8.408 -16.871  20.418  0.00  0.00    +0.000 C 
ENDBRANCH  63  65
ENDBRANCH   4  63
TORSDOF 17
ENDMDL
MODEL 4
REMARK VINA RESULT:      -4.1      1.649      2.995
REMARK  Name = 
REMARK  23 active torsions:
REMARK  status: ('A' for Active; 'I' for Inactive)
REMARK    1  A    between atoms: O_2  and  C_17
REMARK    2  A    between atoms: O_2  and  C_36
REMARK    3  A    between atoms: O_3  and  C_20
REMARK    4  A    between atoms: O_3  and  C_37
REMARK    5  A    between atoms: O_4  and  C_21
REMARK    6  A    between atoms: O_5  and  C_22
REMARK    7  A    between atoms: O_6  and  C_30
REMARK    8  A    between atoms: O_6  and  C_39
REMARK    9  A    between atoms: O_8  and  C_31
REMARK   10  A    between atoms: O_8  and  C_40
REMARK   11  A    between atoms: O_13  and  C_42
REMARK   12  A    between atoms: N_15  and  C_46
REMARK   13  A    between atoms: C_18  and  C_29
REMARK   14  A    between atoms: C_24  and  C_33
REMARK   15  A    between atoms: C_24  and  C_34
REMARK   16  A    between atoms: C_32  and  C_35
REMARK   17  A    between atoms: C_36  and  C_38
REMARK   18  A    between atoms: C_37  and  C_41
REMARK   19  A    between atoms: C_39  and  C_43
REMARK   20  A    between atoms: C_40  and  C_42
REMARK   21  A    between atoms: C_42  and  C_46
REMARK   22  A    between atoms: C_46  and  C_50
REMARK   23  A    between atoms: C_53  and  C_56
REMARK                            x       y       z     vdW  Elec       q    Type
REMARK                         _______ _______ _______ _____ _____    ______ ____
ROOT
ATOM      1  O   UNL     1       5.609 -11.201  11.567  0.00  0.00    +0.000 OA
ATOM      2  O   UNL     1       8.072 -17.356  12.275  0.00  0.00    +0.000 OA
ATOM      3  C   UNL     1       4.810 -14.468  12.292  0.00  0.00    +0.000 C 
ATOM      4  C   UNL     1       4.940 -12.949  12.605  0.00  0.00    +0.000 C 
ATOM      5  C   UNL     1       6.472 -15.270  12.734  0.00  0.00    +0.000 C 
ATOM      6  C   UNL     1       5.994 -12.600  11.477  0.00  0.00    +0.000 C 
ATOM      7  C   UNL     1       3.187 -15.167  12.887  0.00  0.00    +0.000 C 
ATOM      8  C   UNL     1       2.227 -16.796  13.004  0.00  0.00    +0.000 C 
ATOM      9  C   UNL     1       7.518 -14.535  11.795  0.00  0.00    +0.000 C 
ATOM     10  C   UNL     1       7.427 -12.979  11.772  0.00  0.00    +0.000 C 
ATOM     11  C   UNL     1       2.813 -18.447  12.725  0.00  0.00    +0.000 C 
ATOM     12  C   UNL     1       4.260 -11.701  11.916  0.00  0.00    +0.000 C 
ATOM     13  C   UNL     1       6.913 -17.097  12.665  0.00  0.00    +0.000 C 
ATOM     14  C   UNL     1       1.770 -16.924  14.529  0.00  0.00    +0.000 C 
ATOM     15  C   UNL     1       4.108 -18.778  13.613  0.00  0.00    +0.000 C 
ATOM     16  C   UNL     1       6.968 -14.879  14.188  0.00  0.00    +0.000 C 
ATOM     17  C   UNL     1       5.820 -18.620  13.088  0.00  0.00    +0.000 C 
ATOM     18  C   UNL     1       2.667 -17.795  15.519  0.00  0.00    +0.000 C 
ATOM     19  C   UNL     1       3.837 -18.684  14.958  0.00  0.00    +0.000 C 
ATOM     20  C   UNL     1       1.637 -19.433  13.213  0.00  0.00    +0.000 C 
ATOM     21  C   UNL     1       2.859 -19.003  11.265  0.00  0.00    +0.000 C 
ATOM     22  C   UNL     1       4.788 -19.192  16.013  0.00  0.00    +0.000 C 
ENDROOT
BRANCH   9  23
ATOM     23  O   UNL     1       7.332 -14.982  10.452  0.00  0.00    +0.000 OA
ATOM     24  H   UNL     1       6.544 -14.512  10.112  0.00  0.00    +0.000 HD
ENDBRANCH   9  23
BRANCH   8  25
ATOM     25  O   UNL     1       1.029 -16.595  12.230  0.00  0.00    +0.000 OA
ATOM     26  H   UNL     1       0.300 -17.085  12.650  0.00  0.00    +0.000 HD
ENDBRANCH   8  25
BRANCH  18  27
ATOM     27  O   UNL     1       3.267 -16.893  16.494  0.00  0.00    +0.000 OA
BRANCH  27  29
ATOM     28  O   UNL     1       3.523 -17.180  18.724  0.00  0.00    +0.000 OA
ATOM     29  C   UNL     1       2.792 -16.958  17.765  0.00  0.00    +0.000 C 
BRANCH  29  30
ATOM     30  C   UNL     1       1.266 -16.893  17.876  0.00  0.00    +0.000 C 
BRANCH  30  31
ATOM     31  O   UNL     1       0.708 -15.575  17.888  0.00  0.00    +0.000 OA
ATOM     32  H   UNL     1       0.498 -15.378  18.820  0.00  0.00    +0.000 HD
ENDBRANCH  30  31
BRANCH  30  33
ATOM     33  C   UNL     1       0.841 -17.676  19.150  0.00  0.00    +0.000 C 
BRANCH  33  34
ATOM     34  C   UNL     1       0.282 -19.042  18.779  0.00  0.00    +0.000 A 
ATOM     35  C   UNL     1       0.043 -19.989  19.791  0.00  0.00    +0.000 A 
ATOM     36  C   UNL     1       0.023 -19.404  17.447  0.00  0.00    +0.000 A 
ATOM     37  C   UNL     1      -0.458 -21.254  19.480  0.00  0.00    +0.000 A 
ATOM     38  C   UNL     1      -0.479 -20.669  17.139  0.00  0.00    +0.000 A 
ATOM     39  C   UNL     1      -0.721 -21.593  18.155  0.00  0.00    +0.000 A 
ENDBRANCH  33  34
BRANCH  33  41
ATOM     40  O   UNL     1      -0.775 -15.092  21.096  0.00  0.00    +0.000 OA
ATOM     41  N   UNL     1      -0.134 -16.901  19.927  0.00  0.00    +0.000 N 
ATOM     42  C   UNL     1       0.088 -15.935  20.870  0.00  0.00    +0.000 C 
ATOM     43  H   UNL     1      -1.069 -16.876  19.530  0.00  0.00    +0.000 HD
BRANCH  42  44
ATOM     44  C   UNL     1       1.381 -15.870  21.588  0.00  0.00    +0.000 A 
ATOM     45  C   UNL     1       2.395 -14.995  21.186  0.00  0.00    +0.000 A 
ATOM     46  C   UNL     1       1.603 -16.760  22.646  0.00  0.00    +0.000 A 
ATOM     47  C   UNL     1       3.605 -14.969  21.881  0.00  0.00    +0.000 A 
ATOM     48  C   UNL     1       2.814 -16.733  23.336  0.00  0.00    +0.000 A 
ATOM     49  C   UNL     1       3.810 -15.831  22.959  0.00  0.00    +0.000 A 
ENDBRANCH  42  44
ENDBRANCH  33  41
ENDBRANCH  30  33
ENDBRANCH  29  30
ENDBRANCH  27  29
ENDBRANCH  18  27
BRANCH  17  50
ATOM     50  O   UNL     1       5.985 -19.699  12.143  0.00  0.00    +0.000 OA
BRANCH  50  52
ATOM     51  O   UNL     1       7.893 -20.854  11.949  0.00  0.00    +0.000 OA
ATOM     52  C   UNL     1       6.750 -20.787  12.391  0.00  0.00    +0.000 C 
ATOM     53  C   UNL     1       6.125 -21.928  13.137  0.00  0.00    +0.000 C 
ENDBRANCH  50  52
ENDBRANCH  17  50
BRANCH   7  54
ATOM     54  O   UNL     1       3.841 -15.511  13.976  0.00  0.00    +0.000 OA
BRANCH  54  56
ATOM     55  O   UNL     1       2.426 -14.090  13.853  0.00  0.00    +0.000 OA
ATOM     56  C   UNL     1       3.195 -14.536  14.698  0.00  0.00    +0.000 C 
BRANCH  56  57
ATOM     57  C   UNL     1       3.737 -13.948  16.437  0.00  0.00    +0.000 A 
ATOM     58  C   UNL     1       5.043 -14.196  17.043  0.00  0.00    +0.000 A 
ATOM     59  C   UNL     1       3.021 -13.091  17.327  0.00  0.00    +0.000 A 
ATOM     60  C   UNL     1       5.528 -13.689  18.275  0.00  0.00    +0.000 A 
ATOM     61  C   UNL     1       3.489 -12.573  18.567  0.00  0.00    +0.000 A 
ATOM     62  C   UNL     1       4.744 -12.867  19.043  0.00  0.00    +0.000 A 
ENDBRANCH  56  57
ENDBRANCH  54  56
ENDBRANCH   7  54
BRANCH   4  63
ATOM     63  O   UNL     1       5.406 -12.705  13.953  0.00  0.00    +0.000 OA
BRANCH  63  65
ATOM     64  O   UNL     1       4.168 -11.018  14.742  0.00  0.00    +0.000 OA
ATOM     65  C   UNL     1       5.279 -11.528  14.607  0.00  0.00    +0.000 C 
ATOM     66  C   UNL     1       6.506 -10.801  15.057  0.00  0.00    +0.000 C 
ENDBRANCH  63  65
ENDBRANCH   4  63
TORSDOF 17
ENDMDL
MODEL 5
REMARK VINA RESULT:      -3.9      8.422     12.538
REMARK  Name = 
REMARK  23 active torsions:
REMARK  status: ('A' for Active; 'I' for Inactive)
REMARK    1  A    between atoms: O_2  and  C_17
REMARK    2  A    between atoms: O_2  and  C_36
REMARK    3  A    between atoms: O_3  and  C_20
REMARK    4  A    between atoms: O_3  and  C_37
REMARK    5  A    between atoms: O_4  and  C_21
REMARK    6  A    between atoms: O_5  and  C_22
REMARK    7  A    between atoms: O_6  and  C_30
REMARK    8  A    between atoms: O_6  and  C_39
REMARK    9  A    between atoms: O_8  and  C_31
REMARK   10  A    between atoms: O_8  and  C_40
REMARK   11  A    between atoms: O_13  and  C_42
REMARK   12  A    between atoms: N_15  and  C_46
REMARK   13  A    between atoms: C_18  and  C_29
REMARK   14  A    between atoms: C_24  and  C_33
REMARK   15  A    between atoms: C_24  and  C_34
REMARK   16  A    between atoms: C_32  and  C_35
REMARK   17  A    between atoms: C_36  and  C_38
REMARK   18  A    between atoms: C_37  and  C_41
REMARK   19  A    between atoms: C_39  and  C_43
REMARK   20  A    between atoms: C_40  and  C_42
REMARK   21  A    between atoms: C_42  and  C_46
REMARK   22  A    between atoms: C_46  and  C_50
REMARK   23  A    between atoms: C_53  and  C_56
REMARK                            x       y       z     vdW  Elec       q    Type
REMARK                         _______ _______ _______ _____ _____    ______ ____
ROOT
ATOM      1  O   UNL     1       0.289 -17.093  18.182  0.00  0.00    +0.000 OA
ATOM      2  O   UNL     1      -0.658 -20.300  23.950  0.00  0.00    +0.000 OA
ATOM      3  C   UNL     1      -1.278 -19.770  19.671  0.00  0.00    +0.000 C 
ATOM      4  C   UNL     1      -1.230 -18.416  18.904  0.00  0.00    +0.000 C 
ATOM      5  C   UNL     1      -1.247 -19.360  21.523  0.00  0.00    +0.000 C 
ATOM      6  C   UNL     1       0.242 -18.004  19.314  0.00  0.00    +0.000 C 
ATOM      7  C   UNL     1      -2.530 -20.943  18.938  0.00  0.00    +0.000 C 
ATOM      8  C   UNL     1      -3.285 -22.659  19.203  0.00  0.00    +0.000 C 
ATOM      9  C   UNL     1       0.122 -18.586  21.726  0.00  0.00    +0.000 C 
ATOM     10  C   UNL     1       0.407 -17.441  20.707  0.00  0.00    +0.000 C 
ATOM     11  C   UNL     1      -3.136 -23.729  20.611  0.00  0.00    +0.000 C 
ATOM     12  C   UNL     1      -0.602 -18.058  17.500  0.00  0.00    +0.000 C 
ATOM     13  C   UNL     1      -1.376 -20.565  22.962  0.00  0.00    +0.000 C 
ATOM     14  C   UNL     1      -4.868 -22.446  19.191  0.00  0.00    +0.000 C 
ATOM     15  C   UNL     1      -3.555 -22.986  21.971  0.00  0.00    +0.000 C 
ATOM     16  C   UNL     1      -2.330 -18.273  21.923  0.00  0.00    +0.000 C 
ATOM     17  C   UNL     1      -2.439 -22.158  23.112  0.00  0.00    +0.000 C 
ATOM     18  C   UNL     1      -5.624 -22.291  20.587  0.00  0.00    +0.000 C 
ATOM     19  C   UNL     1      -4.865 -22.568  21.937  0.00  0.00    +0.000 C 
ATOM     20  C   UNL     1      -4.187 -24.928  20.381  0.00  0.00    +0.000 C 
ATOM     21  C   UNL     1      -1.889 -24.662  20.731  0.00  0.00    +0.000 C 
ATOM     22  C   UNL     1      -5.592 -22.081  23.165  0.00  0.00    +0.000 C 
ENDROOT
BRANCH   9  23
ATOM     23  O   UNL     1       1.201 -19.514  21.620  0.00  0.00    +0.000 OA
ATOM     24  H   UNL     1       1.717 -19.432  22.447  0.00  0.00    +0.000 HD
ENDBRANCH   9  23
BRANCH   8  25
ATOM     25  O   UNL     1      -2.962 -23.411  18.018  0.00  0.00    +0.000 OA
ATOM     26  H   UNL     1      -3.151 -22.861  17.237  0.00  0.00    +0.000 HD
ENDBRANCH   8  25
BRANCH  18  27
ATOM     27  O   UNL     1      -6.133 -20.928  20.674  0.00  0.00    +0.000 OA
BRANCH  27  29
ATOM     28  O   UNL     1      -7.824 -20.540  19.221  0.00  0.00    +0.000 OA
ATOM     29  C   UNL     1      -7.443 -20.741  20.369  0.00  0.00    +0.000 C 
BRANCH  29  30
ATOM     30  C   UNL     1      -8.370 -20.643  21.586  0.00  0.00    +0.000 C 
BRANCH  30  31
ATOM     31  O   UNL     1      -8.887 -21.890  22.063  0.00  0.00    +0.000 OA
ATOM     32  H   UNL     1      -9.118 -21.746  23.000  0.00  0.00    +0.000 HD
ENDBRANCH  30  31
BRANCH  30  33
ATOM     33  C   UNL     1      -9.529 -19.672  21.232  0.00  0.00    +0.000 C 
BRANCH  33  34
ATOM     34  C   UNL     1      -9.387 -18.364  21.998  0.00  0.00    +0.000 A 
ATOM     35  C   UNL     1      -8.591 -18.326  23.156  0.00  0.00    +0.000 A 
ATOM     36  C   UNL     1     -10.054 -17.193  21.604  0.00  0.00    +0.000 A 
ATOM     37  C   UNL     1      -8.452 -17.145  23.888  0.00  0.00    +0.000 A 
ATOM     38  C   UNL     1      -9.911 -16.013  22.335  0.00  0.00    +0.000 A 
ATOM     39  C   UNL     1      -9.109 -15.989  23.475  0.00  0.00    +0.000 A 
ENDBRANCH  33  34
BRANCH  33  41
ATOM     40  O   UNL     1     -12.588 -21.579  20.937  0.00  0.00    +0.000 OA
ATOM     41  N   UNL     1     -10.828 -20.302  21.504  0.00  0.00    +0.000 N 
ATOM     42  C   UNL     1     -11.795 -20.697  20.621  0.00  0.00    +0.000 C 
ATOM     43  H   UNL     1     -10.902 -20.745  22.415  0.00  0.00    +0.000 HD
BRANCH  42  44
ATOM     44  C   UNL     1     -11.865 -20.101  19.267  0.00  0.00    +0.000 A 
ATOM     45  C   UNL     1     -11.326 -20.754  18.155  0.00  0.00    +0.000 A 
ATOM     46  C   UNL     1     -12.421 -18.825  19.127  0.00  0.00    +0.000 A 
ATOM     47  C   UNL     1     -11.401 -20.157  16.895  0.00  0.00    +0.000 A 
ATOM     48  C   UNL     1     -12.492 -18.229  17.868  0.00  0.00    +0.000 A 
ATOM     49  C   UNL     1     -11.990 -18.901  16.752  0.00  0.00    +0.000 A 
ENDBRANCH  42  44
ENDBRANCH  33  41
ENDBRANCH  30  33
ENDBRANCH  29  30
ENDBRANCH  27  29
ENDBRANCH  18  27
BRANCH  17  50
ATOM     50  O   UNL     1      -1.720 -23.247  23.731  0.00  0.00    +0.000 OA
BRANCH  50  52
ATOM     51  O   UNL     1      -0.855 -24.076  25.621  0.00  0.00    +0.000 OA
ATOM     52  C   UNL     1      -1.791 -23.521  25.053  0.00  0.00    +0.000 C 
ATOM     53  C   UNL     1      -3.072 -23.207  25.767  0.00  0.00    +0.000 C 
ENDBRANCH  50  52
ENDBRANCH  17  50
BRANCH   7  54
ATOM     54  O   UNL     1      -3.362 -20.473  19.844  0.00  0.00    +0.000 OA
BRANCH  54  56
ATOM     55  O   UNL     1      -3.562 -20.250  17.858  0.00  0.00    +0.000 OA
ATOM     56  C   UNL     1      -4.057 -19.785  18.878  0.00  0.00    +0.000 C 
BRANCH  56  57
ATOM     57  C   UNL     1      -5.200 -18.291  19.234  0.00  0.00    +0.000 A 
ATOM     58  C   UNL     1      -6.079 -17.649  18.259  0.00  0.00    +0.000 A 
ATOM     59  C   UNL     1      -5.463 -17.681  20.498  0.00  0.00    +0.000 A 
ATOM     60  C   UNL     1      -7.021 -16.619  18.501  0.00  0.00    +0.000 A 
ATOM     61  C   UNL     1      -6.403 -16.644  20.761  0.00  0.00    +0.000 A 
ATOM     62  C   UNL     1      -7.187 -16.114  19.765  0.00  0.00    +0.000 A 
ENDBRANCH  56  57
ENDBRANCH  54  56
ENDBRANCH   7  54
BRANCH   4  63
ATOM     63  O   UNL     1      -2.254 -17.496  19.351  0.00  0.00    +0.000 OA
BRANCH  63  65
ATOM     64  O   UNL     1      -2.998 -16.299  17.616  0.00  0.00    +0.000 OA
ATOM     65  C   UNL     1      -2.537 -16.316  18.756  0.00  0.00    +0.000 C 
ATOM     66  C   UNL     1      -2.175 -15.040  19.446  0.00  0.00    +0.000 C 
ENDBRANCH  63  65
ENDBRANCH   4  63
TORSDOF 17
ENDMDL
MODEL 6
REMARK VINA RESULT:      -3.9      2.847      9.628
REMARK  Name = 
REMARK  23 active torsions:
REMARK  status: ('A' for Active; 'I' for Inactive)
REMARK    1  A    between atoms: O_2  and  C_17
REMARK    2  A    between atoms: O_2  and  C_36
REMARK    3  A    between atoms: O_3  and  C_20
REMARK    4  A    between atoms: O_3  and  C_37
REMARK    5  A    between atoms: O_4  and  C_21
REMARK    6  A    between atoms: O_5  and  C_22
REMARK    7  A    between atoms: O_6  and  C_30
REMARK    8  A    between atoms: O_6  and  C_39
REMARK    9  A    between atoms: O_8  and  C_31
REMARK   10  A    between atoms: O_8  and  C_40
REMARK   11  A    between atoms: O_13  and  C_42
REMARK   12  A    between atoms: N_15  and  C_46
REMARK   13  A    between atoms: C_18  and  C_29
REMARK   14  A    between atoms: C_24  and  C_33
REMARK   15  A    between atoms: C_24  and  C_34
REMARK   16  A    between atoms: C_32  and  C_35
REMARK   17  A    between atoms: C_36  and  C_38
REMARK   18  A    between atoms: C_37  and  C_41
REMARK   19  A    between atoms: C_39  and  C_43
REMARK   20  A    between atoms: C_40  and  C_42
REMARK   21  A    between atoms: C_42  and  C_46
REMARK   22  A    between atoms: C_46  and  C_50
REMARK   23  A    between atoms: C_53  and  C_56
REMARK                            x       y       z     vdW  Elec       q    Type
REMARK                         _______ _______ _______ _____ _____    ______ ____
ROOT
ATOM      1  O   UNL     1      -0.047 -19.236  17.495  0.00  0.00    +0.000 OA
ATOM      2  O   UNL     1       3.488 -13.707  18.674  0.00  0.00    +0.000 OA
ATOM      3  C   UNL     1       1.955 -16.834  16.057  0.00  0.00    +0.000 C 
ATOM      4  C   UNL     1       1.585 -18.284  16.490  0.00  0.00    +0.000 C 
ATOM      5  C   UNL     1       2.847 -16.029  17.525  0.00  0.00    +0.000 C 
ATOM      6  C   UNL     1       0.516 -17.898  17.592  0.00  0.00    +0.000 C 
ATOM      7  C   UNL     1       2.648 -16.778  14.327  0.00  0.00    +0.000 C 
ATOM      8  C   UNL     1       3.377 -15.573  13.061  0.00  0.00    +0.000 C 
ATOM      9  C   UNL     1       1.779 -16.068  18.697  0.00  0.00    +0.000 C 
ATOM     10  C   UNL     1       1.073 -17.439  18.920  0.00  0.00    +0.000 C 
ATOM     11  C   UNL     1       3.899 -13.895  13.303  0.00  0.00    +0.000 C 
ATOM     12  C   UNL     1       0.363 -19.194  16.074  0.00  0.00    +0.000 C 
ATOM     13  C   UNL     1       3.621 -14.315  17.590  0.00  0.00    +0.000 C 
ATOM     14  C   UNL     1       4.758 -16.221  12.588  0.00  0.00    +0.000 C 
ATOM     15  C   UNL     1       4.954 -13.766  14.506  0.00  0.00    +0.000 C 
ATOM     16  C   UNL     1       4.024 -16.929  18.090  0.00  0.00    +0.000 C 
ATOM     17  C   UNL     1       4.567 -13.364  16.215  0.00  0.00    +0.000 C 
ATOM     18  C   UNL     1       6.105 -15.736  13.292  0.00  0.00    +0.000 C 
ATOM     19  C   UNL     1       6.093 -14.496  14.260  0.00  0.00    +0.000 C 
ATOM     20  C   UNL     1       4.661 -13.459  11.953  0.00  0.00    +0.000 C 
ATOM     21  C   UNL     1       2.838 -12.749  13.236  0.00  0.00    +0.000 C 
ATOM     22  C   UNL     1       7.344 -14.349  15.090  0.00  0.00    +0.000 C 
ENDROOT
BRANCH   9  23
ATOM     23  O   UNL     1       0.755 -15.112  18.425  0.00  0.00    +0.000 OA
ATOM     24  H   UNL     1       0.388 -15.344  17.547  0.00  0.00    +0.000 HD
ENDBRANCH   9  23
BRANCH   8  25
ATOM     25  O   UNL     1       2.490 -15.621  11.926  0.00  0.00    +0.000 OA
ATOM     26  H   UNL     1       2.091 -14.741  11.804  0.00  0.00    +0.000 HD
ENDBRANCH   8  25
BRANCH  18  27
ATOM     27  O   UNL     1       6.638 -16.854  14.061  0.00  0.00    +0.000 OA
BRANCH  27  29
ATOM     28  O   UNL     1       8.481 -17.031  12.760  0.00  0.00    +0.000 OA
ATOM     29  C   UNL     1       7.654 -17.557  13.498  0.00  0.00    +0.000 C 
BRANCH  29  30
ATOM     30  C   UNL     1       7.584 -19.069  13.730  0.00  0.00    +0.000 C 
BRANCH  30  31
ATOM     31  O   UNL     1       8.559 -19.596  14.636  0.00  0.00    +0.000 OA
ATOM     32  H   UNL     1       9.421 -19.507  14.188  0.00  0.00    +0.000 HD
ENDBRANCH  30  31
BRANCH  30  33
ATOM     33  C   UNL     1       7.686 -19.774  12.349  0.00  0.00    +0.000 C 
BRANCH  33  34
ATOM     34  C   UNL     1       6.602 -20.833  12.205  0.00  0.00    +0.000 A 
ATOM     35  C   UNL     1       6.286 -21.329  10.928  0.00  0.00    +0.000 A 
ATOM     36  C   UNL     1       5.877 -21.311  13.308  0.00  0.00    +0.000 A 
ATOM     37  C   UNL     1       5.288 -22.290  10.762  0.00  0.00    +0.000 A 
ATOM     38  C   UNL     1       4.880 -22.273  13.140  0.00  0.00    +0.000 A 
ATOM     39  C   UNL     1       4.587 -22.764  11.869  0.00  0.00    +0.000 A 
ENDBRANCH  33  34
BRANCH  33  41
ATOM     40  O   UNL     1      11.143 -20.314  11.431  0.00  0.00    +0.000 OA
ATOM     41  N   UNL     1       9.021 -20.361  12.170  0.00  0.00    +0.000 N 
ATOM     42  C   UNL     1       9.956 -20.097  11.206  0.00  0.00    +0.000 C 
ATOM     43  H   UNL     1       9.404 -20.803  13.000  0.00  0.00    +0.000 HD
BRANCH  42  44
ATOM     44  C   UNL     1       9.551 -19.508   9.910  0.00  0.00    +0.000 A 
ATOM     45  C   UNL     1       9.006 -20.293   8.890  0.00  0.00    +0.000 A 
ATOM     46  C   UNL     1       9.793 -18.146   9.690  0.00  0.00    +0.000 A 
ATOM     47  C   UNL     1       8.645 -19.704   7.677  0.00  0.00    +0.000 A 
ATOM     48  C   UNL     1       9.435 -17.561   8.476  0.00  0.00    +0.000 A 
ATOM     49  C   UNL     1       8.853 -18.339   7.475  0.00  0.00    +0.000 A 
ENDBRANCH  42  44
ENDBRANCH  33  41
ENDBRANCH  30  33
ENDBRANCH  29  30
ENDBRANCH  27  29
ENDBRANCH  18  27
BRANCH  17  50
ATOM     50  O   UNL     1       4.205 -11.967  16.160  0.00  0.00    +0.000 OA
BRANCH  50  52
ATOM     51  O   UNL     1       4.588 -10.404  17.715  0.00  0.00    +0.000 OA
ATOM     52  C   UNL     1       4.963 -10.987  16.701  0.00  0.00    +0.000 C 
ATOM     53  C   UNL     1       6.212 -10.584  15.977  0.00  0.00    +0.000 C 
ENDBRANCH  50  52
ENDBRANCH  17  50
BRANCH   7  54
ATOM     54  O   UNL     1       3.832 -16.843  14.899  0.00  0.00    +0.000 OA
BRANCH  54  56
ATOM     55  O   UNL     1       4.867 -18.516  15.303  0.00  0.00    +0.000 OA
ATOM     56  C   UNL     1       3.937 -18.176  14.579  0.00  0.00    +0.000 C 
BRANCH  56  57
ATOM     57  C   UNL     1       3.021 -19.007  13.119  0.00  0.00    +0.000 A 
ATOM     58  C   UNL     1       3.444 -18.961  11.721  0.00  0.00    +0.000 A 
ATOM     59  C   UNL     1       1.895 -19.883  13.185  0.00  0.00    +0.000 A 
ATOM     60  C   UNL     1       2.864 -19.649  10.626  0.00  0.00    +0.000 A 
ATOM     61  C   UNL     1       1.298 -20.582  12.098  0.00  0.00    +0.000 A 
ATOM     62  C   UNL     1       1.783 -20.470  10.817  0.00  0.00    +0.000 A 
ENDBRANCH  56  57
ENDBRANCH  54  56
ENDBRANCH   7  54
BRANCH   4  63
ATOM     63  O   UNL     1       2.727 -19.014  16.996  0.00  0.00    +0.000 OA
BRANCH  63  65
ATOM     64  O   UNL     1       2.547 -20.670  18.487  0.00  0.00    +0.000 OA
ATOM     65  C   UNL     1       2.717 -20.327  17.318  0.00  0.00    +0.000 C 
ATOM     66  C   UNL     1       3.029 -21.344  16.268  0.00  0.00    +0.000 C 
ENDBRANCH  63  65
ENDBRANCH   4  63
TORSDOF 17
ENDMDL
MODEL 7
REMARK VINA RESULT:      -3.8      3.100      9.546
REMARK  Name = 
REMARK  23 active torsions:
REMARK  status: ('A' for Active; 'I' for Inactive)
REMARK    1  A    between atoms: O_2  and  C_17
REMARK    2  A    between atoms: O_2  and  C_36
REMARK    3  A    between atoms: O_3  and  C_20
REMARK    4  A    between atoms: O_3  and  C_37
REMARK    5  A    between atoms: O_4  and  C_21
REMARK    6  A    between atoms: O_5  and  C_22
REMARK    7  A    between atoms: O_6  and  C_30
REMARK    8  A    between atoms: O_6  and  C_39
REMARK    9  A    between atoms: O_8  and  C_31
REMARK   10  A    between atoms: O_8  and  C_40
REMARK   11  A    between atoms: O_13  and  C_42
REMARK   12  A    between atoms: N_15  and  C_46
REMARK   13  A    between atoms: C_18  and  C_29
REMARK   14  A    between atoms: C_24  and  C_33
REMARK   15  A    between atoms: C_24  and  C_34
REMARK   16  A    between atoms: C_32  and  C_35
REMARK   17  A    between atoms: C_36  and  C_38
REMARK   18  A    between atoms: C_37  and  C_41
REMARK   19  A    between atoms: C_39  and  C_43
REMARK   20  A    between atoms: C_40  and  C_42
REMARK   21  A    between atoms: C_42  and  C_46
REMARK   22  A    between atoms: C_46  and  C_50
REMARK   23  A    between atoms: C_53  and  C_56
REMARK                            x       y       z     vdW  Elec       q    Type
REMARK                         _______ _______ _______ _____ _____    ______ ____
ROOT
ATOM      1  O   UNL     1       0.170 -18.042  19.145  0.00  0.00    +0.000 OA
ATOM      2  O   UNL     1       4.290 -12.807  18.868  0.00  0.00    +0.000 OA
ATOM      3  C   UNL     1       2.064 -16.079  17.047  0.00  0.00    +0.000 C 
ATOM      4  C   UNL     1       1.664 -17.410  17.749  0.00  0.00    +0.000 C 
ATOM      5  C   UNL     1       3.269 -15.182  18.206  0.00  0.00    +0.000 C 
ATOM      6  C   UNL     1       0.846 -16.770  18.944  0.00  0.00    +0.000 C 
ATOM      7  C   UNL     1       2.435 -16.329  15.237  0.00  0.00    +0.000 C 
ATOM      8  C   UNL     1       3.016 -15.388  13.699  0.00  0.00    +0.000 C 
ATOM      9  C   UNL     1       2.431 -14.951  19.533  0.00  0.00    +0.000 C 
ATOM     10  C   UNL     1       1.669 -16.198  20.075  0.00  0.00    +0.000 C 
ATOM     11  C   UNL     1       3.705 -13.756  13.595  0.00  0.00    +0.000 C 
ATOM     12  C   UNL     1       0.318 -18.235  17.686  0.00  0.00    +0.000 C 
ATOM     13  C   UNL     1       4.176 -13.566  17.882  0.00  0.00    +0.000 C 
ATOM     14  C   UNL     1       4.232 -16.235  13.104  0.00  0.00    +0.000 C 
ATOM     15  C   UNL     1       4.968 -13.579  14.571  0.00  0.00    +0.000 C 
ATOM     16  C   UNL     1       4.453 -16.117  18.695  0.00  0.00    +0.000 C 
ATOM     17  C   UNL     1       4.930 -12.913  16.240  0.00  0.00    +0.000 C 
ATOM     18  C   UNL     1       5.719 -15.803  13.492  0.00  0.00    +0.000 C 
ATOM     19  C   UNL     1       5.982 -14.451  14.250  0.00  0.00    +0.000 C 
ATOM     20  C   UNL     1       4.243 -13.588  12.087  0.00  0.00    +0.000 C 
ATOM     21  C   UNL     1       2.745 -12.525  13.536  0.00  0.00    +0.000 C 
ATOM     22  C   UNL     1       7.370 -14.326  14.827  0.00  0.00    +0.000 C 
ENDROOT
BRANCH   9  23
ATOM     23  O   UNL     1       1.454 -13.938  19.296  0.00  0.00    +0.000 OA
ATOM     24  H   UNL     1       0.582 -14.375  19.366  0.00  0.00    +0.000 HD
ENDBRANCH   9  23
BRANCH   8  25
ATOM     25  O   UNL     1       1.938 -15.494  12.750  0.00  0.00    +0.000 OA
ATOM     26  H   UNL     1       1.481 -16.342  12.888  0.00  0.00    +0.000 HD
ENDBRANCH   8  25
BRANCH  18  27
ATOM     27  O   UNL     1       6.291 -16.858  14.320  0.00  0.00    +0.000 OA
BRANCH  27  29
ATOM     28  O   UNL     1       8.258 -17.970  14.446  0.00  0.00    +0.000 OA
ATOM     29  C   UNL     1       7.305 -17.582  13.779  0.00  0.00    +0.000 C 
BRANCH  29  30
ATOM     30  C   UNL     1       7.237 -17.729  12.255  0.00  0.00    +0.000 C 
BRANCH  30  31
ATOM     31  O   UNL     1       6.806 -19.010  11.782  0.00  0.00    +0.000 OA
ATOM     32  H   UNL     1       5.899 -18.882  11.447  0.00  0.00    +0.000 HD
ENDBRANCH  30  31
BRANCH  30  33
ATOM     33  C   UNL     1       8.634 -17.375  11.674  0.00  0.00    +0.000 C 
BRANCH  33  34
ATOM     34  C   UNL     1       8.833 -15.866  11.636  0.00  0.00    +0.000 A 
ATOM     35  C   UNL     1      10.038 -15.317  12.108  0.00  0.00    +0.000 A 
ATOM     36  C   UNL     1       7.835 -14.994  11.173  0.00  0.00    +0.000 A 
ATOM     37  C   UNL     1      10.245 -13.937  12.098  0.00  0.00    +0.000 A 
ATOM     38  C   UNL     1       8.045 -13.615  11.163  0.00  0.00    +0.000 A 
ATOM     39  C   UNL     1       9.250 -13.086  11.623  0.00  0.00    +0.000 A 
ENDBRANCH  33  34
BRANCH  33  41
ATOM     40  O   UNL     1       9.715 -19.411   8.887  0.00  0.00    +0.000 OA
ATOM     41  N   UNL     1       8.796 -17.960  10.337  0.00  0.00    +0.000 N 
ATOM     42  C   UNL     1       9.874 -18.615   9.808  0.00  0.00    +0.000 C 
ATOM     43  H   UNL     1       7.926 -18.146   9.846  0.00  0.00    +0.000 HD
BRANCH  42  44
ATOM     44  C   UNL     1      11.228 -18.407  10.369  0.00  0.00    +0.000 A 
ATOM     45  C   UNL     1      11.710 -19.191  11.422  0.00  0.00    +0.000 A 
ATOM     46  C   UNL     1      12.003 -17.352   9.872  0.00  0.00    +0.000 A 
ATOM     47  C   UNL     1      12.988 -18.959  11.933  0.00  0.00    +0.000 A 
ATOM     48  C   UNL     1      13.278 -17.121  10.387  0.00  0.00    +0.000 A 
ATOM     49  C   UNL     1      13.773 -17.931  11.410  0.00  0.00    +0.000 A 
ENDBRANCH  42  44
ENDBRANCH  33  41
ENDBRANCH  30  33
ENDBRANCH  29  30
ENDBRANCH  27  29
ENDBRANCH  18  27
BRANCH  17  50
ATOM     50  O   UNL     1       4.678 -11.506  16.037  0.00  0.00    +0.000 OA
BRANCH  50  52
ATOM     51  O   UNL     1       6.064 -10.103  17.096  0.00  0.00    +0.000 OA
ATOM     52  C   UNL     1       5.656 -10.572  16.037  0.00  0.00    +0.000 C 
ATOM     53  C   UNL     1       6.151 -10.075  14.712  0.00  0.00    +0.000 C 
ENDBRANCH  50  52
ENDBRANCH  17  50
BRANCH   7  54
ATOM     54  O   UNL     1       3.694 -16.439  15.606  0.00  0.00    +0.000 OA
BRANCH  54  56
ATOM     55  O   UNL     1       2.546 -17.916  14.871  0.00  0.00    +0.000 OA
ATOM     56  C   UNL     1       3.682 -17.783  15.314  0.00  0.00    +0.000 C 
BRANCH  56  57
ATOM     57  C   UNL     1       5.047 -19.012  15.852  0.00  0.00    +0.000 A 
ATOM     58  C   UNL     1       5.941 -18.834  16.994  0.00  0.00    +0.000 A 
ATOM     59  C   UNL     1       5.305 -20.312  15.320  0.00  0.00    +0.000 A 
ATOM     60  C   UNL     1       6.886 -19.763  17.497  0.00  0.00    +0.000 A 
ATOM     61  C   UNL     1       6.250 -21.257  15.809  0.00  0.00    +0.000 A 
ATOM     62  C   UNL     1       7.040 -20.987  16.900  0.00  0.00    +0.000 A 
ENDBRANCH  56  57
ENDBRANCH  54  56
ENDBRANCH   7  54
BRANCH   4  63
ATOM     63  O   UNL     1       2.817 -18.181  18.160  0.00  0.00    +0.000 OA
BRANCH  63  65
ATOM     64  O   UNL     1       2.501 -20.331  17.633  0.00  0.00    +0.000 OA
ATOM     65  C   UNL     1       2.785 -19.493  18.487  0.00  0.00    +0.000 C 
ATOM     66  C   UNL     1       2.981 -19.900  19.912  0.00  0.00    +0.000 C 
ENDBRANCH  63  65
ENDBRANCH   4  63
TORSDOF 17
ENDMDL
MODEL 8
REMARK VINA RESULT:      -3.6      2.975      9.223
REMARK  Name = 
REMARK  23 active torsions:
REMARK  status: ('A' for Active; 'I' for Inactive)
REMARK    1  A    between atoms: O_2  and  C_17
REMARK    2  A    between atoms: O_2  and  C_36
REMARK    3  A    between atoms: O_3  and  C_20
REMARK    4  A    between atoms: O_3  and  C_37
REMARK    5  A    between atoms: O_4  and  C_21
REMARK    6  A    between atoms: O_5  and  C_22
REMARK    7  A    between atoms: O_6  and  C_30
REMARK    8  A    between atoms: O_6  and  C_39
REMARK    9  A    between atoms: O_8  and  C_31
REMARK   10  A    between atoms: O_8  and  C_40
REMARK   11  A    between atoms: O_13  and  C_42
REMARK   12  A    between atoms: N_15  and  C_46
REMARK   13  A    between atoms: C_18  and  C_29
REMARK   14  A    between atoms: C_24  and  C_33
REMARK   15  A    between atoms: C_24  and  C_34
REMARK   16  A    between atoms: C_32  and  C_35
REMARK   17  A    between atoms: C_36  and  C_38
REMARK   18  A    between atoms: C_37  and  C_41
REMARK   19  A    between atoms: C_39  and  C_43
REMARK   20  A    between atoms: C_40  and  C_42
REMARK   21  A    between atoms: C_42  and  C_46
REMARK   22  A    between atoms: C_46  and  C_50
REMARK   23  A    between atoms: C_53  and  C_56
REMARK                            x       y       z     vdW  Elec       q    Type
REMARK                         _______ _______ _______ _____ _____    ______ ____
ROOT
ATOM      1  O   UNL     1      -0.048 -20.049  16.792  0.00  0.00    +0.000 OA
ATOM      2  O   UNL     1       2.134 -14.258  19.274  0.00  0.00    +0.000 OA
ATOM      3  C   UNL     1       1.770 -17.212  16.093  0.00  0.00    +0.000 C 
ATOM      4  C   UNL     1       1.572 -18.744  16.290  0.00  0.00    +0.000 C 
ATOM      5  C   UNL     1       2.170 -16.481  17.797  0.00  0.00    +0.000 C 
ATOM      6  C   UNL     1       0.240 -18.667  17.142  0.00  0.00    +0.000 C 
ATOM      7  C   UNL     1       2.801 -16.830  14.586  0.00  0.00    +0.000 C 
ATOM      8  C   UNL     1       3.565 -15.377  13.643  0.00  0.00    +0.000 C 
ATOM      9  C   UNL     1       0.898 -16.829  18.677  0.00  0.00    +0.000 C 
ATOM     10  C   UNL     1       0.408 -18.307  18.600  0.00  0.00    +0.000 C 
ATOM     11  C   UNL     1       3.723 -13.686  14.156  0.00  0.00    +0.000 C 
ATOM     12  C   UNL     1       0.647 -19.763  15.517  0.00  0.00    +0.000 C 
ATOM     13  C   UNL     1       2.603 -14.695  18.201  0.00  0.00    +0.000 C 
ATOM     14  C   UNL     1       5.107 -15.746  13.449  0.00  0.00    +0.000 C 
ATOM     15  C   UNL     1       4.455 -13.559  15.579  0.00  0.00    +0.000 C 
ATOM     16  C   UNL     1       3.335 -17.263  18.536  0.00  0.00    +0.000 C 
ATOM     17  C   UNL     1       3.644 -13.444  17.179  0.00  0.00    +0.000 C 
ATOM     18  C   UNL     1       6.165 -15.163  14.492  0.00  0.00    +0.000 C 
ATOM     19  C   UNL     1       5.729 -14.075  15.540  0.00  0.00    +0.000 C 
ATOM     20  C   UNL     1       4.672 -12.970  13.069  0.00  0.00    +0.000 C 
ATOM     21  C   UNL     1       2.520 -12.710  13.949  0.00  0.00    +0.000 C 
ATOM     22  C   UNL     1       6.726 -13.853  16.651  0.00  0.00    +0.000 C 
ENDROOT
BRANCH   9  23
ATOM     23  O   UNL     1      -0.194 -16.008  18.262  0.00  0.00    +0.000 OA
ATOM     24  H   UNL     1      -0.681 -15.766  19.075  0.00  0.00    +0.000 HD
ENDBRANCH   9  23
BRANCH   8  25
ATOM     25  O   UNL     1       2.967 -15.407  12.333  0.00  0.00    +0.000 OA
ATOM     26  H   UNL     1       2.929 -14.499  11.985  0.00  0.00    +0.000 HD
ENDBRANCH   8  25
BRANCH  18  27
ATOM     27  O   UNL     1       6.704 -16.280  15.257  0.00  0.00    +0.000 OA
BRANCH  27  29
ATOM     28  O   UNL     1       8.879 -15.963  15.798  0.00  0.00    +0.000 OA
ATOM     29  C   UNL     1       8.031 -16.534  15.120  0.00  0.00    +0.000 C 
BRANCH  29  30
ATOM     30  C   UNL     1       8.382 -17.460  13.951  0.00  0.00    +0.000 C 
BRANCH  30  31
ATOM     31  O   UNL     1       9.414 -18.418  14.217  0.00  0.00    +0.000 OA
ATOM     32  H   UNL     1       9.715 -18.244  15.128  0.00  0.00    +0.000 HD
ENDBRANCH  30  31
BRANCH  30  33
ATOM     33  C   UNL     1       8.761 -16.576  12.731  0.00  0.00    +0.000 C 
BRANCH  33  34
ATOM     34  C   UNL     1       8.679 -17.379  11.440  0.00  0.00    +0.000 A 
ATOM     35  C   UNL     1       7.981 -18.599  11.428  0.00  0.00    +0.000 A 
ATOM     36  C   UNL     1       9.309 -16.955  10.259  0.00  0.00    +0.000 A 
ATOM     37  C   UNL     1       7.901 -19.363  10.264  0.00  0.00    +0.000 A 
ATOM     38  C   UNL     1       9.226 -17.720   9.095  0.00  0.00    +0.000 A 
ATOM     39  C   UNL     1       8.520 -18.923   9.097  0.00  0.00    +0.000 A 
ENDBRANCH  33  34
BRANCH  33  41
ATOM     40  O   UNL     1      11.524 -14.464  13.722  0.00  0.00    +0.000 OA
ATOM     41  N   UNL     1      10.100 -16.001  12.910  0.00  0.00    +0.000 N 
ATOM     42  C   UNL     1      10.454 -14.706  13.172  0.00  0.00    +0.000 C 
ATOM     43  H   UNL     1      10.824 -16.676  13.140  0.00  0.00    +0.000 HD
BRANCH  42  44
ATOM     44  C   UNL     1       9.534 -13.595  12.839  0.00  0.00    +0.000 A 
ATOM     45  C   UNL     1       9.279 -13.231  11.513  0.00  0.00    +0.000 A 
ATOM     46  C   UNL     1       8.971 -12.857  13.887  0.00  0.00    +0.000 A 
ATOM     47  C   UNL     1       8.414 -12.171  11.237  0.00  0.00    +0.000 A 
ATOM     48  C   UNL     1       8.109 -11.796  13.609  0.00  0.00    +0.000 A 
ATOM     49  C   UNL     1       7.824 -11.461  12.284  0.00  0.00    +0.000 A 
ENDBRANCH  42  44
ENDBRANCH  33  41
ENDBRANCH  30  33
ENDBRANCH  29  30
ENDBRANCH  27  29
ENDBRANCH  18  27
BRANCH  17  50
ATOM     50  O   UNL     1       3.066 -12.121  17.171  0.00  0.00    +0.000 OA
BRANCH  50  52
ATOM     51  O   UNL     1       2.338 -10.595  18.638  0.00  0.00    +0.000 OA
ATOM     52  C   UNL     1       3.280 -11.215  18.152  0.00  0.00    +0.000 C 
ATOM     53  C   UNL     1       4.697 -10.938  18.555  0.00  0.00    +0.000 C 
ENDBRANCH  50  52
ENDBRANCH  17  50
BRANCH   7  54
ATOM     54  O   UNL     1       3.825 -16.792  15.411  0.00  0.00    +0.000 OA
BRANCH  54  56
ATOM     55  O   UNL     1       5.081 -18.300  15.842  0.00  0.00    +0.000 OA
ATOM     56  C   UNL     1       4.231 -18.039  14.998  0.00  0.00    +0.000 C 
BRANCH  56  57
ATOM     57  C   UNL     1       3.734 -18.833  13.328  0.00  0.00    +0.000 A 
ATOM     58  C   UNL     1       2.409 -18.755  12.718  0.00  0.00    +0.000 A 
ATOM     59  C   UNL     1       4.588 -19.487  12.389  0.00  0.00    +0.000 A 
ATOM     60  C   UNL     1       2.025 -19.227  11.438  0.00  0.00    +0.000 A 
ATOM     61  C   UNL     1       4.221 -19.970  11.101  0.00  0.00    +0.000 A 
ATOM     62  C   UNL     1       2.940 -19.838  10.621  0.00  0.00    +0.000 A 
ENDBRANCH  56  57
ENDBRANCH  54  56
ENDBRANCH   7  54
BRANCH   4  63
ATOM     63  O   UNL     1       2.687 -19.356  16.980  0.00  0.00    +0.000 OA
BRANCH  63  65
ATOM     64  O   UNL     1       3.349 -21.228  15.952  0.00  0.00    +0.000 OA
ATOM     65  C   UNL     1       2.954 -20.682  16.980  0.00  0.00    +0.000 C 
ATOM     66  C   UNL     1       2.652 -21.491  18.201  0.00  0.00    +0.000 C 
ENDBRANCH  63  65
ENDBRANCH   4  63
TORSDOF 17
ENDMDL
MODEL 9
REMARK VINA RESULT:      -3.2     18.643     23.400
REMARK  Name = 
REMARK  23 active torsions:
REMARK  status: ('A' for Active; 'I' for Inactive)
REMARK    1  A    between atoms: O_2  and  C_17
REMARK    2  A    between atoms: O_2  and  C_36
REMARK    3  A    between atoms: O_3  and  C_20
REMARK    4  A    between atoms: O_3  and  C_37
REMARK    5  A    between atoms: O_4  and  C_21
REMARK    6  A    between atoms: O_5  and  C_22
REMARK    7  A    between atoms: O_6  and  C_30
REMARK    8  A    between atoms: O_6  and  C_39
REMARK    9  A    between atoms: O_8  and  C_31
REMARK   10  A    between atoms: O_8  and  C_40
REMARK   11  A    between atoms: O_13  and  C_42
REMARK   12  A    between atoms: N_15  and  C_46
REMARK   13  A    between atoms: C_18  and  C_29
REMARK   14  A    between atoms: C_24  and  C_33
REMARK   15  A    between atoms: C_24  and  C_34
REMARK   16  A    between atoms: C_32  and  C_35
REMARK   17  A    between atoms: C_36  and  C_38
REMARK   18  A    between atoms: C_37  and  C_41
REMARK   19  A    between atoms: C_39  and  C_43
REMARK   20  A    between atoms: C_40  and  C_42
REMARK   21  A    between atoms: C_42  and  C_46
REMARK   22  A    between atoms: C_46  and  C_50
REMARK   23  A    between atoms: C_53  and  C_56
REMARK                            x       y       z     vdW  Elec       q    Type
REMARK                         _______ _______ _______ _____ _____    ______ ____
ROOT
ATOM      1  O   UNL     1     -13.566 -15.415  34.134  0.00  0.00    +0.000 OA
ATOM      2  O   UNL     1     -15.900  -9.368  32.568  0.00  0.00    +0.000 OA
ATOM      3  C   UNL     1     -14.290 -13.282  31.533  0.00  0.00    +0.000 C 
ATOM      4  C   UNL     1     -13.351 -14.145  32.425  0.00  0.00    +0.000 C 
ATOM      5  C   UNL     1     -14.412 -11.573  32.348  0.00  0.00    +0.000 C 
ATOM      6  C   UNL     1     -14.304 -14.245  33.685  0.00  0.00    +0.000 C 
ATOM      7  C   UNL     1     -13.911 -13.486  29.718  0.00  0.00    +0.000 C 
ATOM      8  C   UNL     1     -14.436 -12.849  28.014  0.00  0.00    +0.000 C 
ATOM      9  C   UNL     1     -15.025 -11.870  33.780  0.00  0.00    +0.000 C 
ATOM     10  C   UNL     1     -14.348 -13.026  34.578  0.00  0.00    +0.000 C 
ATOM     11  C   UNL     1     -15.472 -11.464  27.621  0.00  0.00    +0.000 C 
ATOM     12  C   UNL     1     -13.346 -15.701  32.699  0.00  0.00    +0.000 C 
ATOM     13  C   UNL     1     -15.326 -10.061  31.701  0.00  0.00    +0.000 C 
ATOM     14  C   UNL     1     -13.089 -12.395  27.285  0.00  0.00    +0.000 C 
ATOM     15  C   UNL     1     -14.953 -10.114  28.317  0.00  0.00    +0.000 C 
ATOM     16  C   UNL     1     -12.991 -10.960  32.693  0.00  0.00    +0.000 C 
ATOM     17  C   UNL     1     -15.517  -9.449  29.889  0.00  0.00    +0.000 C 
ATOM     18  C   UNL     1     -12.679 -10.855  27.339  0.00  0.00    +0.000 C 
ATOM     19  C   UNL     1     -13.686  -9.783  27.897  0.00  0.00    +0.000 C 
ATOM     20  C   UNL     1     -15.360 -11.251  26.028  0.00  0.00    +0.000 C 
ATOM     21  C   UNL     1     -17.025 -11.648  27.624  0.00  0.00    +0.000 C 
ATOM     22  C   UNL     1     -13.062  -8.440  28.184  0.00  0.00    +0.000 C 
ENDROOT
BRANCH   9  23
ATOM     23  O   UNL     1     -16.402 -12.217  33.635  0.00  0.00    +0.000 OA
ATOM     24  H   UNL     1     -16.861 -11.405  33.340  0.00  0.00    +0.000 HD
ENDBRANCH   9  23
BRANCH   8  25
ATOM     25  O   UNL     1     -14.920 -14.004  27.301  0.00  0.00    +0.000 OA
ATOM     26  H   UNL     1     -14.413 -14.098  26.476  0.00  0.00    +0.000 HD
ENDBRANCH   8  25
BRANCH  18  27
ATOM     27  O   UNL     1     -11.468 -10.740  28.143  0.00  0.00    +0.000 OA
BRANCH  27  29
ATOM     28  O   UNL     1      -9.491 -11.576  27.427  0.00  0.00    +0.000 OA
ATOM     29  C   UNL     1     -10.292 -10.648  27.471  0.00  0.00    +0.000 C 
BRANCH  29  30
ATOM     30  C   UNL     1      -9.983  -9.252  26.920  0.00  0.00    +0.000 C 
BRANCH  30  31
ATOM     31  O   UNL     1     -10.289  -9.059  25.535  0.00  0.00    +0.000 OA
ATOM     32  H   UNL     1      -9.529  -8.581  25.154  0.00  0.00    +0.000 HD
ENDBRANCH  30  31
BRANCH  30  33
ATOM     33  C   UNL     1      -8.485  -8.945  27.195  0.00  0.00    +0.000 C 
BRANCH  33  34
ATOM     34  C   UNL     1      -8.298  -8.401  28.605  0.00  0.00    +0.000 A 
ATOM     35  C   UNL     1      -6.998  -8.195  29.099  0.00  0.00    +0.000 A 
ATOM     36  C   UNL     1      -9.387  -8.127  29.447  0.00  0.00    +0.000 A 
ATOM     37  C   UNL     1      -6.795  -7.710  30.392  0.00  0.00    +0.000 A 
ATOM     38  C   UNL     1      -9.182  -7.640  30.739  0.00  0.00    +0.000 A 
ATOM     39  C   UNL     1      -7.887  -7.430  31.210  0.00  0.00    +0.000 A 
ENDBRANCH  33  34
BRANCH  33  41
ATOM     40  O   UNL     1      -7.056  -6.044  25.576  0.00  0.00    +0.000 OA
ATOM     41  N   UNL     1      -7.962  -8.005  26.195  0.00  0.00    +0.000 N 
ATOM     42  C   UNL     1      -7.890  -6.640  26.250  0.00  0.00    +0.000 C 
ATOM     43  H   UNL     1      -7.335  -8.419  25.511  0.00  0.00    +0.000 HD
BRANCH  42  44
ATOM     44  C   UNL     1      -8.782  -5.878  27.154  0.00  0.00    +0.000 A 
ATOM     45  C   UNL     1      -8.269  -5.071  28.174  0.00  0.00    +0.000 A 
ATOM     46  C   UNL     1     -10.166  -6.035  27.016  0.00  0.00    +0.000 A 
ATOM     47  C   UNL     1      -9.140  -4.375  29.014  0.00  0.00    +0.000 A 
ATOM     48  C   UNL     1     -11.034  -5.341  27.859  0.00  0.00    +0.000 A 
ATOM     49  C   UNL     1     -10.519  -4.504  28.850  0.00  0.00    +0.000 A 
ENDBRANCH  42  44
ENDBRANCH  33  41
ENDBRANCH  30  33
ENDBRANCH  29  30
ENDBRANCH  27  29
ENDBRANCH  18  27
BRANCH  17  50
ATOM     50  O   UNL     1     -16.853  -8.985  29.600  0.00  0.00    +0.000 OA
BRANCH  50  52
ATOM     51  O   UNL     1     -17.991  -7.386  30.678  0.00  0.00    +0.000 OA
ATOM     52  C   UNL     1     -17.238  -7.698  29.760  0.00  0.00    +0.000 C 
ATOM     53  C   UNL     1     -16.789  -6.700  28.735  0.00  0.00    +0.000 C 
ENDBRANCH  50  52
ENDBRANCH  17  50
BRANCH   7  54
ATOM     54  O   UNL     1     -13.157 -12.416  29.851  0.00  0.00    +0.000 OA
BRANCH  54  56
ATOM     55  O   UNL     1     -12.495 -14.264  29.425  0.00  0.00    +0.000 OA
ATOM     56  C   UNL     1     -12.018 -13.179  29.740  0.00  0.00    +0.000 C 
BRANCH  56  57
ATOM     57  C   UNL     1     -10.282 -12.609  30.308  0.00  0.00    +0.000 A 
ATOM     58  C   UNL     1     -10.004 -11.422  31.114  0.00  0.00    +0.000 A 
ATOM     59  C   UNL     1      -9.045 -13.304  30.149  0.00  0.00    +0.000 A 
ATOM     60  C   UNL     1      -8.755 -11.023  31.651  0.00  0.00    +0.000 A 
ATOM     61  C   UNL     1      -7.780 -12.918  30.678  0.00  0.00    +0.000 A 
ATOM     62  C   UNL     1      -7.633 -11.779  31.433  0.00  0.00    +0.000 A 
ENDBRANCH  56  57
ENDBRANCH  54  56
ENDBRANCH   7  54
BRANCH   4  63
ATOM     63  O   UNL     1     -12.086 -13.491  32.684  0.00  0.00    +0.000 OA
BRANCH  63  65
ATOM     64  O   UNL     1     -10.912 -13.491  34.586  0.00  0.00    +0.000 OA
ATOM     65  C   UNL     1     -11.114 -13.989  33.481  0.00  0.00    +0.000 C 
ATOM     66  C   UNL     1     -10.217 -15.066  32.959  0.00  0.00    +0.000 C 
ENDBRANCH  63  65
ENDBRANCH   4  63
TORSDOF 17
ENDMDL
