MODEL 1
REMARK VINA RESULT:      -6.5      0.000      0.000
REMARK  Name = 
REMARK  5 active torsions:
REMARK  status: ('A' for Active; 'I' for Inactive)
REMARK    1  A    between atoms: O_1  and  C_16
REMARK    2  A    between atoms: O_3  and  C_25
REMARK    3  A    between atoms: C_11  and  C_22
REMARK    4  A    between atoms: C_16  and  C_28
REMARK    5  A    between atoms: C_29  and  C_31
REMARK                            x       y       z     vdW  Elec       q    Type
REMARK                         _______ _______ _______ _____ _____    ______ ____
ROOT
ATOM      1  O   UNL     1      10.759 -14.082  13.446  0.00  0.00    +0.000 OA
ATOM      2  N   UNL     1       7.149  -6.042   9.913  0.00  0.00    +0.000 NA
ATOM      3  C   UNL     1       8.854  -9.483  10.196  0.00  0.00    +0.000 C 
ATOM      4  C   UNL     1      10.191 -10.011  10.779  0.00  0.00    +0.000 C 
ATOM      5  C   UNL     1       8.504 -11.709  11.011  0.00  0.00    +0.000 C 
ATOM      6  C   UNL     1       9.787 -11.194  11.675  0.00  0.00    +0.000 C 
ATOM      7  C   UNL     1       8.622  -7.981  10.449  0.00  0.00    +0.000 C 
ATOM      8  C   UNL     1       7.753 -10.404  10.763  0.00  0.00    +0.000 C 
ATOM      9  C   UNL     1       7.825 -12.838  11.831  0.00  0.00    +0.000 C 
ATOM     10  C   UNL     1       9.865  -7.189   9.988  0.00  0.00    +0.000 C 
ATOM     11  C   UNL     1      10.978  -8.947  11.538  0.00  0.00    +0.000 C 
ATOM     12  C   UNL     1       8.870 -13.990  11.930  0.00  0.00    +0.000 C 
ATOM     13  C   UNL     1      11.138  -7.655  10.739  0.00  0.00    +0.000 C 
ATOM     14  C   UNL     1       9.620  -5.655  10.080  0.00  0.00    +0.000 C 
ATOM     15  C   UNL     1      10.824 -12.295  11.840  0.00  0.00    +0.000 C 
ATOM     16  C   UNL     1       7.361  -7.488   9.728  0.00  0.00    +0.000 C 
ATOM     17  C   UNL     1       8.285  -5.262   9.344  0.00  0.00    +0.000 C 
ATOM     18  C   UNL     1       6.587 -13.378  11.071  0.00  0.00    +0.000 C 
ATOM     19  C   UNL     1      10.186 -13.492  12.532  0.00  0.00    +0.000 C 
ATOM     20  C   UNL     1       7.378 -12.347  13.231  0.00  0.00    +0.000 C 
ATOM     21  C   UNL     1       8.310 -15.232  12.623  0.00  0.00    +0.000 C 
ATOM     22  C   UNL     1       6.013 -14.657  11.687  0.00  0.00    +0.000 C 
ATOM     23  C   UNL     1       7.070 -15.744  11.888  0.00  0.00    +0.000 C 
ATOM     24  C   UNL     1       8.005  -3.742   9.463  0.00  0.00    +0.000 C 
ATOM     25  C   UNL     1       5.866  -5.674   9.282  0.00  0.00    +0.000 C 
ATOM     26  C   UNL     1      10.818  -4.877   9.517  0.00  0.00    +0.000 C 
ATOM     27  C   UNL     1       5.520  -4.192   9.457  0.00  0.00    +0.000 C 
ATOM     28  C   UNL     1       6.652  -3.339   8.888  0.00  0.00    +0.000 C 
ATOM     29  C   UNL     1       5.215  -3.845  10.917  0.00  0.00    +0.000 C 
ENDROOT
BRANCH  14  30
ATOM     30  O   UNL     1       9.494  -5.306  11.469  0.00  0.00    +0.000 OA
ATOM     31  H   UNL     1      10.366  -4.938  11.719  0.00  0.00    +0.000 HD
ENDBRANCH  14  30
BRANCH  23  32
ATOM     32  O   UNL     1       6.481 -16.812  12.620  0.00  0.00    +0.000 OA
ATOM     33  H   UNL     1       7.185 -17.448  12.837  0.00  0.00    +0.000 HD
ENDBRANCH  23  32
TORSDOF 2
ENDMDL
MODEL 2
REMARK VINA RESULT:      -6.0     24.686     27.933
REMARK  Name = 
REMARK  5 active torsions:
REMARK  status: ('A' for Active; 'I' for Inactive)
REMARK    1  A    between atoms: O_1  and  C_16
REMARK    2  A    between atoms: O_3  and  C_25
REMARK    3  A    between atoms: C_11  and  C_22
REMARK    4  A    between atoms: C_16  and  C_28
REMARK    5  A    between atoms: C_29  and  C_31
REMARK                            x       y       z     vdW  Elec       q    Type
REMARK                         _______ _______ _______ _____ _____    ______ ____
ROOT
ATOM      1  O   UNL     1     -19.902  -7.457  -3.452  0.00  0.00    +0.000 OA
ATOM      2  N   UNL     1     -14.307  -7.843   4.210  0.00  0.00    +0.000 NA
ATOM      3  C   UNL     1     -15.954  -6.688   0.926  0.00  0.00    +0.000 C 
ATOM      4  C   UNL     1     -15.970  -7.193  -0.541  0.00  0.00    +0.000 C 
ATOM      5  C   UNL     1     -18.081  -6.156  -0.041  0.00  0.00    +0.000 C 
ATOM      6  C   UNL     1     -17.459  -7.248  -0.920  0.00  0.00    +0.000 C 
ATOM      7  C   UNL     1     -15.187  -7.616   1.888  0.00  0.00    +0.000 C 
ATOM      8  C   UNL     1     -17.431  -6.453   1.307  0.00  0.00    +0.000 C 
ATOM      9  C   UNL     1     -19.628  -6.115  -0.152  0.00  0.00    +0.000 C 
ATOM     10  C   UNL     1     -13.785  -7.905   1.308  0.00  0.00    +0.000 C 
ATOM     11  C   UNL     1     -15.272  -8.537  -0.722  0.00  0.00    +0.000 C 
ATOM     12  C   UNL     1     -19.947  -5.835  -1.652  0.00  0.00    +0.000 C 
ATOM     13  C   UNL     1     -13.882  -8.567  -0.090  0.00  0.00    +0.000 C 
ATOM     14  C   UNL     1     -12.915  -8.712   2.315  0.00  0.00    +0.000 C 
ATOM     15  C   UNL     1     -17.784  -7.047  -2.393  0.00  0.00    +0.000 C 
ATOM     16  C   UNL     1     -15.083  -6.996   3.288  0.00  0.00    +0.000 C 
ATOM     17  C   UNL     1     -12.908  -8.012   3.725  0.00  0.00    +0.000 C 
ATOM     18  C   UNL     1     -20.192  -4.940   0.687  0.00  0.00    +0.000 C 
ATOM     19  C   UNL     1     -19.288  -6.874  -2.561  0.00  0.00    +0.000 C 
ATOM     20  C   UNL     1     -20.277  -7.435   0.336  0.00  0.00    +0.000 C 
ATOM     21  C   UNL     1     -21.444  -5.657  -1.909  0.00  0.00    +0.000 C 
ATOM     22  C   UNL     1     -21.678  -4.677   0.429  0.00  0.00    +0.000 C 
ATOM     23  C   UNL     1     -22.003  -4.517  -1.057  0.00  0.00    +0.000 C 
ATOM     24  C   UNL     1     -12.079  -8.826   4.751  0.00  0.00    +0.000 C 
ATOM     25  C   UNL     1     -14.348  -7.229   5.552  0.00  0.00    +0.000 C 
ATOM     26  C   UNL     1     -11.489  -8.898   1.776  0.00  0.00    +0.000 C 
ATOM     27  C   UNL     1     -13.608  -8.056   6.608  0.00  0.00    +0.000 C 
ATOM     28  C   UNL     1     -12.161  -8.262   6.165  0.00  0.00    +0.000 C 
ATOM     29  C   UNL     1     -14.317  -9.382   6.894  0.00  0.00    +0.000 C 
ENDROOT
BRANCH  14  30
ATOM     30  O   UNL     1     -13.496 -10.019   2.459  0.00  0.00    +0.000 OA
ATOM     31  H   UNL     1     -13.860 -10.037   3.367  0.00  0.00    +0.000 HD
ENDBRANCH  14  30
BRANCH  23  32
ATOM     32  O   UNL     1     -23.418  -4.454  -1.202  0.00  0.00    +0.000 OA
ATOM     33  H   UNL     1     -23.696  -3.542  -1.010  0.00  0.00    +0.000 HD
ENDBRANCH  23  32
TORSDOF 2
ENDMDL
MODEL 3
REMARK VINA RESULT:      -5.8     11.692     15.025
REMARK  Name = 
REMARK  5 active torsions:
REMARK  status: ('A' for Active; 'I' for Inactive)
REMARK    1  A    between atoms: O_1  and  C_16
REMARK    2  A    between atoms: O_3  and  C_25
REMARK    3  A    between atoms: C_11  and  C_22
REMARK    4  A    between atoms: C_16  and  C_28
REMARK    5  A    between atoms: C_29  and  C_31
REMARK                            x       y       z     vdW  Elec       q    Type
REMARK                         _______ _______ _______ _____ _____    ______ ____
ROOT
ATOM      1  O   UNL     1       7.282   5.981  10.847  0.00  0.00    +0.000 OA
ATOM      2  N   UNL     1       4.908   0.146  17.952  0.00  0.00    +0.000 NA
ATOM      3  C   UNL     1       4.770   2.913  15.277  0.00  0.00    +0.000 C 
ATOM      4  C   UNL     1       5.461   4.286  15.068  0.00  0.00    +0.000 C 
ATOM      5  C   UNL     1       5.029   3.287  12.924  0.00  0.00    +0.000 C 
ATOM      6  C   UNL     1       6.005   4.237  13.631  0.00  0.00    +0.000 C 
ATOM      7  C   UNL     1       5.284   2.145  16.510  0.00  0.00    +0.000 C 
ATOM      8  C   UNL     1       4.927   2.155  13.941  0.00  0.00    +0.000 C 
ATOM      9  C   UNL     1       5.461   2.970  11.468  0.00  0.00    +0.000 C 
ATOM     10  C   UNL     1       5.229   3.071  17.745  0.00  0.00    +0.000 C 
ATOM     11  C   UNL     1       6.553   4.571  16.095  0.00  0.00    +0.000 C 
ATOM     12  C   UNL     1       5.504   4.338  10.722  0.00  0.00    +0.000 C 
ATOM     13  C   UNL     1       6.083   4.346  17.530  0.00  0.00    +0.000 C 
ATOM     14  C   UNL     1       5.592   2.295  19.045  0.00  0.00    +0.000 C 
ATOM     15  C   UNL     1       6.121   5.572  12.911  0.00  0.00    +0.000 C 
ATOM     16  C   UNL     1       4.467   0.868  16.746  0.00  0.00    +0.000 C 
ATOM     17  C   UNL     1       4.727   0.986  19.169  0.00  0.00    +0.000 C 
ATOM     18  C   UNL     1       4.395   2.081  10.778  0.00  0.00    +0.000 C 
ATOM     19  C   UNL     1       6.422   5.330  11.438  0.00  0.00    +0.000 C 
ATOM     20  C   UNL     1       6.828   2.244  11.415  0.00  0.00    +0.000 C 
ATOM     21  C   UNL     1       5.812   4.184   9.232  0.00  0.00    +0.000 C 
ATOM     22  C   UNL     1       4.619   1.935   9.270  0.00  0.00    +0.000 C 
ATOM     23  C   UNL     1       4.776   3.280   8.561  0.00  0.00    +0.000 C 
ATOM     24  C   UNL     1       5.107   0.182  20.438  0.00  0.00    +0.000 C 
ATOM     25  C   UNL     1       4.147  -1.116  18.043  0.00  0.00    +0.000 C 
ATOM     26  C   UNL     1       5.427   3.194  20.280  0.00  0.00    +0.000 C 
ATOM     27  C   UNL     1       4.561  -1.975  19.242  0.00  0.00    +0.000 C 
ATOM     28  C   UNL     1       4.395  -1.164  20.526  0.00  0.00    +0.000 C 
ATOM     29  C   UNL     1       5.982  -2.524  19.088  0.00  0.00    +0.000 C 
ENDROOT
BRANCH  14  30
ATOM     30  O   UNL     1       6.978   1.920  18.967  0.00  0.00    +0.000 OA
ATOM     31  H   UNL     1       7.213   1.628  19.871  0.00  0.00    +0.000 HD
ENDBRANCH  14  30
BRANCH  23  32
ATOM     32  O   UNL     1       5.152   3.034   7.210  0.00  0.00    +0.000 OA
ATOM     33  H   UNL     1       6.092   2.783   7.205  0.00  0.00    +0.000 HD
ENDBRANCH  23  32
TORSDOF 2
ENDMDL
MODEL 4
REMARK VINA RESULT:      -5.7      4.214      7.069
REMARK  Name = 
REMARK  5 active torsions:
REMARK  status: ('A' for Active; 'I' for Inactive)
REMARK    1  A    between atoms: O_1  and  C_16
REMARK    2  A    between atoms: O_3  and  C_25
REMARK    3  A    between atoms: C_11  and  C_22
REMARK    4  A    between atoms: C_16  and  C_28
REMARK    5  A    between atoms: C_29  and  C_31
REMARK                            x       y       z     vdW  Elec       q    Type
REMARK                         _______ _______ _______ _____ _____    ______ ____
ROOT
ATOM      1  O   UNL     1       7.759 -20.324  10.954  0.00  0.00    +0.000 OA
ATOM      2  N   UNL     1       5.924 -11.105  12.296  0.00  0.00    +0.000 NA
ATOM      3  C   UNL     1       6.974 -14.761  12.898  0.00  0.00    +0.000 C 
ATOM      4  C   UNL     1       6.239 -16.126  12.971  0.00  0.00    +0.000 C 
ATOM      5  C   UNL     1       8.449 -16.466  12.087  0.00  0.00    +0.000 C 
ATOM      6  C   UNL     1       7.030 -17.047  12.029  0.00  0.00    +0.000 C 
ATOM      7  C   UNL     1       6.052 -13.585  12.518  0.00  0.00    +0.000 C 
ATOM      8  C   UNL     1       8.165 -14.974  11.940  0.00  0.00    +0.000 C 
ATOM      9  C   UNL     1       9.416 -17.162  11.092  0.00  0.00    +0.000 C 
ATOM     10  C   UNL     1       4.818 -13.585  13.446  0.00  0.00    +0.000 C 
ATOM     11  C   UNL     1       4.764 -16.035  12.594  0.00  0.00    +0.000 C 
ATOM     12  C   UNL     1       9.442 -18.667  11.496  0.00  0.00    +0.000 C 
ATOM     13  C   UNL     1       4.035 -14.919  13.338  0.00  0.00    +0.000 C 
ATOM     14  C   UNL     1       3.933 -12.328  13.205  0.00  0.00    +0.000 C 
ATOM     15  C   UNL     1       7.010 -18.530  12.367  0.00  0.00    +0.000 C 
ATOM     16  C   UNL     1       6.800 -12.248  12.603  0.00  0.00    +0.000 C 
ATOM     17  C   UNL     1       4.804 -11.017  13.274  0.00  0.00    +0.000 C 
ATOM     18  C   UNL     1      10.849 -16.595  11.257  0.00  0.00    +0.000 C 
ATOM     19  C   UNL     1       8.032 -19.261  11.508  0.00  0.00    +0.000 C 
ATOM     20  C   UNL     1       8.968 -16.970   9.621  0.00  0.00    +0.000 C 
ATOM     21  C   UNL     1      10.442 -19.478  10.671  0.00  0.00    +0.000 C 
ATOM     22  C   UNL     1      11.906 -17.401  10.497  0.00  0.00    +0.000 C 
ATOM     23  C   UNL     1      11.850 -18.896  10.811  0.00  0.00    +0.000 C 
ATOM     24  C   UNL     1       3.944  -9.758  12.995  0.00  0.00    +0.000 C 
ATOM     25  C   UNL     1       6.743  -9.877  12.294  0.00  0.00    +0.000 C 
ATOM     26  C   UNL     1       2.770 -12.279  14.206  0.00  0.00    +0.000 C 
ATOM     27  C   UNL     1       5.937  -8.624  11.937  0.00  0.00    +0.000 C 
ATOM     28  C   UNL     1       4.770  -8.480  12.911  0.00  0.00    +0.000 C 
ATOM     29  C   UNL     1       5.471  -8.642  10.479  0.00  0.00    +0.000 C 
ENDROOT
BRANCH  14  30
ATOM     30  O   UNL     1       3.365 -12.428  11.888  0.00  0.00    +0.000 OA
ATOM     31  H   UNL     1       3.993 -11.957  11.304  0.00  0.00    +0.000 HD
ENDBRANCH  14  30
BRANCH  23  32
ATOM     32  O   UNL     1      12.742 -19.573   9.932  0.00  0.00    +0.000 OA
ATOM     33  H   UNL     1      12.633 -20.529  10.077  0.00  0.00    +0.000 HD
ENDBRANCH  23  32
TORSDOF 2
ENDMDL
MODEL 5
REMARK VINA RESULT:      -5.5      4.069      6.314
REMARK  Name = 
REMARK  5 active torsions:
REMARK  status: ('A' for Active; 'I' for Inactive)
REMARK    1  A    between atoms: O_1  and  C_16
REMARK    2  A    between atoms: O_3  and  C_25
REMARK    3  A    between atoms: C_11  and  C_22
REMARK    4  A    between atoms: C_16  and  C_28
REMARK    5  A    between atoms: C_29  and  C_31
REMARK                            x       y       z     vdW  Elec       q    Type
REMARK                         _______ _______ _______ _____ _____    ______ ____
ROOT
ATOM      1  O   UNL     1      12.357 -18.606  12.286  0.00  0.00    +0.000 OA
ATOM      2  N   UNL     1       5.071 -12.519  12.375  0.00  0.00    +0.000 NA
ATOM      3  C   UNL     1       7.894 -14.841  11.166  0.00  0.00    +0.000 C 
ATOM      4  C   UNL     1       9.445 -14.815  11.213  0.00  0.00    +0.000 C 
ATOM      5  C   UNL     1       8.691 -17.095  11.325  0.00  0.00    +0.000 C 
ATOM      6  C   UNL     1       9.843 -16.189  11.777  0.00  0.00    +0.000 C 
ATOM      7  C   UNL     1       7.236 -13.666  11.915  0.00  0.00    +0.000 C 
ATOM      8  C   UNL     1       7.481 -16.237  11.679  0.00  0.00    +0.000 C 
ATOM      9  C   UNL     1       8.805 -18.532  11.902  0.00  0.00    +0.000 C 
ATOM     10  C   UNL     1       7.857 -12.339  11.426  0.00  0.00    +0.000 C 
ATOM     11  C   UNL     1      10.002 -13.662  12.041  0.00  0.00    +0.000 C 
ATOM     12  C   UNL     1      10.161 -19.099  11.385  0.00  0.00    +0.000 C 
ATOM     13  C   UNL     1       9.389 -12.316  11.661  0.00  0.00    +0.000 C 
ATOM     14  C   UNL     1       7.119 -11.114  12.038  0.00  0.00    +0.000 C 
ATOM     15  C   UNL     1      11.196 -16.728  11.337  0.00  0.00    +0.000 C 
ATOM     16  C   UNL     1       5.715 -13.665  11.712  0.00  0.00    +0.000 C 
ATOM     17  C   UNL     1       5.565 -11.232  11.810  0.00  0.00    +0.000 C 
ATOM     18  C   UNL     1       7.667 -19.423  11.343  0.00  0.00    +0.000 C 
ATOM     19  C   UNL     1      11.326 -18.183  11.766  0.00  0.00    +0.000 C 
ATOM     20  C   UNL     1       8.733 -18.540  13.450  0.00  0.00    +0.000 C 
ATOM     21  C   UNL     1      10.375 -20.560  11.781  0.00  0.00    +0.000 C 
ATOM     22  C   UNL     1       7.856 -20.909  11.662  0.00  0.00    +0.000 C 
ATOM     23  C   UNL     1       9.233 -21.432  11.255  0.00  0.00    +0.000 C 
ATOM     24  C   UNL     1       4.812 -10.039  12.451  0.00  0.00    +0.000 C 
ATOM     25  C   UNL     1       3.608 -12.654  12.223  0.00  0.00    +0.000 C 
ATOM     26  C   UNL     1       7.670  -9.801  11.461  0.00  0.00    +0.000 C 
ATOM     27  C   UNL     1       2.831 -11.533  12.920  0.00  0.00    +0.000 C 
ATOM     28  C   UNL     1       3.296 -10.183  12.379  0.00  0.00    +0.000 C 
ATOM     29  C   UNL     1       2.955 -11.615  14.444  0.00  0.00    +0.000 C 
ENDROOT
BRANCH  14  30
ATOM     30  O   UNL     1       7.371 -11.103  13.453  0.00  0.00    +0.000 OA
ATOM     31  H   UNL     1       8.343 -11.024  13.537  0.00  0.00    +0.000 HD
ENDBRANCH  14  30
BRANCH  23  32
ATOM     32  O   UNL     1       9.373 -22.760  11.749  0.00  0.00    +0.000 OA
ATOM     33  H   UNL     1      10.103 -22.763  12.391  0.00  0.00    +0.000 HD
ENDBRANCH  23  32
TORSDOF 2
ENDMDL
MODEL 6
REMARK VINA RESULT:      -5.4     10.021     12.407
REMARK  Name = 
REMARK  5 active torsions:
REMARK  status: ('A' for Active; 'I' for Inactive)
REMARK    1  A    between atoms: O_1  and  C_16
REMARK    2  A    between atoms: O_3  and  C_25
REMARK    3  A    between atoms: C_11  and  C_22
REMARK    4  A    between atoms: C_16  and  C_28
REMARK    5  A    between atoms: C_29  and  C_31
REMARK                            x       y       z     vdW  Elec       q    Type
REMARK                         _______ _______ _______ _____ _____    ______ ____
ROOT
ATOM      1  O   UNL     1       6.549 -19.696   0.233  0.00  0.00    +0.000 OA
ATOM      2  N   UNL     1      10.809 -18.197   8.585  0.00  0.00    +0.000 NA
ATOM      3  C   UNL     1       9.124 -17.617   5.171  0.00  0.00    +0.000 C 
ATOM      4  C   UNL     1       9.506 -17.877   3.690  0.00  0.00    +0.000 C 
ATOM      5  C   UNL     1       7.124 -18.095   3.941  0.00  0.00    +0.000 C 
ATOM      6  C   UNL     1       8.295 -18.617   3.098  0.00  0.00    +0.000 C 
ATOM      7  C   UNL     1      10.161 -18.153   6.178  0.00  0.00    +0.000 C 
ATOM      8  C   UNL     1       7.704 -18.195   5.348  0.00  0.00    +0.000 C 
ATOM      9  C   UNL     1       5.789 -18.814   3.611  0.00  0.00    +0.000 C 
ATOM     10  C   UNL     1      11.562 -17.633   5.790  0.00  0.00    +0.000 C 
ATOM     11  C   UNL     1      10.803 -18.664   3.533  0.00  0.00    +0.000 C 
ATOM     12  C   UNL     1       5.516 -18.547   2.100  0.00  0.00    +0.000 C 
ATOM     13  C   UNL     1      11.948 -18.077   4.355  0.00  0.00    +0.000 C 
ATOM     14  C   UNL     1      12.622 -18.020   6.862  0.00  0.00    +0.000 C 
ATOM     15  C   UNL     1       8.053 -18.423   1.608  0.00  0.00    +0.000 C 
ATOM     16  C   UNL     1       9.802 -17.740   7.611  0.00  0.00    +0.000 C 
ATOM     17  C   UNL     1      12.139 -17.588   8.298  0.00  0.00    +0.000 C 
ATOM     18  C   UNL     1       4.630 -18.187   4.426  0.00  0.00    +0.000 C 
ATOM     19  C   UNL     1       6.694 -19.000   1.235  0.00  0.00    +0.000 C 
ATOM     20  C   UNL     1       5.857 -20.330   3.922  0.00  0.00    +0.000 C 
ATOM     21  C   UNL     1       4.169 -19.104   1.640  0.00  0.00    +0.000 C 
ATOM     22  C   UNL     1       3.248 -18.666   3.973  0.00  0.00    +0.000 C 
ATOM     23  C   UNL     1       3.030 -18.507   2.468  0.00  0.00    +0.000 C 
ATOM     24  C   UNL     1      13.165 -18.004   9.382  0.00  0.00    +0.000 C 
ATOM     25  C   UNL     1      10.335 -17.855   9.941  0.00  0.00    +0.000 C 
ATOM     26  C   UNL     1      13.989 -17.406   6.525  0.00  0.00    +0.000 C 
ATOM     27  C   UNL     1      11.289 -18.329  11.042  0.00  0.00    +0.000 C 
ATOM     28  C   UNL     1      12.675 -17.734  10.801  0.00  0.00    +0.000 C 
ATOM     29  C   UNL     1      11.329 -19.856  11.144  0.00  0.00    +0.000 C 
ENDROOT
BRANCH  14  30
ATOM     30  O   UNL     1      12.775 -19.449   6.844  0.00  0.00    +0.000 OA
ATOM     31  H   UNL     1      12.409 -19.732   5.981  0.00  0.00    +0.000 HD
ENDBRANCH  14  30
BRANCH  23  32
ATOM     32  O   UNL     1       1.801 -19.137   2.124  0.00  0.00    +0.000 OA
ATOM     33  H   UNL     1       1.889 -20.087   2.315  0.00  0.00    +0.000 HD
ENDBRANCH  23  32
TORSDOF 2
ENDMDL
MODEL 7
REMARK VINA RESULT:      -5.1     12.817     16.238
REMARK  Name = 
REMARK  5 active torsions:
REMARK  status: ('A' for Active; 'I' for Inactive)
REMARK    1  A    between atoms: O_1  and  C_16
REMARK    2  A    between atoms: O_3  and  C_25
REMARK    3  A    between atoms: C_11  and  C_22
REMARK    4  A    between atoms: C_16  and  C_28
REMARK    5  A    between atoms: C_29  and  C_31
REMARK                            x       y       z     vdW  Elec       q    Type
REMARK                         _______ _______ _______ _____ _____    ______ ____
ROOT
ATOM      1  O   UNL     1       6.299   5.451   0.116  0.00  0.00    +0.000 OA
ATOM      2  N   UNL     1       5.487   3.316   9.332  0.00  0.00    +0.000 NA
ATOM      3  C   UNL     1       4.650   4.372   5.725  0.00  0.00    +0.000 C 
ATOM      4  C   UNL     1       4.968   5.599   4.828  0.00  0.00    +0.000 C 
ATOM      5  C   UNL     1       4.807   3.635   3.450  0.00  0.00    +0.000 C 
ATOM      6  C   UNL     1       5.508   4.998   3.520  0.00  0.00    +0.000 C 
ATOM      7  C   UNL     1       5.342   4.419   7.101  0.00  0.00    +0.000 C 
ATOM      8  C   UNL     1       4.996   3.130   4.877  0.00  0.00    +0.000 C 
ATOM      9  C   UNL     1       5.307   2.771   2.261  0.00  0.00    +0.000 C 
ATOM     10  C   UNL     1       5.051   5.780   7.771  0.00  0.00    +0.000 C 
ATOM     11  C   UNL     1       5.949   6.574   5.470  0.00  0.00    +0.000 C 
ATOM     12  C   UNL     1       5.000   3.592   0.972  0.00  0.00    +0.000 C 
ATOM     13  C   UNL     1       5.551   6.956   6.894  0.00  0.00    +0.000 C 
ATOM     14  C   UNL     1       5.598   5.818   9.227  0.00  0.00    +0.000 C 
ATOM     15  C   UNL     1       5.279   5.819   2.260  0.00  0.00    +0.000 C 
ATOM     16  C   UNL     1       4.877   3.260   7.992  0.00  0.00    +0.000 C 
ATOM     17  C   UNL     1       5.096   4.567  10.041  0.00  0.00    +0.000 C 
ATOM     18  C   UNL     1       4.504   1.448   2.189  0.00  0.00    +0.000 C 
ATOM     19  C   UNL     1       5.634   4.984   1.038  0.00  0.00    +0.000 C 
ATOM     20  C   UNL     1       6.815   2.437   2.383  0.00  0.00    +0.000 C 
ATOM     21  C   UNL     1       5.339   2.825  -0.306  0.00  0.00    +0.000 C 
ATOM     22  C   UNL     1       4.760   0.659   0.901  0.00  0.00    +0.000 C 
ATOM     23  C   UNL     1       4.569   1.504  -0.358  0.00  0.00    +0.000 C 
ATOM     24  C   UNL     1       5.667   4.569  11.481  0.00  0.00    +0.000 C 
ATOM     25  C   UNL     1       5.074   2.113  10.082  0.00  0.00    +0.000 C 
ATOM     26  C   UNL     1       5.208   7.130   9.922  0.00  0.00    +0.000 C 
ATOM     27  C   UNL     1       5.691   2.043  11.482  0.00  0.00    +0.000 C 
ATOM     28  C   UNL     1       5.323   3.305  12.261  0.00  0.00    +0.000 C 
ATOM     29  C   UNL     1       7.206   1.824  11.427  0.00  0.00    +0.000 C 
ENDROOT
BRANCH  14  30
ATOM     30  O   UNL     1       7.034   5.773   9.165  0.00  0.00    +0.000 OA
ATOM     31  H   UNL     1       7.239   5.054   8.533  0.00  0.00    +0.000 HD
ENDBRANCH  14  30
BRANCH  23  32
ATOM     32  O   UNL     1       4.997   0.740  -1.480  0.00  0.00    +0.000 OA
ATOM     33  H   UNL     1       5.896   1.031  -1.713  0.00  0.00    +0.000 HD
ENDBRANCH  23  32
TORSDOF 2
ENDMDL
MODEL 8
REMARK VINA RESULT:      -5.1     25.204     26.988
REMARK  Name = 
REMARK  5 active torsions:
REMARK  status: ('A' for Active; 'I' for Inactive)
REMARK    1  A    between atoms: O_1  and  C_16
REMARK    2  A    between atoms: O_3  and  C_25
REMARK    3  A    between atoms: C_11  and  C_22
REMARK    4  A    between atoms: C_16  and  C_28
REMARK    5  A    between atoms: C_29  and  C_31
REMARK                            x       y       z     vdW  Elec       q    Type
REMARK                         _______ _______ _______ _____ _____    ______ ____
ROOT
ATOM      1  O   UNL     1      -3.618  12.339   1.228  0.00  0.00    +0.000 OA
ATOM      2  N   UNL     1      -5.118   6.777  -6.320  0.00  0.00    +0.000 NA
ATOM      3  C   UNL     1      -3.674   8.213  -3.052  0.00  0.00    +0.000 C 
ATOM      4  C   UNL     1      -2.845   9.466  -2.665  0.00  0.00    +0.000 C 
ATOM      5  C   UNL     1      -4.300   8.889  -0.840  0.00  0.00    +0.000 C 
ATOM      6  C   UNL     1      -3.612  10.096  -1.491  0.00  0.00    +0.000 C 
ATOM      7  C   UNL     1      -4.080   8.178  -4.538  0.00  0.00    +0.000 C 
ATOM      8  C   UNL     1      -4.859   8.170  -2.064  0.00  0.00    +0.000 C 
ATOM      9  C   UNL     1      -5.260   9.302   0.308  0.00  0.00    +0.000 C 
ATOM     10  C   UNL     1      -2.827   8.398  -5.414  0.00  0.00    +0.000 C 
ATOM     11  C   UNL     1      -2.651  10.440  -3.823  0.00  0.00    +0.000 C 
ATOM     12  C   UNL     1      -4.381  10.042   1.361  0.00  0.00    +0.000 C 
ATOM     13  C   UNL     1      -2.146   9.752  -5.090  0.00  0.00    +0.000 C 
ATOM     14  C   UNL     1      -3.159   8.218  -6.924  0.00  0.00    +0.000 C 
ATOM     15  C   UNL     1      -2.779  10.883  -0.490  0.00  0.00    +0.000 C 
ATOM     16  C   UNL     1      -4.769   6.853  -4.891  0.00  0.00    +0.000 C 
ATOM     17  C   UNL     1      -3.897   6.849  -7.169  0.00  0.00    +0.000 C 
ATOM     18  C   UNL     1      -5.856   8.041   0.983  0.00  0.00    +0.000 C 
ATOM     19  C   UNL     1      -3.630  11.216   0.728  0.00  0.00    +0.000 C 
ATOM     20  C   UNL     1      -6.420  10.194  -0.200  0.00  0.00    +0.000 C 
ATOM     21  C   UNL     1      -5.165  10.422   2.617  0.00  0.00    +0.000 C 
ATOM     22  C   UNL     1      -6.609   8.352   2.280  0.00  0.00    +0.000 C 
ATOM     23  C   UNL     1      -5.779   9.179   3.263  0.00  0.00    +0.000 C 
ATOM     24  C   UNL     1      -4.270   6.674  -8.663  0.00  0.00    +0.000 C 
ATOM     25  C   UNL     1      -5.869   5.526  -6.550  0.00  0.00    +0.000 C 
ATOM     26  C   UNL     1      -1.887   8.328  -7.777  0.00  0.00    +0.000 C 
ATOM     27  C   UNL     1      -6.326   5.364  -8.003  0.00  0.00    +0.000 C 
ATOM     28  C   UNL     1      -5.111   5.430  -8.925  0.00  0.00    +0.000 C 
ATOM     29  C   UNL     1      -7.393   6.396  -8.382  0.00  0.00    +0.000 C 
ENDROOT
BRANCH  14  30
ATOM     30  O   UNL     1      -4.037   9.286  -7.318  0.00  0.00    +0.000 OA
ATOM     31  H   UNL     1      -3.854  10.011  -6.687  0.00  0.00    +0.000 HD
ENDBRANCH  14  30
BRANCH  23  32
ATOM     32  O   UNL     1      -6.618   9.562   4.347  0.00  0.00    +0.000 OA
ATOM     33  H   UNL     1      -6.203   9.250   5.169  0.00  0.00    +0.000 HD
ENDBRANCH  23  32
TORSDOF 2
ENDMDL
MODEL 9
REMARK VINA RESULT:      -4.9     12.029     12.851
REMARK  Name = 
REMARK  5 active torsions:
REMARK  status: ('A' for Active; 'I' for Inactive)
REMARK    1  A    between atoms: O_1  and  C_16
REMARK    2  A    between atoms: O_3  and  C_25
REMARK    3  A    between atoms: C_11  and  C_22
REMARK    4  A    between atoms: C_16  and  C_28
REMARK    5  A    between atoms: C_29  and  C_31
REMARK                            x       y       z     vdW  Elec       q    Type
REMARK                         _______ _______ _______ _____ _____    ______ ____
ROOT
ATOM      1  O   UNL     1       6.211  -0.766  21.792  0.00  0.00    +0.000 OA
ATOM      2  N   UNL     1       5.956   3.694  13.413  0.00  0.00    +0.000 NA
ATOM      3  C   UNL     1       6.721   1.127  16.179  0.00  0.00    +0.000 C 
ATOM      4  C   UNL     1       7.570   1.119  17.479  0.00  0.00    +0.000 C 
ATOM      5  C   UNL     1       5.660  -0.311  17.775  0.00  0.00    +0.000 C 
ATOM      6  C   UNL     1       6.618   0.590  18.564  0.00  0.00    +0.000 C 
ATOM      7  C   UNL     1       6.685   2.497  15.475  0.00  0.00    +0.000 C 
ATOM      8  C   UNL     1       5.336   0.576  16.577  0.00  0.00    +0.000 C 
ATOM      9  C   UNL     1       4.505  -0.862  18.654  0.00  0.00    +0.000 C 
ATOM     10  C   UNL     1       8.129   3.011  15.286  0.00  0.00    +0.000 C 
ATOM     11  C   UNL     1       8.147   2.487  17.827  0.00  0.00    +0.000 C 
ATOM     12  C   UNL     1       5.182  -1.678  19.796  0.00  0.00    +0.000 C 
ATOM     13  C   UNL     1       8.862   3.141  16.646  0.00  0.00    +0.000 C 
ATOM     14  C   UNL     1       8.154   4.318  14.442  0.00  0.00    +0.000 C 
ATOM     15  C   UNL     1       7.269  -0.149  19.724  0.00  0.00    +0.000 C 
ATOM     16  C   UNL     1       5.956   2.406  14.128  0.00  0.00    +0.000 C 
ATOM     17  C   UNL     1       7.347   4.129  13.104  0.00  0.00    +0.000 C 
ATOM     18  C   UNL     1       3.623  -1.832  17.828  0.00  0.00    +0.000 C 
ATOM     19  C   UNL     1       6.192  -0.823  20.564  0.00  0.00    +0.000 C 
ATOM     20  C   UNL     1       3.612   0.274  19.212  0.00  0.00    +0.000 C 
ATOM     21  C   UNL     1       4.166  -2.382  20.695  0.00  0.00    +0.000 C 
ATOM     22  C   UNL     1       2.620  -2.610  18.685  0.00  0.00    +0.000 C 
ATOM     23  C   UNL     1       3.276  -3.315  19.872  0.00  0.00    +0.000 C 
ATOM     24  C   UNL     1       7.328   5.437  12.272  0.00  0.00    +0.000 C 
ATOM     25  C   UNL     1       5.145   3.547  12.188  0.00  0.00    +0.000 C 
ATOM     26  C   UNL     1       9.599   4.760  14.165  0.00  0.00    +0.000 C 
ATOM     27  C   UNL     1       5.037   4.847  11.385  0.00  0.00    +0.000 C 
ATOM     28  C   UNL     1       6.439   5.344  11.037  0.00  0.00    +0.000 C 
ATOM     29  C   UNL     1       4.219   5.908  12.127  0.00  0.00    +0.000 C 
ENDROOT
BRANCH  14  30
ATOM     30  O   UNL     1       7.525   5.357  15.211  0.00  0.00    +0.000 OA
ATOM     31  H   UNL     1       6.565   5.220  15.085  0.00  0.00    +0.000 HD
ENDBRANCH  14  30
BRANCH  23  32
ATOM     32  O   UNL     1       2.250  -3.855  20.697  0.00  0.00    +0.000 OA
ATOM     33  H   UNL     1       2.633  -4.029  21.574  0.00  0.00    +0.000 HD
ENDBRANCH  23  32
TORSDOF 2
ENDMDL
