MODEL 1
REMARK VINA RESULT:      -5.7      0.000      0.000
REMARK  Name = PhIP.pdbqt.pdb
REMARK  2 active torsions:
REMARK  status: ('A' for Active; 'I' for Inactive)
REMARK    1  A    between atoms: N_4  and  C_9
REMARK    2  A    between atoms: C_7  and  C_10
REMARK                            x       y       z     vdW  Elec       q    Type
REMARK                         _______ _______ _______ _____ _____    ______ ____
ROOT
ATOM      1  N   UNL     1      -8.029   7.133   6.259  0.00  0.00    +0.000 N 
ATOM      2  N   UNL     1      -8.847   5.195   5.140  0.00  0.00    +0.000 NA
ATOM      3  N   UNL     1      -7.666   5.545   3.049  0.00  0.00    +0.000 NA
ATOM      4  C   UNL     1      -7.435   7.106   5.034  0.00  0.00    +0.000 C 
ATOM      5  C   UNL     1      -8.009   5.844   4.374  0.00  0.00    +0.000 C 
ATOM      6  C   UNL     1      -6.485   7.719   2.877  0.00  0.00    +0.000 C 
ATOM      7  C   UNL     1      -6.801   7.931   4.256  0.00  0.00    +0.000 C 
ATOM      8  C   UNL     1      -8.863   6.012   6.259  0.00  0.00    +0.000 C 
ATOM      9  C   UNL     1      -8.387   8.372   6.927  0.00  0.00    +0.000 C 
ATOM     10  C   UNL     1      -7.053   6.434   2.576  0.00  0.00    +0.000 C 
ENDROOT
BRANCH   6  11
ATOM     11  C   UNL     1      -5.701   8.569   2.002  0.00  0.00    +0.000 A 
ATOM     12  C   UNL     1      -5.030   9.685   2.509  0.00  0.00    +0.000 A 
ATOM     13  C   UNL     1      -5.600   8.288   0.638  0.00  0.00    +0.000 A 
ATOM     14  C   UNL     1      -4.275  10.504   1.670  0.00  0.00    +0.000 A 
ATOM     15  C   UNL     1      -4.848   9.103  -0.205  0.00  0.00    +0.000 A 
ATOM     16  C   UNL     1      -4.185  10.213   0.313  0.00  0.00    +0.000 A 
ENDBRANCH   6  11
BRANCH   8  17
ATOM     17  N   UNL     1      -9.793   5.694   7.264  0.00  0.00    +0.000 NA
ATOM     18  H   UNL     1     -10.758   5.817   6.977  0.00  0.00    +0.000 HD
ATOM     19  H   UNL     1      -9.604   4.804   7.707  0.00  0.00    +0.000 HD
ENDBRANCH   8  17
TORSDOF 2
ENDMDL
MODEL 2
REMARK VINA RESULT:      -5.2     26.598     28.625
REMARK  Name = PhIP.pdbqt.pdb
REMARK  2 active torsions:
REMARK  status: ('A' for Active; 'I' for Inactive)
REMARK    1  A    between atoms: N_4  and  C_9
REMARK    2  A    between atoms: C_7  and  C_10
REMARK                            x       y       z     vdW  Elec       q    Type
REMARK                         _______ _______ _______ _____ _____    ______ ____
ROOT
ATOM      1  N   UNL     1     -13.468  -9.412  27.696  0.00  0.00    +0.000 N 
ATOM      2  N   UNL     1     -12.274 -11.463  27.481  0.00  0.00    +0.000 NA
ATOM      3  N   UNL     1     -10.089 -10.488  27.075  0.00  0.00    +0.000 NA
ATOM      4  C   UNL     1     -12.159  -9.086  27.501  0.00  0.00    +0.000 C 
ATOM      5  C   UNL     1     -11.458 -10.446  27.367  0.00  0.00    +0.000 C 
ATOM      6  C   UNL     1     -10.092  -8.026  26.771  0.00  0.00    +0.000 C 
ATOM      7  C   UNL     1     -11.471  -8.042  27.152  0.00  0.00    +0.000 C 
ATOM      8  C   UNL     1     -13.484 -10.808  27.648  0.00  0.00    +0.000 C 
ATOM      9  C   UNL     1     -14.558  -8.600  27.185  0.00  0.00    +0.000 C 
ATOM     10  C   UNL     1      -9.690  -9.404  26.836  0.00  0.00    +0.000 C 
ENDROOT
BRANCH   6  11
ATOM     11  C   UNL     1      -9.266  -6.874  26.466  0.00  0.00    +0.000 A 
ATOM     12  C   UNL     1      -8.153  -6.998  25.631  0.00  0.00    +0.000 A 
ATOM     13  C   UNL     1      -9.569  -5.620  26.999  0.00  0.00    +0.000 A 
ATOM     14  C   UNL     1      -7.357  -5.892  25.336  0.00  0.00    +0.000 A 
ATOM     15  C   UNL     1      -8.776  -4.511  26.708  0.00  0.00    +0.000 A 
ATOM     16  C   UNL     1      -7.669  -4.648  25.875  0.00  0.00    +0.000 A 
ENDBRANCH   6  11
BRANCH   8  17
ATOM     17  N   UNL     1     -14.641 -11.605  27.659  0.00  0.00    +0.000 NA
ATOM     18  H   UNL     1     -14.952 -11.854  28.592  0.00  0.00    +0.000 HD
ATOM     19  H   UNL     1     -15.374 -11.242  27.063  0.00  0.00    +0.000 HD
ENDBRANCH   8  17
TORSDOF 2
ENDMDL
MODEL 3
REMARK VINA RESULT:      -5.2     16.613     17.283
REMARK  Name = PhIP.pdbqt.pdb
REMARK  2 active torsions:
REMARK  status: ('A' for Active; 'I' for Inactive)
REMARK    1  A    between atoms: N_4  and  C_9
REMARK    2  A    between atoms: C_7  and  C_10
REMARK                            x       y       z     vdW  Elec       q    Type
REMARK                         _______ _______ _______ _____ _____    ______ ____
ROOT
ATOM      1  N   UNL     1     -13.202  -7.400   5.180  0.00  0.00    +0.000 N 
ATOM      2  N   UNL     1     -11.289  -8.323   4.101  0.00  0.00    +0.000 NA
ATOM      3  N   UNL     1     -12.122  -8.148   1.828  0.00  0.00    +0.000 NA
ATOM      4  C   UNL     1     -13.446  -7.354   3.841  0.00  0.00    +0.000 C 
ATOM      5  C   UNL     1     -12.183  -7.965   3.216  0.00  0.00    +0.000 C 
ATOM      6  C   UNL     1     -14.496  -7.451   1.646  0.00  0.00    +0.000 C 
ATOM      7  C   UNL     1     -14.470  -7.209   3.055  0.00  0.00    +0.000 C 
ATOM      8  C   UNL     1     -11.943  -7.999   5.278  0.00  0.00    +0.000 C 
ATOM      9  C   UNL     1     -14.252  -7.626   6.158  0.00  0.00    +0.000 C 
ATOM     10  C   UNL     1     -13.168  -7.908   1.340  0.00  0.00    +0.000 C 
ENDROOT
BRANCH   6  11
ATOM     11  C   UNL     1     -15.588  -7.214   0.721  0.00  0.00    +0.000 A 
ATOM     12  C   UNL     1     -16.606  -6.312   1.040  0.00  0.00    +0.000 A 
ATOM     13  C   UNL     1     -15.640  -7.880  -0.505  0.00  0.00    +0.000 A 
ATOM     14  C   UNL     1     -17.656  -6.082   0.153  0.00  0.00    +0.000 A 
ATOM     15  C   UNL     1     -16.688  -7.654  -1.395  0.00  0.00    +0.000 A 
ATOM     16  C   UNL     1     -17.697  -6.753  -1.065  0.00  0.00    +0.000 A 
ENDBRANCH   6  11
BRANCH   8  17
ATOM     17  N   UNL     1     -11.324  -8.389   6.477  0.00  0.00    +0.000 NA
ATOM     18  H   UNL     1     -10.351  -8.653   6.363  0.00  0.00    +0.000 HD
ATOM     19  H   UNL     1     -11.488  -7.738   7.235  0.00  0.00    +0.000 HD
ENDBRANCH   8  17
TORSDOF 2
ENDMDL
MODEL 4
REMARK VINA RESULT:      -5.1     16.636     16.865
REMARK  Name = PhIP.pdbqt.pdb
REMARK  2 active torsions:
REMARK  status: ('A' for Active; 'I' for Inactive)
REMARK    1  A    between atoms: N_4  and  C_9
REMARK    2  A    between atoms: C_7  and  C_10
REMARK                            x       y       z     vdW  Elec       q    Type
REMARK                         _______ _______ _______ _____ _____    ______ ____
ROOT
ATOM      1  N   UNL     1     -13.322  -8.308   6.750  0.00  0.00    +0.000 N 
ATOM      2  N   UNL     1     -15.331  -7.137   6.233  0.00  0.00    +0.000 NA
ATOM      3  N   UNL     1     -15.035  -7.098   3.824  0.00  0.00    +0.000 NA
ATOM      4  C   UNL     1     -13.382  -8.213   5.392  0.00  0.00    +0.000 C 
ATOM      5  C   UNL     1     -14.689  -7.448   5.136  0.00  0.00    +0.000 C 
ATOM      6  C   UNL     1     -12.834  -7.928   3.037  0.00  0.00    +0.000 C 
ATOM      7  C   UNL     1     -12.573  -8.332   4.383  0.00  0.00    +0.000 C 
ATOM      8  C   UNL     1     -14.467  -7.642   7.191  0.00  0.00    +0.000 C 
ATOM      9  C   UNL     1     -12.067  -8.272   7.480  0.00  0.00    +0.000 C 
ATOM     10  C   UNL     1     -14.148  -7.349   3.088  0.00  0.00    +0.000 C 
ENDROOT
BRANCH   6  11
ATOM     11  C   UNL     1     -11.998  -8.128   1.869  0.00  0.00    +0.000 A 
ATOM     12  C   UNL     1     -12.395  -7.648   0.619  0.00  0.00    +0.000 A 
ATOM     13  C   UNL     1     -10.780  -8.802   1.973  0.00  0.00    +0.000 A 
ATOM     14  C   UNL     1     -11.593  -7.839  -0.505  0.00  0.00    +0.000 A 
ATOM     15  C   UNL     1      -9.974  -8.996   0.852  0.00  0.00    +0.000 A 
ATOM     16  C   UNL     1     -10.382  -8.513  -0.388  0.00  0.00    +0.000 A 
ENDBRANCH   6  11
BRANCH   8  17
ATOM     17  N   UNL     1     -14.770  -7.355   8.533  0.00  0.00    +0.000 NA
ATOM     18  H   UNL     1     -14.352  -6.494   8.868  0.00  0.00    +0.000 HD
ATOM     19  H   UNL     1     -15.757  -7.442   8.740  0.00  0.00    +0.000 HD
ENDBRANCH   8  17
TORSDOF 2
ENDMDL
MODEL 5
REMARK VINA RESULT:      -5.0     24.951     26.813
REMARK  Name = PhIP.pdbqt.pdb
REMARK  2 active torsions:
REMARK  status: ('A' for Active; 'I' for Inactive)
REMARK    1  A    between atoms: N_4  and  C_9
REMARK    2  A    between atoms: C_7  and  C_10
REMARK                            x       y       z     vdW  Elec       q    Type
REMARK                         _______ _______ _______ _____ _____    ______ ____
ROOT
ATOM      1  N   UNL     1     -13.747 -17.520  15.531  0.00  0.00    +0.000 N 
ATOM      2  N   UNL     1     -15.151 -15.657  15.045  0.00  0.00    +0.000 NA
ATOM      3  N   UNL     1     -14.316 -15.239  12.805  0.00  0.00    +0.000 NA
ATOM      4  C   UNL     1     -13.466 -17.139  14.254  0.00  0.00    +0.000 C 
ATOM      5  C   UNL     1     -14.396 -15.941  14.015  0.00  0.00    +0.000 C 
ATOM      6  C   UNL     1     -12.336 -16.591  12.167  0.00  0.00    +0.000 C 
ATOM      7  C   UNL     1     -12.520 -17.322  13.383  0.00  0.00    +0.000 C 
ATOM      8  C   UNL     1     -14.715 -16.607  15.956  0.00  0.00    +0.000 C 
ATOM      9  C   UNL     1     -12.737 -18.058  16.426  0.00  0.00    +0.000 C 
ATOM     10  C   UNL     1     -13.398 -15.624  12.171  0.00  0.00    +0.000 C 
ENDROOT
BRANCH   6  11
ATOM     11  C   UNL     1     -11.353 -16.825  11.128  0.00  0.00    +0.000 A 
ATOM     12  C   UNL     1     -11.282 -18.060  10.480  0.00  0.00    +0.000 A 
ATOM     13  C   UNL     1     -10.460 -15.818  10.753  0.00  0.00    +0.000 A 
ATOM     14  C   UNL     1     -10.337 -18.287   9.480  0.00  0.00    +0.000 A 
ATOM     15  C   UNL     1      -9.514 -16.040   9.754  0.00  0.00    +0.000 A 
ATOM     16  C   UNL     1      -9.453 -17.277   9.118  0.00  0.00    +0.000 A 
ENDBRANCH   6  11
BRANCH   8  17
ATOM     17  N   UNL     1     -15.218 -16.509  17.264  0.00  0.00    +0.000 NA
ATOM     18  H   UNL     1     -15.936 -17.194  17.474  0.00  0.00    +0.000 HD
ATOM     19  H   UNL     1     -14.488 -16.450  17.962  0.00  0.00    +0.000 HD
ENDBRANCH   8  17
TORSDOF 2
ENDMDL
MODEL 6
REMARK VINA RESULT:      -4.9      1.409      2.223
REMARK  Name = PhIP.pdbqt.pdb
REMARK  2 active torsions:
REMARK  status: ('A' for Active; 'I' for Inactive)
REMARK    1  A    between atoms: N_4  and  C_9
REMARK    2  A    between atoms: C_7  and  C_10
REMARK                            x       y       z     vdW  Elec       q    Type
REMARK                         _______ _______ _______ _____ _____    ______ ____
ROOT
ATOM      1  N   UNL     1      -6.508   9.181   6.236  0.00  0.00    +0.000 N 
ATOM      2  N   UNL     1      -7.857   7.242   5.923  0.00  0.00    +0.000 NA
ATOM      3  N   UNL     1      -7.233   6.822   3.615  0.00  0.00    +0.000 NA
ATOM      4  C   UNL     1      -6.268   8.735   4.972  0.00  0.00    +0.000 C 
ATOM      5  C   UNL     1      -7.168   7.498   4.840  0.00  0.00    +0.000 C 
ATOM      6  C   UNL     1      -5.845   8.597   2.577  0.00  0.00    +0.000 C 
ATOM      7  C   UNL     1      -5.753   9.197   3.872  0.00  0.00    +0.000 C 
ATOM      8  C   UNL     1      -7.462   8.291   6.737  0.00  0.00    +0.000 C 
ATOM      9  C   UNL     1      -6.499  10.591   6.583  0.00  0.00    +0.000 C 
ATOM     10  C   UNL     1      -6.648   7.424   2.787  0.00  0.00    +0.000 C 
ENDROOT
BRANCH   6  11
ATOM     11  C   UNL     1      -5.208   9.029   1.348  0.00  0.00    +0.000 A 
ATOM     12  C   UNL     1      -5.459   8.364   0.146  0.00  0.00    +0.000 A 
ATOM     13  C   UNL     1      -4.335  10.118   1.344  0.00  0.00    +0.000 A 
ATOM     14  C   UNL     1      -4.848   8.778  -1.037  0.00  0.00    +0.000 A 
ATOM     15  C   UNL     1      -3.721  10.536   0.164  0.00  0.00    +0.000 A 
ATOM     16  C   UNL     1      -3.979   9.864  -1.027  0.00  0.00    +0.000 A 
ENDBRANCH   6  11
BRANCH   8  17
ATOM     17  N   UNL     1      -8.128   8.426   7.967  0.00  0.00    +0.000 NA
ATOM     18  H   UNL     1      -7.677   7.929   8.728  0.00  0.00    +0.000 HD
ATOM     19  H   UNL     1      -8.363   9.386   8.183  0.00  0.00    +0.000 HD
ENDBRANCH   8  17
TORSDOF 2
ENDMDL
MODEL 7
REMARK VINA RESULT:      -4.8      2.565      6.127
REMARK  Name = PhIP.pdbqt.pdb
REMARK  2 active torsions:
REMARK  status: ('A' for Active; 'I' for Inactive)
REMARK    1  A    between atoms: N_4  and  C_9
REMARK    2  A    between atoms: C_7  and  C_10
REMARK                            x       y       z     vdW  Elec       q    Type
REMARK                         _______ _______ _______ _____ _____    ______ ____
ROOT
ATOM      1  N   UNL     1      -5.148   9.833   2.698  0.00  0.00    +0.000 N 
ATOM      2  N   UNL     1      -5.503   8.467   0.779  0.00  0.00    +0.000 NA
ATOM      3  N   UNL     1      -6.836   6.762   1.877  0.00  0.00    +0.000 NA
ATOM      4  C   UNL     1      -5.943   8.800   3.093  0.00  0.00    +0.000 C 
ATOM      5  C   UNL     1      -6.123   7.966   1.817  0.00  0.00    +0.000 C 
ATOM      6  C   UNL     1      -6.974   6.982   4.343  0.00  0.00    +0.000 C 
ATOM      7  C   UNL     1      -6.311   8.242   4.207  0.00  0.00    +0.000 C 
ATOM      8  C   UNL     1      -4.899   9.576   1.348  0.00  0.00    +0.000 C 
ATOM      9  C   UNL     1      -4.159  10.436   3.574  0.00  0.00    +0.000 C 
ATOM     10  C   UNL     1      -7.093   6.496   2.997  0.00  0.00    +0.000 C 
ENDROOT
BRANCH   6  11
ATOM     11  C   UNL     1      -7.483   6.371   5.556  0.00  0.00    +0.000 A 
ATOM     12  C   UNL     1      -6.635   5.651   6.400  0.00  0.00    +0.000 A 
ATOM     13  C   UNL     1      -8.831   6.492   5.902  0.00  0.00    +0.000 A 
ATOM     14  C   UNL     1      -7.122   5.062   7.566  0.00  0.00    +0.000 A 
ATOM     15  C   UNL     1      -9.323   5.905   7.067  0.00  0.00    +0.000 A 
ATOM     16  C   UNL     1      -8.466   5.189   7.899  0.00  0.00    +0.000 A 
ENDBRANCH   6  11
BRANCH   8  17
ATOM     17  N   UNL     1      -4.006  10.298   0.538  0.00  0.00    +0.000 NA
ATOM     18  H   UNL     1      -4.215  10.235  -0.452  0.00  0.00    +0.000 HD
ATOM     19  H   UNL     1      -3.851  11.243   0.868  0.00  0.00    +0.000 HD
ENDBRANCH   8  17
TORSDOF 2
ENDMDL
MODEL 8
REMARK VINA RESULT:      -4.7     22.320     23.274
REMARK  Name = PhIP.pdbqt.pdb
REMARK  2 active torsions:
REMARK  status: ('A' for Active; 'I' for Inactive)
REMARK    1  A    between atoms: N_4  and  C_9
REMARK    2  A    between atoms: C_7  and  C_10
REMARK                            x       y       z     vdW  Elec       q    Type
REMARK                         _______ _______ _______ _____ _____    ______ ____
ROOT
ATOM      1  N   UNL     1       6.155 -13.055  12.441  0.00  0.00    +0.000 N 
ATOM      2  N   UNL     1       3.822 -13.279  12.867  0.00  0.00    +0.000 NA
ATOM      3  N   UNL     1       3.142 -11.163  11.892  0.00  0.00    +0.000 NA
ATOM      4  C   UNL     1       5.552 -11.953  11.914  0.00  0.00    +0.000 C 
ATOM      5  C   UNL     1       4.064 -12.163  12.229  0.00  0.00    +0.000 C 
ATOM      6  C   UNL     1       5.015  -9.680  11.225  0.00  0.00    +0.000 C 
ATOM      7  C   UNL     1       5.898 -10.767  11.513  0.00  0.00    +0.000 C 
ATOM      8  C   UNL     1       5.106 -13.781  13.009  0.00  0.00    +0.000 C 
ATOM      9  C   UNL     1       7.483 -13.012  13.029  0.00  0.00    +0.000 C 
ATOM     10  C   UNL     1       3.707 -10.201  11.511  0.00  0.00    +0.000 C 
ENDROOT
BRANCH   6  11
ATOM     11  C   UNL     1       5.353  -8.376  10.688  0.00  0.00    +0.000 A 
ATOM     12  C   UNL     1       5.895  -7.387  11.512  0.00  0.00    +0.000 A 
ATOM     13  C   UNL     1       5.144  -8.086   9.338  0.00  0.00    +0.000 A 
ATOM     14  C   UNL     1       6.221  -6.132  10.999  0.00  0.00    +0.000 A 
ATOM     15  C   UNL     1       5.468  -6.833   8.820  0.00  0.00    +0.000 A 
ATOM     16  C   UNL     1       6.007  -5.856   9.652  0.00  0.00    +0.000 A 
ENDBRANCH   6  11
BRANCH   8  17
ATOM     17  N   UNL     1       5.253 -14.935  13.797  0.00  0.00    +0.000 NA
ATOM     18  H   UNL     1       4.524 -15.624  13.647  0.00  0.00    +0.000 HD
ATOM     19  H   UNL     1       6.191 -15.315  13.767  0.00  0.00    +0.000 HD
ENDBRANCH   8  17
TORSDOF 2
ENDMDL
MODEL 9
REMARK VINA RESULT:      -4.5      1.657      1.983
REMARK  Name = PhIP.pdbqt.pdb
REMARK  2 active torsions:
REMARK  status: ('A' for Active; 'I' for Inactive)
REMARK    1  A    between atoms: N_4  and  C_9
REMARK    2  A    between atoms: C_7  and  C_10
REMARK                            x       y       z     vdW  Elec       q    Type
REMARK                         _______ _______ _______ _____ _____    ______ ____
ROOT
ATOM      1  N   UNL     1      -8.909   5.597   4.858  0.00  0.00    +0.000 N 
ATOM      2  N   UNL     1     -10.829   6.996   4.680  0.00  0.00    +0.000 NA
ATOM      3  N   UNL     1      -9.904   8.557   3.067  0.00  0.00    +0.000 NA
ATOM      4  C   UNL     1      -8.614   6.552   3.933  0.00  0.00    +0.000 C 
ATOM      5  C   UNL     1      -9.884   7.413   3.876  0.00  0.00    +0.000 C 
ATOM      6  C   UNL     1      -7.491   8.243   2.587  0.00  0.00    +0.000 C 
ATOM      7  C   UNL     1      -7.555   7.042   3.362  0.00  0.00    +0.000 C 
ATOM      8  C   UNL     1     -10.201   5.917   5.281  0.00  0.00    +0.000 C 
ATOM      9  C   UNL     1      -7.909   5.042   5.753  0.00  0.00    +0.000 C 
ATOM     10  C   UNL     1      -8.829   8.764   2.628  0.00  0.00    +0.000 C 
ENDROOT
BRANCH   6  11
ATOM     11  C   UNL     1      -6.355   8.772   1.857  0.00  0.00    +0.000 A 
ATOM     12  C   UNL     1      -5.502   9.705   2.450  0.00  0.00    +0.000 A 
ATOM     13  C   UNL     1      -6.092   8.357   0.550  0.00  0.00    +0.000 A 
ATOM     14  C   UNL     1      -4.409  10.216   1.751  0.00  0.00    +0.000 A 
ATOM     15  C   UNL     1      -5.001   8.865  -0.153  0.00  0.00    +0.000 A 
ATOM     16  C   UNL     1      -4.159   9.795   0.449  0.00  0.00    +0.000 A 
ENDBRANCH   6  11
BRANCH   8  17
ATOM     17  N   UNL     1     -10.884   5.294   6.339  0.00  0.00    +0.000 NA
ATOM     18  H   UNL     1     -10.809   5.792   7.219  0.00  0.00    +0.000 HD
ATOM     19  H   UNL     1     -11.829   5.028   6.094  0.00  0.00    +0.000 HD
ENDBRANCH   8  17
TORSDOF 2
ENDMDL
