MODEL 1
REMARK VINA RESULT:      -5.5      0.000      0.000
REMARK  Name = Piroxicam.pdbqt.pdb
REMARK  3 active torsions:
REMARK  status: ('A' for Active; 'I' for Inactive)
REMARK    1  A    between atoms: C_7  and  C_14
REMARK    2  A    between atoms: C_8  and  O_24
REMARK    3  A    between atoms: N_16  and  C_18
REMARK                            x       y       z     vdW  Elec       q    Type
REMARK                         _______ _______ _______ _____ _____    ______ ____
ROOT
ATOM      1  S   UNL     1      -2.092  -3.313  -2.772  0.00  0.00    +0.000 S 
ATOM      2  O   UNL     1      -0.871  -3.531  -2.019  0.00  0.00    +0.000 OA
ATOM      3  O   UNL     1      -2.213  -2.185  -3.675  0.00  0.00    +0.000 OA
ATOM      4  N   UNL     1      -2.504  -4.777  -3.581  0.00  0.00    +0.000 N 
ATOM      5  C   UNL     1      -3.385  -3.208  -1.597  0.00  0.00    +0.000 A 
ATOM      6  C   UNL     1      -3.893  -4.402  -1.090  0.00  0.00    +0.000 A 
ATOM      7  C   UNL     1      -2.702  -5.887  -2.692  0.00  0.00    +0.000 C 
ATOM      8  C   UNL     1      -3.352  -5.707  -1.518  0.00  0.00    +0.000 C 
ATOM      9  C   UNL     1      -3.882  -1.963  -1.228  0.00  0.00    +0.000 A 
ATOM     10  C   UNL     1      -3.520  -4.731  -4.648  0.00  0.00    +0.000 C 
ATOM     11  C   UNL     1      -4.918  -4.318  -0.146  0.00  0.00    +0.000 A 
ATOM     12  C   UNL     1      -4.911  -1.905  -0.296  0.00  0.00    +0.000 A 
ATOM     13  C   UNL     1      -5.425  -3.079   0.250  0.00  0.00    +0.000 A 
ENDROOT
BRANCH   7  14
ATOM     14  C   UNL     1      -2.162  -7.228  -3.087  0.00  0.00    +0.000 C 
ATOM     15  O   UNL     1      -2.920  -8.195  -3.128  0.00  0.00    +0.000 OA
ATOM     16  N   UNL     1      -0.820  -7.253  -3.370  0.00  0.00    +0.000 N 
ATOM     17  H   UNL     1      -0.280  -6.396  -3.377  0.00  0.00    +0.000 HD
BRANCH  16  18
ATOM     18  C   UNL     1      -0.069  -8.372  -3.733  0.00  0.00    +0.000 A 
ATOM     19  N   UNL     1      -0.245  -8.769  -5.010  0.00  0.00    +0.000 NA
ATOM     20  C   UNL     1       0.462  -9.848  -5.416  0.00  0.00    +0.000 A 
ATOM     21  C   UNL     1       1.342 -10.551  -4.613  0.00  0.00    +0.000 A 
ATOM     22  C   UNL     1       1.503 -10.115  -3.306  0.00  0.00    +0.000 A 
ATOM     23  C   UNL     1       0.792  -9.011  -2.852  0.00  0.00    +0.000 A 
ENDBRANCH  16  18
ENDBRANCH   7  14
BRANCH   8  24
ATOM     24  O   UNL     1      -3.587  -6.722  -0.607  0.00  0.00    +0.000 OA
ATOM     25  H   UNL     1      -4.122  -7.431  -1.033  0.00  0.00    +0.000 HD
ENDBRANCH   8  24
TORSDOF 3
ENDMDL
MODEL 2
REMARK VINA RESULT:      -5.5     15.375     18.784
REMARK  Name = Piroxicam.pdbqt.pdb
REMARK  3 active torsions:
REMARK  status: ('A' for Active; 'I' for Inactive)
REMARK    1  A    between atoms: C_7  and  C_14
REMARK    2  A    between atoms: C_8  and  O_24
REMARK    3  A    between atoms: N_16  and  C_18
REMARK                            x       y       z     vdW  Elec       q    Type
REMARK                         _______ _______ _______ _____ _____    ______ ____
ROOT
ATOM      1  S   UNL     1      -8.212   5.658   5.250  0.00  0.00    +0.000 S 
ATOM      2  O   UNL     1      -7.206   4.741   5.754  0.00  0.00    +0.000 OA
ATOM      3  O   UNL     1      -9.417   5.160   4.616  0.00  0.00    +0.000 OA
ATOM      4  N   UNL     1      -8.607   6.777   6.498  0.00  0.00    +0.000 N 
ATOM      5  C   UNL     1      -7.395   6.708   4.110  0.00  0.00    +0.000 A 
ATOM      6  C   UNL     1      -6.662   7.773   4.629  0.00  0.00    +0.000 A 
ATOM      7  C   UNL     1      -7.482   7.536   6.965  0.00  0.00    +0.000 C 
ATOM      8  C   UNL     1      -6.565   8.000   6.084  0.00  0.00    +0.000 C 
ATOM      9  C   UNL     1      -7.521   6.475   2.746  0.00  0.00    +0.000 A 
ATOM     10  C   UNL     1      -9.814   7.608   6.344  0.00  0.00    +0.000 C 
ATOM     11  C   UNL     1      -6.003   8.605   3.721  0.00  0.00    +0.000 A 
ATOM     12  C   UNL     1      -6.867   7.323   1.861  0.00  0.00    +0.000 A 
ATOM     13  C   UNL     1      -6.104   8.383   2.346  0.00  0.00    +0.000 A 
ENDROOT
BRANCH   7  14
ATOM     14  C   UNL     1      -7.344   7.783   8.437  0.00  0.00    +0.000 C 
ATOM     15  O   UNL     1      -7.518   6.853   9.223  0.00  0.00    +0.000 OA
ATOM     16  N   UNL     1      -7.029   9.072   8.783  0.00  0.00    +0.000 N 
ATOM     17  H   UNL     1      -6.837   9.764   8.068  0.00  0.00    +0.000 HD
BRANCH  16  18
ATOM     18  C   UNL     1      -6.871   9.570  10.077  0.00  0.00    +0.000 A 
ATOM     19  N   UNL     1      -8.022   9.687  10.771  0.00  0.00    +0.000 NA
ATOM     20  C   UNL     1      -7.926  10.161  12.034  0.00  0.00    +0.000 A 
ATOM     21  C   UNL     1      -6.739  10.524  12.644  0.00  0.00    +0.000 A 
ATOM     22  C   UNL     1      -5.573  10.389  11.903  0.00  0.00    +0.000 A 
ATOM     23  C   UNL     1      -5.631   9.906  10.602  0.00  0.00    +0.000 A 
ENDBRANCH  16  18
ENDBRANCH   7  14
BRANCH   8  24
ATOM     24  O   UNL     1      -5.455   8.742   6.449  0.00  0.00    +0.000 OA
ATOM     25  H   UNL     1      -4.888   8.212   7.056  0.00  0.00    +0.000 HD
ENDBRANCH   8  24
TORSDOF 3
ENDMDL
MODEL 3
REMARK VINA RESULT:      -5.4     29.769     31.952
REMARK  Name = Piroxicam.pdbqt.pdb
REMARK  3 active torsions:
REMARK  status: ('A' for Active; 'I' for Inactive)
REMARK    1  A    between atoms: C_7  and  C_14
REMARK    2  A    between atoms: C_8  and  O_24
REMARK    3  A    between atoms: N_16  and  C_18
REMARK                            x       y       z     vdW  Elec       q    Type
REMARK                         _______ _______ _______ _____ _____    ______ ____
ROOT
ATOM      1  S   UNL     1     -11.228  -6.350  28.303  0.00  0.00    +0.000 S 
ATOM      2  O   UNL     1     -12.383  -6.126  27.453  0.00  0.00    +0.000 OA
ATOM      3  O   UNL     1     -11.014  -5.545  29.490  0.00  0.00    +0.000 OA
ATOM      4  N   UNL     1     -11.151  -8.026  28.691  0.00  0.00    +0.000 N 
ATOM      5  C   UNL     1      -9.820  -6.182  27.275  0.00  0.00    +0.000 A 
ATOM      6  C   UNL     1      -9.468  -7.274  26.483  0.00  0.00    +0.000 A 
ATOM      7  C   UNL     1     -11.050  -8.877  27.540  0.00  0.00    +0.000 C 
ATOM      8  C   UNL     1     -10.261  -8.518  26.500  0.00  0.00    +0.000 C 
ATOM      9  C   UNL     1      -9.087  -5.002  27.297  0.00  0.00    +0.000 A 
ATOM     10  C   UNL     1     -10.259  -8.457  29.781  0.00  0.00    +0.000 C 
ATOM     11  C   UNL     1      -8.351  -7.137  25.657  0.00  0.00    +0.000 A 
ATOM     12  C   UNL     1      -7.972  -4.894  26.475  0.00  0.00    +0.000 A 
ATOM     13  C   UNL     1      -7.607  -5.957  25.651  0.00  0.00    +0.000 A 
ENDROOT
BRANCH   7  14
ATOM     14  C   UNL     1     -11.845 -10.148  27.514  0.00  0.00    +0.000 C 
ATOM     15  O   UNL     1     -11.257 -11.227  27.560  0.00  0.00    +0.000 OA
ATOM     16  N   UNL     1     -13.204  -9.982  27.433  0.00  0.00    +0.000 N 
ATOM     17  H   UNL     1     -13.611  -9.054  27.466  0.00  0.00    +0.000 HD
BRANCH  16  18
ATOM     18  C   UNL     1     -14.161 -10.994  27.366  0.00  0.00    +0.000 A 
ATOM     19  N   UNL     1     -14.690 -11.338  28.558  0.00  0.00    +0.000 NA
ATOM     20  C   UNL     1     -15.628 -12.313  28.550  0.00  0.00    +0.000 A 
ATOM     21  C   UNL     1     -16.068 -12.963  27.412  0.00  0.00    +0.000 A 
ATOM     22  C   UNL     1     -15.506 -12.584  26.201  0.00  0.00    +0.000 A 
ATOM     23  C   UNL     1     -14.539 -11.587  26.169  0.00  0.00    +0.000 A 
ENDBRANCH  16  18
ENDBRANCH   7  14
BRANCH   8  24
ATOM     24  O   UNL     1     -10.105  -9.282  25.355  0.00  0.00    +0.000 OA
ATOM     25  H   UNL     1     -10.462  -8.792  24.579  0.00  0.00    +0.000 HD
ENDBRANCH   8  24
TORSDOF 3
ENDMDL
MODEL 4
REMARK VINA RESULT:      -5.3     29.604     31.745
REMARK  Name = Piroxicam.pdbqt.pdb
REMARK  3 active torsions:
REMARK  status: ('A' for Active; 'I' for Inactive)
REMARK    1  A    between atoms: C_7  and  C_14
REMARK    2  A    between atoms: C_8  and  O_24
REMARK    3  A    between atoms: N_16  and  C_18
REMARK                            x       y       z     vdW  Elec       q    Type
REMARK                         _______ _______ _______ _____ _____    ______ ____
ROOT
ATOM      1  S   UNL     1     -12.373  -8.394  29.288  0.00  0.00    +0.000 S 
ATOM      2  O   UNL     1     -11.263  -9.115  29.883  0.00  0.00    +0.000 OA
ATOM      3  O   UNL     1     -13.522  -8.015  30.087  0.00  0.00    +0.000 OA
ATOM      4  N   UNL     1     -11.750  -7.027  28.446  0.00  0.00    +0.000 N 
ATOM      5  C   UNL     1     -12.940  -9.375  27.954  0.00  0.00    +0.000 A 
ATOM      6  C   UNL     1     -12.232  -9.303  26.756  0.00  0.00    +0.000 A 
ATOM      7  C   UNL     1     -10.814  -7.368  27.413  0.00  0.00    +0.000 C 
ATOM      8  C   UNL     1     -11.041  -8.443  26.622  0.00  0.00    +0.000 C 
ATOM      9  C   UNL     1     -14.076 -10.162  28.110  0.00  0.00    +0.000 A 
ATOM     10  C   UNL     1     -12.687  -5.973  28.022  0.00  0.00    +0.000 C 
ATOM     11  C   UNL     1     -12.679 -10.093  25.694  0.00  0.00    +0.000 A 
ATOM     12  C   UNL     1     -14.508 -10.929  27.035  0.00  0.00    +0.000 A 
ATOM     13  C   UNL     1     -13.809 -10.901  25.831  0.00  0.00    +0.000 A 
ENDROOT
BRANCH   7  14
ATOM     14  C   UNL     1      -9.587  -6.523  27.248  0.00  0.00    +0.000 C 
ATOM     15  O   UNL     1      -8.478  -7.035  27.393  0.00  0.00    +0.000 OA
ATOM     16  N   UNL     1      -9.825  -5.206  26.944  0.00  0.00    +0.000 N 
ATOM     17  H   UNL     1     -10.769  -4.880  26.777  0.00  0.00    +0.000 HD
BRANCH  16  18
ATOM     18  C   UNL     1      -8.865  -4.209  26.767  0.00  0.00    +0.000 A 
ATOM     19  N   UNL     1      -8.666  -3.431  27.851  0.00  0.00    +0.000 NA
ATOM     20  C   UNL     1      -7.743  -2.450  27.736  0.00  0.00    +0.000 A 
ATOM     21  C   UNL     1      -7.003  -2.205  26.593  0.00  0.00    +0.000 A 
ATOM     22  C   UNL     1      -7.230  -3.024  25.496  0.00  0.00    +0.000 A 
ATOM     23  C   UNL     1      -8.171  -4.043  25.577  0.00  0.00    +0.000 A 
ENDBRANCH  16  18
ENDBRANCH   7  14
BRANCH   8  24
ATOM     24  O   UNL     1     -10.193  -8.838  25.602  0.00  0.00    +0.000 OA
ATOM     25  H   UNL     1      -9.667  -8.066  25.290  0.00  0.00    +0.000 HD
ENDBRANCH   8  24
TORSDOF 3
ENDMDL
MODEL 5
REMARK VINA RESULT:      -5.3     26.419     29.636
REMARK  Name = Piroxicam.pdbqt.pdb
REMARK  3 active torsions:
REMARK  status: ('A' for Active; 'I' for Inactive)
REMARK    1  A    between atoms: C_7  and  C_14
REMARK    2  A    between atoms: C_8  and  O_24
REMARK    3  A    between atoms: N_16  and  C_18
REMARK                            x       y       z     vdW  Elec       q    Type
REMARK                         _______ _______ _______ _____ _____    ______ ____
ROOT
ATOM      1  S   UNL     1     -22.141  -5.798  17.992  0.00  0.00    +0.000 S 
ATOM      2  O   UNL     1     -22.372  -6.775  19.040  0.00  0.00    +0.000 OA
ATOM      3  O   UNL     1     -23.060  -5.678  16.877  0.00  0.00    +0.000 OA
ATOM      4  N   UNL     1     -21.880  -4.261  18.724  0.00  0.00    +0.000 N 
ATOM      5  C   UNL     1     -20.549  -6.134  17.347  0.00  0.00    +0.000 A 
ATOM      6  C   UNL     1     -19.452  -5.651  18.058  0.00  0.00    +0.000 A 
ATOM      7  C   UNL     1     -20.766  -4.240  19.629  0.00  0.00    +0.000 C 
ATOM      8  C   UNL     1     -19.626  -4.899  19.315  0.00  0.00    +0.000 C 
ATOM      9  C   UNL     1     -20.422  -6.832  16.151  0.00  0.00    +0.000 A 
ATOM     10  C   UNL     1     -21.930  -3.058  17.875  0.00  0.00    +0.000 C 
ATOM     11  C   UNL     1     -18.181  -5.927  17.549  0.00  0.00    +0.000 A 
ATOM     12  C   UNL     1     -19.147  -7.083  15.658  0.00  0.00    +0.000 A 
ATOM     13  C   UNL     1     -18.028  -6.637  16.357  0.00  0.00    +0.000 A 
ENDROOT
BRANCH   7  14
ATOM     14  C   UNL     1     -20.905  -3.491  20.921  0.00  0.00    +0.000 C 
ATOM     15  O   UNL     1     -22.008  -3.418  21.459  0.00  0.00    +0.000 OA
ATOM     16  N   UNL     1     -19.746  -2.933  21.395  0.00  0.00    +0.000 N 
ATOM     17  H   UNL     1     -18.865  -3.097  20.923  0.00  0.00    +0.000 HD
BRANCH  16  18
ATOM     18  C   UNL     1     -19.607  -2.167  22.554  0.00  0.00    +0.000 A 
ATOM     19  N   UNL     1     -19.272  -0.880  22.331  0.00  0.00    +0.000 NA
ATOM     20  C   UNL     1     -19.128  -0.091  23.421  0.00  0.00    +0.000 A 
ATOM     21  C   UNL     1     -19.305  -0.520  24.724  0.00  0.00    +0.000 A 
ATOM     22  C   UNL     1     -19.652  -1.849  24.918  0.00  0.00    +0.000 A 
ATOM     23  C   UNL     1     -19.808  -2.691  23.823  0.00  0.00    +0.000 A 
ENDBRANCH  16  18
ENDBRANCH   7  14
BRANCH   8  24
ATOM     24  O   UNL     1     -18.506  -4.926  20.129  0.00  0.00    +0.000 OA
ATOM     25  H   UNL     1     -17.724  -5.215  19.606  0.00  0.00    +0.000 HD
ENDBRANCH   8  24
TORSDOF 3
ENDMDL
MODEL 6
REMARK VINA RESULT:      -5.2     29.315     31.844
REMARK  Name = Piroxicam.pdbqt.pdb
REMARK  3 active torsions:
REMARK  status: ('A' for Active; 'I' for Inactive)
REMARK    1  A    between atoms: C_7  and  C_14
REMARK    2  A    between atoms: C_8  and  O_24
REMARK    3  A    between atoms: N_16  and  C_18
REMARK                            x       y       z     vdW  Elec       q    Type
REMARK                         _______ _______ _______ _____ _____    ______ ____
ROOT
ATOM      1  S   UNL     1     -11.927 -11.472  28.426  0.00  0.00    +0.000 S 
ATOM      2  O   UNL     1     -10.768 -11.768  27.605  0.00  0.00    +0.000 OA
ATOM      3  O   UNL     1     -12.067 -12.054  29.746  0.00  0.00    +0.000 OA
ATOM      4  N   UNL     1     -12.125  -9.763  28.498  0.00  0.00    +0.000 N 
ATOM      5  C   UNL     1     -13.329 -11.929  27.481  0.00  0.00    +0.000 A 
ATOM      6  C   UNL     1     -13.770 -11.033  26.510  0.00  0.00    +0.000 A 
ATOM      7  C   UNL     1     -12.302  -9.152  27.211  0.00  0.00    +0.000 C 
ATOM      8  C   UNL     1     -13.072  -9.754  26.275  0.00  0.00    +0.000 C 
ATOM      9  C   UNL     1     -13.972 -13.134  27.740  0.00  0.00    +0.000 A 
ATOM     10  C   UNL     1     -13.036  -9.201  29.510  0.00  0.00    +0.000 C 
ATOM     11  C   UNL     1     -14.882 -11.401  25.750  0.00  0.00    +0.000 A 
ATOM     12  C   UNL     1     -15.084 -13.473  26.979  0.00  0.00    +0.000 A 
ATOM     13  C   UNL     1     -15.536 -12.612  25.982  0.00  0.00    +0.000 A 
ENDROOT
BRANCH   7  14
ATOM     14  C   UNL     1     -11.604  -7.854  26.931  0.00  0.00    +0.000 C 
ATOM     15  O   UNL     1     -12.271  -6.832  26.779  0.00  0.00    +0.000 OA
ATOM     16  N   UNL     1     -10.237  -7.933  26.861  0.00  0.00    +0.000 N 
ATOM     17  H   UNL     1      -9.761  -8.805  27.064  0.00  0.00    +0.000 HD
BRANCH  16  18
ATOM     18  C   UNL     1      -9.358  -6.885  26.587  0.00  0.00    +0.000 A 
ATOM     19  N   UNL     1      -8.392  -7.189  25.696  0.00  0.00    +0.000 NA
ATOM     20  C   UNL     1      -7.514  -6.206  25.390  0.00  0.00    +0.000 A 
ATOM     21  C   UNL     1      -7.551  -4.932  25.926  0.00  0.00    +0.000 A 
ATOM     22  C   UNL     1      -8.559  -4.651  26.838  0.00  0.00    +0.000 A 
ATOM     23  C   UNL     1      -9.479  -5.635  27.177  0.00  0.00    +0.000 A 
ENDBRANCH  16  18
ENDBRANCH   7  14
BRANCH   8  24
ATOM     24  O   UNL     1     -13.297  -9.231  25.013  0.00  0.00    +0.000 OA
ATOM     25  H   UNL     1     -13.039  -8.281  24.997  0.00  0.00    +0.000 HD
ENDBRANCH   8  24
TORSDOF 3
ENDMDL
MODEL 7
REMARK VINA RESULT:      -5.1     15.846     18.977
REMARK  Name = Piroxicam.pdbqt.pdb
REMARK  3 active torsions:
REMARK  status: ('A' for Active; 'I' for Inactive)
REMARK    1  A    between atoms: C_7  and  C_14
REMARK    2  A    between atoms: C_8  and  O_24
REMARK    3  A    between atoms: N_16  and  C_18
REMARK                            x       y       z     vdW  Elec       q    Type
REMARK                         _______ _______ _______ _____ _____    ______ ____
ROOT
ATOM      1  S   UNL     1     -13.522   9.651   5.334  0.00  0.00    +0.000 S 
ATOM      2  O   UNL     1     -13.141   9.857   6.719  0.00  0.00    +0.000 OA
ATOM      3  O   UNL     1     -13.413  10.727   4.368  0.00  0.00    +0.000 OA
ATOM      4  N   UNL     1     -12.728   8.238   4.751  0.00  0.00    +0.000 N 
ATOM      5  C   UNL     1     -15.188   9.111   5.356  0.00  0.00    +0.000 A 
ATOM      6  C   UNL     1     -15.424   7.766   5.636  0.00  0.00    +0.000 A 
ATOM      7  C   UNL     1     -13.045   7.054   5.498  0.00  0.00    +0.000 C 
ATOM      8  C   UNL     1     -14.314   6.837   5.918  0.00  0.00    +0.000 C 
ATOM      9  C   UNL     1     -16.208  10.010   5.070  0.00  0.00    +0.000 A 
ATOM     10  C   UNL     1     -12.706   7.989   3.299  0.00  0.00    +0.000 C 
ATOM     11  C   UNL     1     -16.753   7.337   5.664  0.00  0.00    +0.000 A 
ATOM     12  C   UNL     1     -17.522   9.557   5.091  0.00  0.00    +0.000 A 
ATOM     13  C   UNL     1     -17.796   8.224   5.393  0.00  0.00    +0.000 A 
ENDROOT
BRANCH   7  14
ATOM     14  C   UNL     1     -11.943   6.086   5.811  0.00  0.00    +0.000 C 
ATOM     15  O   UNL     1     -12.199   4.885   5.885  0.00  0.00    +0.000 OA
ATOM     16  N   UNL     1     -10.709   6.653   6.000  0.00  0.00    +0.000 N 
ATOM     17  H   UNL     1     -10.572   7.647   5.856  0.00  0.00    +0.000 HD
BRANCH  16  18
ATOM     18  C   UNL     1      -9.529   5.983   6.327  0.00  0.00    +0.000 A 
ATOM     19  N   UNL     1      -8.843   5.516   5.265  0.00  0.00    +0.000 NA
ATOM     20  C   UNL     1      -7.688   4.862   5.525  0.00  0.00    +0.000 A 
ATOM     21  C   UNL     1      -7.179   4.650   6.794  0.00  0.00    +0.000 A 
ATOM     22  C   UNL     1      -7.909   5.146   7.865  0.00  0.00    +0.000 A 
ATOM     23  C   UNL     1      -9.101   5.823   7.637  0.00  0.00    +0.000 A 
ENDBRANCH  16  18
ENDBRANCH   7  14
BRANCH   8  24
ATOM     24  O   UNL     1     -14.704   5.721   6.640  0.00  0.00    +0.000 OA
ATOM     25  H   UNL     1     -14.639   4.920   6.071  0.00  0.00    +0.000 HD
ENDBRANCH   8  24
TORSDOF 3
ENDMDL
MODEL 8
REMARK VINA RESULT:      -5.1     16.498     18.421
REMARK  Name = Piroxicam.pdbqt.pdb
REMARK  3 active torsions:
REMARK  status: ('A' for Active; 'I' for Inactive)
REMARK    1  A    between atoms: C_7  and  C_14
REMARK    2  A    between atoms: C_8  and  O_24
REMARK    3  A    between atoms: N_16  and  C_18
REMARK                            x       y       z     vdW  Elec       q    Type
REMARK                         _______ _______ _______ _____ _____    ______ ____
ROOT
ATOM      1  S   UNL     1       5.776 -11.095  13.806  0.00  0.00    +0.000 S 
ATOM      2  O   UNL     1       7.035 -10.569  14.301  0.00  0.00    +0.000 OA
ATOM      3  O   UNL     1       4.710 -11.450  14.722  0.00  0.00    +0.000 OA
ATOM      4  N   UNL     1       5.187 -10.040  12.578  0.00  0.00    +0.000 N 
ATOM      5  C   UNL     1       6.173 -12.515  12.862  0.00  0.00    +0.000 A 
ATOM      6  C   UNL     1       6.620 -12.316  11.557  0.00  0.00    +0.000 A 
ATOM      7  C   UNL     1       6.090  -9.887  11.473  0.00  0.00    +0.000 C 
ATOM      8  C   UNL     1       6.767 -10.958  10.998  0.00  0.00    +0.000 C 
ATOM      9  C   UNL     1       6.007 -13.780  13.415  0.00  0.00    +0.000 A 
ATOM     10  C   UNL     1       3.788 -10.183  12.137  0.00  0.00    +0.000 C 
ATOM     11  C   UNL     1       6.945 -13.448  10.807  0.00  0.00    +0.000 A 
ATOM     12  C   UNL     1       6.325 -14.892  12.645  0.00  0.00    +0.000 A 
ATOM     13  C   UNL     1       6.800 -14.727  11.345  0.00  0.00    +0.000 A 
ENDROOT
BRANCH   7  14
ATOM     14  C   UNL     1       6.273  -8.522  10.880  0.00  0.00    +0.000 C 
ATOM     15  O   UNL     1       6.167  -8.375   9.664  0.00  0.00    +0.000 OA
ATOM     16  N   UNL     1       6.559  -7.530  11.783  0.00  0.00    +0.000 N 
ATOM     17  H   UNL     1       6.563  -7.725  12.777  0.00  0.00    +0.000 HD
BRANCH  16  18
ATOM     18  C   UNL     1       6.801  -6.187  11.491  0.00  0.00    +0.000 A 
ATOM     19  N   UNL     1       8.103  -5.883  11.317  0.00  0.00    +0.000 NA
ATOM     20  C   UNL     1       8.395  -4.594  11.027  0.00  0.00    +0.000 A 
ATOM     21  C   UNL     1       7.451  -3.590  10.900  0.00  0.00    +0.000 A 
ATOM     22  C   UNL     1       6.120  -3.937  11.083  0.00  0.00    +0.000 A 
ATOM     23  C   UNL     1       5.782  -5.251  11.382  0.00  0.00    +0.000 A 
ENDBRANCH  16  18
ENDBRANCH   7  14
BRANCH   8  24
ATOM     24  O   UNL     1       7.653 -10.898   9.935  0.00  0.00    +0.000 OA
ATOM     25  H   UNL     1       7.886  -9.959   9.752  0.00  0.00    +0.000 HD
ENDBRANCH   8  24
TORSDOF 3
ENDMDL
MODEL 9
REMARK VINA RESULT:      -5.1     15.752     17.389
REMARK  Name = Piroxicam.pdbqt.pdb
REMARK  3 active torsions:
REMARK  status: ('A' for Active; 'I' for Inactive)
REMARK    1  A    between atoms: C_7  and  C_14
REMARK    2  A    between atoms: C_8  and  O_24
REMARK    3  A    between atoms: N_16  and  C_18
REMARK                            x       y       z     vdW  Elec       q    Type
REMARK                         _______ _______ _______ _____ _____    ______ ____
ROOT
ATOM      1  S   UNL     1       8.215  -9.920  11.396  0.00  0.00    +0.000 S 
ATOM      2  O   UNL     1       8.522 -10.236  10.013  0.00  0.00    +0.000 OA
ATOM      3  O   UNL     1       9.128 -10.286  12.460  0.00  0.00    +0.000 OA
ATOM      4  N   UNL     1       7.813  -8.248  11.498  0.00  0.00    +0.000 N 
ATOM      5  C   UNL     1       6.663 -10.656  11.737  0.00  0.00    +0.000 A 
ATOM      6  C   UNL     1       5.522  -9.977  11.312  0.00  0.00    +0.000 A 
ATOM      7  C   UNL     1       6.694  -7.877  10.679  0.00  0.00    +0.000 C 
ATOM      8  C   UNL     1       5.619  -8.695  10.589  0.00  0.00    +0.000 C 
ATOM      9  C   UNL     1       6.608 -11.857  12.435  0.00  0.00    +0.000 A 
ATOM     10  C   UNL     1       7.763  -7.614  12.827  0.00  0.00    +0.000 C 
ATOM     11  C   UNL     1       4.285 -10.569  11.576  0.00  0.00    +0.000 A 
ATOM     12  C   UNL     1       5.364 -12.419  12.696  0.00  0.00    +0.000 A 
ATOM     13  C   UNL     1       4.204 -11.781  12.263  0.00  0.00    +0.000 A 
ENDROOT
BRANCH   7  14
ATOM     14  C   UNL     1       6.755  -6.583   9.922  0.00  0.00    +0.000 C 
ATOM     15  O   UNL     1       6.881  -6.607   8.699  0.00  0.00    +0.000 OA
ATOM     16  N   UNL     1       6.669  -5.454  10.695  0.00  0.00    +0.000 N 
ATOM     17  H   UNL     1       6.500  -5.524  11.692  0.00  0.00    +0.000 HD
BRANCH  16  18
ATOM     18  C   UNL     1       6.728  -4.134  10.246  0.00  0.00    +0.000 A 
ATOM     19  N   UNL     1       7.972  -3.700   9.961  0.00  0.00    +0.000 NA
ATOM     20  C   UNL     1       8.087  -2.427   9.517  0.00  0.00    +0.000 A 
ATOM     21  C   UNL     1       7.021  -1.564   9.339  0.00  0.00    +0.000 A 
ATOM     22  C   UNL     1       5.754  -2.043   9.638  0.00  0.00    +0.000 A 
ATOM     23  C   UNL     1       5.596  -3.345  10.098  0.00  0.00    +0.000 A 
ENDBRANCH  16  18
ENDBRANCH   7  14
BRANCH   8  24
ATOM     24  O   UNL     1       4.499  -8.411   9.826  0.00  0.00    +0.000 OA
ATOM     25  H   UNL     1       3.717  -8.301  10.414  0.00  0.00    +0.000 HD
ENDBRANCH   8  24
TORSDOF 3
ENDMDL
