MODEL 1
REMARK VINA RESULT:      -5.2      0.000      0.000
REMARK  Name = PKR_Inhibitor.pdbqt.pdb
REMARK  0 active torsions:
REMARK  status: ('A' for Active; 'I' for Inactive)
REMARK                            x       y       z     vdW  Elec       q    Type
REMARK                         _______ _______ _______ _____ _____    ______ ____
ROOT
ATOM      1  S   UNL     1      -3.152  -4.272  -3.161  0.00  0.00    +0.000 S 
ATOM      2  O   UNL     1      -5.475  -7.660   0.908  0.00  0.00    +0.000 OA
ATOM      3  N   UNL     1      -5.568  -5.317   0.985  0.00  0.00    +0.000 N 
ATOM      4  N   UNL     1      -3.508  -1.747  -2.644  0.00  0.00    +0.000 NA
ATOM      5  C   UNL     1      -4.455  -4.764  -0.929  0.00  0.00    +0.000 A 
ATOM      6  C   UNL     1      -5.133  -4.255   0.207  0.00  0.00    +0.000 A 
ATOM      7  C   UNL     1      -4.489  -6.249  -0.817  0.00  0.00    +0.000 C 
ATOM      8  C   UNL     1      -3.973  -3.826  -1.780  0.00  0.00    +0.000 A 
ATOM      9  C   UNL     1      -5.229  -6.560   0.451  0.00  0.00    +0.000 C 
ATOM     10  C   UNL     1      -4.098  -2.464  -1.616  0.00  0.00    +0.000 A 
ATOM     11  C   UNL     1      -5.323  -2.903   0.482  0.00  0.00    +0.000 A 
ATOM     12  C   UNL     1      -4.009  -7.159  -1.603  0.00  0.00    +0.000 C 
ATOM     13  C   UNL     1      -4.784  -2.004  -0.467  0.00  0.00    +0.000 A 
ATOM     14  C   UNL     1      -2.986  -2.600  -3.502  0.00  0.00    +0.000 A 
ATOM     15  H   UNL     1      -6.080  -5.226   1.851  0.00  0.00    +0.000 HD
ATOM     16  C   UNL     1      -3.513  -8.212  -2.408  0.00  0.00    +0.000 C 
ATOM     17  N   UNL     1      -3.650  -9.543  -2.130  0.00  0.00    +0.000 N 
ATOM     18  C   UNL     1      -3.043 -10.241  -3.137  0.00  0.00    +0.000 C 
ATOM     19  H   UNL     1      -4.115  -9.946  -1.328  0.00  0.00    +0.000 HD
ATOM     20  N   UNL     1      -2.528  -9.432  -4.037  0.00  0.00    +0.000 NA
ATOM     21  C   UNL     1      -2.815  -8.164  -3.592  0.00  0.00    +0.000 C 
ENDROOT
TORSDOF 0
ENDMDL
MODEL 2
REMARK VINA RESULT:      -4.8     17.311     18.280
REMARK  Name = PKR_Inhibitor.pdbqt.pdb
REMARK  0 active torsions:
REMARK  status: ('A' for Active; 'I' for Inactive)
REMARK                            x       y       z     vdW  Elec       q    Type
REMARK                         _______ _______ _______ _____ _____    ______ ____
ROOT
ATOM      1  S   UNL     1       8.027 -13.181  11.811  0.00  0.00    +0.000 S 
ATOM      2  O   UNL     1       2.800 -10.711  11.912  0.00  0.00    +0.000 OA
ATOM      3  N   UNL     1       4.772  -9.521  11.464  0.00  0.00    +0.000 N 
ATOM      4  N   UNL     1       9.904 -11.463  11.271  0.00  0.00    +0.000 NA
ATOM      5  C   UNL     1       6.335 -11.177  11.610  0.00  0.00    +0.000 A 
ATOM      6  C   UNL     1       6.127  -9.796  11.367  0.00  0.00    +0.000 A 
ATOM      7  C   UNL     1       4.994 -11.771  11.874  0.00  0.00    +0.000 C 
ATOM      8  C   UNL     1       7.625 -11.584  11.547  0.00  0.00    +0.000 A 
ATOM      9  C   UNL     1       4.005 -10.647  11.766  0.00  0.00    +0.000 C 
ATOM     10  C   UNL     1       8.704 -10.773  11.270  0.00  0.00    +0.000 A 
ATOM     11  C   UNL     1       7.133  -8.878  11.077  0.00  0.00    +0.000 A 
ATOM     12  C   UNL     1       4.659 -12.991  12.147  0.00  0.00    +0.000 C 
ATOM     13  C   UNL     1       8.445  -9.402  11.033  0.00  0.00    +0.000 A 
ATOM     14  C   UNL     1       9.659 -12.728  11.543  0.00  0.00    +0.000 A 
ATOM     15  H   UNL     1       4.356  -8.609  11.333  0.00  0.00    +0.000 HD
ATOM     16  C   UNL     1       4.211 -14.299  12.451  0.00  0.00    +0.000 C 
ATOM     17  N   UNL     1       2.908 -14.653  12.662  0.00  0.00    +0.000 N 
ATOM     18  C   UNL     1       2.881 -15.994  12.925  0.00  0.00    +0.000 C 
ATOM     19  H   UNL     1       2.105 -14.040  12.631  0.00  0.00    +0.000 HD
ATOM     20  N   UNL     1       4.089 -16.513  12.893  0.00  0.00    +0.000 NA
ATOM     21  C   UNL     1       4.927 -15.465  12.599  0.00  0.00    +0.000 C 
ENDROOT
TORSDOF 0
ENDMDL
MODEL 3
REMARK VINA RESULT:      -4.6     15.930     18.071
REMARK  Name = PKR_Inhibitor.pdbqt.pdb
REMARK  0 active torsions:
REMARK  status: ('A' for Active; 'I' for Inactive)
REMARK                            x       y       z     vdW  Elec       q    Type
REMARK                         _______ _______ _______ _____ _____    ______ ____
ROOT
ATOM      1  S   UNL     1       4.538 -20.317   6.900  0.00  0.00    +0.000 S 
ATOM      2  O   UNL     1       5.051 -17.107   2.118  0.00  0.00    +0.000 OA
ATOM      3  N   UNL     1       3.053 -18.169   2.741  0.00  0.00    +0.000 N 
ATOM      4  N   UNL     1       2.138 -21.286   7.168  0.00  0.00    +0.000 NA
ATOM      5  C   UNL     1       3.679 -19.193   4.682  0.00  0.00    +0.000 A 
ATOM      6  C   UNL     1       2.609 -18.975   3.778  0.00  0.00    +0.000 A 
ATOM      7  C   UNL     1       4.855 -18.456   4.137  0.00  0.00    +0.000 C 
ATOM      8  C   UNL     1       3.381 -19.971   5.749  0.00  0.00    +0.000 A 
ATOM      9  C   UNL     1       4.394 -17.803   2.868  0.00  0.00    +0.000 C 
ATOM     10  C   UNL     1       2.151 -20.540   6.001  0.00  0.00    +0.000 A 
ATOM     11  C   UNL     1       1.326 -19.494   3.923  0.00  0.00    +0.000 A 
ATOM     12  C   UNL     1       6.060 -18.347   4.598  0.00  0.00    +0.000 C 
ATOM     13  C   UNL     1       1.115 -20.293   5.070  0.00  0.00    +0.000 A 
ATOM     14  C   UNL     1       3.337 -21.232   7.711  0.00  0.00    +0.000 A 
ATOM     15  H   UNL     1       2.485 -17.863   1.963  0.00  0.00    +0.000 HD
ATOM     16  C   UNL     1       7.396 -18.180   5.034  0.00  0.00    +0.000 C 
ATOM     17  N   UNL     1       8.348 -17.447   4.382  0.00  0.00    +0.000 N 
ATOM     18  C   UNL     1       9.502 -17.527   5.110  0.00  0.00    +0.000 C 
ATOM     19  H   UNL     1       8.228 -16.937   3.518  0.00  0.00    +0.000 HD
ATOM     20  N   UNL     1       9.340 -18.266   6.185  0.00  0.00    +0.000 NA
ATOM     21  C   UNL     1       8.030 -18.679   6.148  0.00  0.00    +0.000 C 
ENDROOT
TORSDOF 0
ENDMDL
MODEL 4
REMARK VINA RESULT:      -4.6     23.961     26.288
REMARK  Name = PKR_Inhibitor.pdbqt.pdb
REMARK  0 active torsions:
REMARK  status: ('A' for Active; 'I' for Inactive)
REMARK                            x       y       z     vdW  Elec       q    Type
REMARK                         _______ _______ _______ _____ _____    ______ ____
ROOT
ATOM      1  S   UNL     1     -23.249  -4.831  18.044  0.00  0.00    +0.000 S 
ATOM      2  O   UNL     1     -17.677  -6.291  17.539  0.00  0.00    +0.000 OA
ATOM      3  N   UNL     1     -19.275  -6.741  15.882  0.00  0.00    +0.000 N 
ATOM      4  N   UNL     1     -24.632  -5.536  15.956  0.00  0.00    +0.000 NA
ATOM      5  C   UNL     1     -21.159  -5.872  16.831  0.00  0.00    +0.000 A 
ATOM      6  C   UNL     1     -20.633  -6.535  15.694  0.00  0.00    +0.000 A 
ATOM      7  C   UNL     1     -20.021  -5.668  17.771  0.00  0.00    +0.000 C 
ATOM      8  C   UNL     1     -22.486  -5.607  16.780  0.00  0.00    +0.000 A 
ATOM      9  C   UNL     1     -18.811  -6.253  17.104  0.00  0.00    +0.000 C 
ATOM     10  C   UNL     1     -23.323  -5.929  15.733  0.00  0.00    +0.000 A 
ATOM     11  C   UNL     1     -21.375  -6.912  14.578  0.00  0.00    +0.000 A 
ATOM     12  C   UNL     1     -19.991  -5.110  18.940  0.00  0.00    +0.000 C 
ATOM     13  C   UNL     1     -22.751  -6.590  14.620  0.00  0.00    +0.000 A 
ATOM     14  C   UNL     1     -24.697  -4.953  17.135  0.00  0.00    +0.000 A 
ATOM     15  H   UNL     1     -18.662  -7.195  15.218  0.00  0.00    +0.000 HD
ATOM     16  C   UNL     1     -19.874  -4.519  20.220  0.00  0.00    +0.000 C 
ATOM     17  N   UNL     1     -18.715  -4.424  20.938  0.00  0.00    +0.000 N 
ATOM     18  C   UNL     1     -19.008  -3.794  22.115  0.00  0.00    +0.000 C 
ATOM     19  H   UNL     1     -17.803  -4.758  20.656  0.00  0.00    +0.000 HD
ATOM     20  N   UNL     1     -20.283  -3.482  22.187  0.00  0.00    +0.000 NA
ATOM     21  C   UNL     1     -20.834  -3.930  21.011  0.00  0.00    +0.000 C 
ENDROOT
TORSDOF 0
ENDMDL
MODEL 5
REMARK VINA RESULT:      -4.5     15.853     17.212
REMARK  Name = PKR_Inhibitor.pdbqt.pdb
REMARK  0 active torsions:
REMARK  status: ('A' for Active; 'I' for Inactive)
REMARK                            x       y       z     vdW  Elec       q    Type
REMARK                         _______ _______ _______ _____ _____    ______ ____
ROOT
ATOM      1  S   UNL     1      -0.396 -21.866   5.702  0.00  0.00    +0.000 S 
ATOM      2  O   UNL     1       2.515 -18.328   2.175  0.00  0.00    +0.000 OA
ATOM      3  N   UNL     1       2.828 -18.363   4.500  0.00  0.00    +0.000 N 
ATOM      4  N   UNL     1       0.291 -21.541   8.190  0.00  0.00    +0.000 NA
ATOM      5  C   UNL     1       1.348 -19.983   5.125  0.00  0.00    +0.000 A 
ATOM      6  C   UNL     1       2.316 -19.056   5.586  0.00  0.00    +0.000 A 
ATOM      7  C   UNL     1       1.278 -19.827   3.645  0.00  0.00    +0.000 C 
ATOM      8  C   UNL     1       0.763 -20.732   6.090  0.00  0.00    +0.000 A 
ATOM      9  C   UNL     1       2.265 -18.756   3.285  0.00  0.00    +0.000 C 
ATOM     10  C   UNL     1       1.042 -20.653   7.438  0.00  0.00    +0.000 A 
ATOM     11  C   UNL     1       2.683 -18.883   6.918  0.00  0.00    +0.000 A 
ATOM     12  C   UNL     1       0.548 -20.445   2.772  0.00  0.00    +0.000 C 
ATOM     13  C   UNL     1       2.016 -19.713   7.848  0.00  0.00    +0.000 A 
ATOM     14  C   UNL     1      -0.490 -22.221   7.377  0.00  0.00    +0.000 A 
ATOM     15  H   UNL     1       3.536 -17.643   4.555  0.00  0.00    +0.000 HD
ATOM     16  C   UNL     1      -0.214 -21.073   1.758  0.00  0.00    +0.000 C 
ATOM     17  N   UNL     1      -0.132 -20.786   0.424  0.00  0.00    +0.000 N 
ATOM     18  C   UNL     1      -1.018 -21.597  -0.229  0.00  0.00    +0.000 C 
ATOM     19  H   UNL     1       0.472 -20.100  -0.008  0.00  0.00    +0.000 HD
ATOM     20  N   UNL     1      -1.657 -22.382   0.610  0.00  0.00    +0.000 NA
ATOM     21  C   UNL     1      -1.164 -22.063   1.853  0.00  0.00    +0.000 C 
ENDROOT
TORSDOF 0
ENDMDL
MODEL 6
REMARK VINA RESULT:      -4.4     16.099     17.783
REMARK  Name = PKR_Inhibitor.pdbqt.pdb
REMARK  0 active torsions:
REMARK  status: ('A' for Active; 'I' for Inactive)
REMARK                            x       y       z     vdW  Elec       q    Type
REMARK                         _______ _______ _______ _____ _____    ______ ____
ROOT
ATOM      1  S   UNL     1      -0.857 -21.115   4.317  0.00  0.00    +0.000 S 
ATOM      2  O   UNL     1       2.644 -19.208   8.505  0.00  0.00    +0.000 OA
ATOM      3  N   UNL     1       3.062 -18.853   6.224  0.00  0.00    +0.000 N 
ATOM      4  N   UNL     1       0.021 -20.480   1.952  0.00  0.00    +0.000 NA
ATOM      5  C   UNL     1       1.263 -19.887   5.275  0.00  0.00    +0.000 A 
ATOM      6  C   UNL     1       2.453 -19.162   5.017  0.00  0.00    +0.000 A 
ATOM      7  C   UNL     1       1.156 -20.020   6.755  0.00  0.00    +0.000 C 
ATOM      8  C   UNL     1       0.565 -20.256   4.174  0.00  0.00    +0.000 A 
ATOM      9  C   UNL     1       2.355 -19.327   7.330  0.00  0.00    +0.000 C 
ATOM     10  C   UNL     1       0.925 -19.979   2.873  0.00  0.00    +0.000 A 
ATOM     11  C   UNL     1       2.922 -18.823   3.751  0.00  0.00    +0.000 A 
ATOM     12  C   UNL     1       0.250 -20.596   7.479  0.00  0.00    +0.000 C 
ATOM     13  C   UNL     1       2.121 -19.252   2.667  0.00  0.00    +0.000 A 
ATOM     14  C   UNL     1      -0.947 -21.090   2.605  0.00  0.00    +0.000 A 
ATOM     15  H   UNL     1       3.927 -18.338   6.320  0.00  0.00    +0.000 HD
ATOM     16  C   UNL     1      -0.695 -21.203   8.340  0.00  0.00    +0.000 C 
ATOM     17  N   UNL     1      -0.618 -21.217   9.705  0.00  0.00    +0.000 N 
ATOM     18  C   UNL     1      -1.709 -21.894  10.174  0.00  0.00    +0.000 C 
ATOM     19  H   UNL     1       0.111 -20.805  10.271  0.00  0.00    +0.000 HD
ATOM     20  N   UNL     1      -2.475 -22.309   9.189  0.00  0.00    +0.000 NA
ATOM     21  C   UNL     1      -1.852 -21.884   8.041  0.00  0.00    +0.000 C 
ENDROOT
TORSDOF 0
ENDMDL
MODEL 7
REMARK VINA RESULT:      -4.3     22.822     24.457
REMARK  Name = PKR_Inhibitor.pdbqt.pdb
REMARK  0 active torsions:
REMARK  status: ('A' for Active; 'I' for Inactive)
REMARK                            x       y       z     vdW  Elec       q    Type
REMARK                         _______ _______ _______ _____ _____    ______ ____
ROOT
ATOM      1  S   UNL     1     -11.252   8.244  17.922  0.00  0.00    +0.000 S 
ATOM      2  O   UNL     1     -13.830   3.070  17.842  0.00  0.00    +0.000 OA
ATOM      3  N   UNL     1     -12.302   3.715  19.501  0.00  0.00    +0.000 N 
ATOM      4  N   UNL     1      -9.644   8.498  19.951  0.00  0.00    +0.000 NA
ATOM      5  C   UNL     1     -11.771   5.828  18.821  0.00  0.00    +0.000 A 
ATOM      6  C   UNL     1     -11.537   4.832  19.802  0.00  0.00    +0.000 A 
ATOM      7  C   UNL     1     -12.754   5.256  17.858  0.00  0.00    +0.000 C 
ATOM      8  C   UNL     1     -11.081   6.980  18.996  0.00  0.00    +0.000 A 
ATOM      9  C   UNL     1     -13.069   3.873  18.347  0.00  0.00    +0.000 C 
ATOM     10  C   UNL     1     -10.203   7.235  20.027  0.00  0.00    +0.000 A 
ATOM     11  C   UNL     1     -10.676   4.969  20.888  0.00  0.00    +0.000 A 
ATOM     12  C   UNL     1     -13.281   5.773  16.794  0.00  0.00    +0.000 C 
ATOM     13  C   UNL     1     -10.004   6.210  20.982  0.00  0.00    +0.000 A 
ATOM     14  C   UNL     1     -10.127   9.106  18.887  0.00  0.00    +0.000 A 
ATOM     15  H   UNL     1     -12.319   2.863  20.045  0.00  0.00    +0.000 HD
ATOM     16  C   UNL     1     -13.899   6.266  15.621  0.00  0.00    +0.000 C 
ATOM     17  N   UNL     1     -14.797   5.573  14.857  0.00  0.00    +0.000 N 
ATOM     18  C   UNL     1     -15.164   6.380  13.817  0.00  0.00    +0.000 C 
ATOM     19  H   UNL     1     -15.132   4.634  15.025  0.00  0.00    +0.000 HD
ATOM     20  N   UNL     1     -14.554   7.543  13.874  0.00  0.00    +0.000 NA
ATOM     21  C   UNL     1     -13.762   7.483  14.995  0.00  0.00    +0.000 C 
ENDROOT
TORSDOF 0
ENDMDL
MODEL 8
REMARK VINA RESULT:      -4.3     11.857     13.731
REMARK  Name = PKR_Inhibitor.pdbqt.pdb
REMARK  0 active torsions:
REMARK  status: ('A' for Active; 'I' for Inactive)
REMARK                            x       y       z     vdW  Elec       q    Type
REMARK                         _______ _______ _______ _____ _____    ______ ____
ROOT
ATOM      1  S   UNL     1     -15.952  -0.756  -4.122  0.00  0.00    +0.000 S 
ATOM      2  O   UNL     1     -13.963   2.735   0.036  0.00  0.00    +0.000 OA
ATOM      3  N   UNL     1     -12.830   2.375  -1.986  0.00  0.00    +0.000 N 
ATOM      4  N   UNL     1     -14.353  -0.834  -6.173  0.00  0.00    +0.000 NA
ATOM      5  C   UNL     1     -14.239   0.918  -3.034  0.00  0.00    +0.000 A 
ATOM      6  C   UNL     1     -13.021   1.635  -3.143  0.00  0.00    +0.000 A 
ATOM      7  C   UNL     1     -14.818   1.259  -1.704  0.00  0.00    +0.000 C 
ATOM      8  C   UNL     1     -14.550   0.147  -4.103  0.00  0.00    +0.000 A 
ATOM      9  C   UNL     1     -13.859   2.216  -1.058  0.00  0.00    +0.000 C 
ATOM     10  C   UNL     1     -13.788   0.023  -5.244  0.00  0.00    +0.000 A 
ATOM     11  C   UNL     1     -12.167   1.592  -4.241  0.00  0.00    +0.000 A 
ATOM     12  C   UNL     1     -15.915   0.862  -1.142  0.00  0.00    +0.000 C 
ATOM     13  C   UNL     1     -12.581   0.759  -5.306  0.00  0.00    +0.000 A 
ATOM     14  C   UNL     1     -15.486  -1.293  -5.682  0.00  0.00    +0.000 A 
ATOM     15  H   UNL     1     -12.036   2.976  -1.810  0.00  0.00    +0.000 HD
ATOM     16  C   UNL     1     -17.093   0.474  -0.461  0.00  0.00    +0.000 C 
ATOM     17  N   UNL     1     -17.459   0.909   0.782  0.00  0.00    +0.000 N 
ATOM     18  C   UNL     1     -18.650   0.315   1.094  0.00  0.00    +0.000 C 
ATOM     19  H   UNL     1     -16.946   1.551   1.371  0.00  0.00    +0.000 HD
ATOM     20  N   UNL     1     -19.063  -0.469   0.123  0.00  0.00    +0.000 NA
ATOM     21  C   UNL     1     -18.099  -0.378  -0.852  0.00  0.00    +0.000 C 
ENDROOT
TORSDOF 0
ENDMDL
MODEL 9
REMARK VINA RESULT:      -4.2     19.754     20.650
REMARK  Name = PKR_Inhibitor.pdbqt.pdb
REMARK  0 active torsions:
REMARK  status: ('A' for Active; 'I' for Inactive)
REMARK                            x       y       z     vdW  Elec       q    Type
REMARK                         _______ _______ _______ _____ _____    ______ ____
ROOT
ATOM      1  S   UNL     1      11.193 -14.275  12.219  0.00  0.00    +0.000 S 
ATOM      2  O   UNL     1       5.526 -13.866  11.145  0.00  0.00    +0.000 OA
ATOM      3  N   UNL     1       7.008 -12.061  10.916  0.00  0.00    +0.000 N 
ATOM      4  N   UNL     1      12.423 -12.016  11.826  0.00  0.00    +0.000 NA
ATOM      5  C   UNL     1       8.986 -13.030  11.511  0.00  0.00    +0.000 A 
ATOM      6  C   UNL     1       8.364 -11.830  11.085  0.00  0.00    +0.000 A 
ATOM      7  C   UNL     1       7.912 -14.059  11.603  0.00  0.00    +0.000 C 
ATOM      8  C   UNL     1      10.322 -12.944  11.716  0.00  0.00    +0.000 A 
ATOM      9  C   UNL     1       6.637 -13.376  11.204  0.00  0.00    +0.000 C 
ATOM     10  C   UNL     1      11.083 -11.809  11.542  0.00  0.00    +0.000 A 
ATOM     11  C   UNL     1       9.024 -10.622  10.875  0.00  0.00    +0.000 A 
ATOM     12  C   UNL     1       7.975 -15.306  11.946  0.00  0.00    +0.000 C 
ATOM     13  C   UNL     1      10.417 -10.636  11.116  0.00  0.00    +0.000 A 
ATOM     14  C   UNL     1      12.583 -13.272  12.188  0.00  0.00    +0.000 A 
ATOM     15  H   UNL     1       6.336 -11.368  10.617  0.00  0.00    +0.000 HD
ATOM     16  C   UNL     1       7.959 -16.673  12.309  0.00  0.00    +0.000 C 
ATOM     17  N   UNL     1       6.847 -17.467  12.330  0.00  0.00    +0.000 N 
ATOM     18  C   UNL     1       7.236 -18.715  12.730  0.00  0.00    +0.000 C 
ATOM     19  H   UNL     1       5.904 -17.189  12.094  0.00  0.00    +0.000 HD
ATOM     20  N   UNL     1       8.529 -18.761  12.964  0.00  0.00    +0.000 NA
ATOM     21  C   UNL     1       8.991 -17.493  12.705  0.00  0.00    +0.000 C 
ENDROOT
TORSDOF 0
ENDMDL
