MODEL 1
REMARK VINA RESULT:      -6.5      0.000      0.000
REMARK  Name = 
REMARK  14 active torsions:
REMARK  status: ('A' for Active; 'I' for Inactive)
REMARK    1  A    between atoms: O_1  and  C_14
REMARK    2  A    between atoms: O_1  and  C_15
REMARK    3  A    between atoms: O_4  and  C_16
REMARK    4  A    between atoms: O_5  and  C_18
REMARK    5  A    between atoms: O_6  and  C_26
REMARK    6  A    between atoms: O_7  and  C_29
REMARK    7  A    between atoms: O_8  and  C_35
REMARK    8  A    between atoms: O_9  and  C_36
REMARK    9  A    between atoms: O_10  and  C_39
REMARK   10  A    between atoms: O_11  and  C_40
REMARK   11  A    between atoms: O_12  and  C_41
REMARK   12  A    between atoms: O_13  and  C_43
REMARK   13  A    between atoms: C_14  and  C_20
REMARK   14  A    between atoms: C_17  and  C_24
REMARK                            x       y       z     vdW  Elec       q    Type
REMARK                         _______ _______ _______ _____ _____    ______ ____
ROOT
ATOM      1  O   UNL     1       7.731  -8.678  12.791  0.00  0.00    +0.000 OA
ATOM      2  C   UNL     1       6.845  -9.272  11.832  0.00  0.00    +0.000 C 
ATOM      3  C   UNL     1       6.443  -8.247  10.728  0.00  0.00    +0.000 C 
ATOM      4  C   UNL     1       5.837  -6.996  11.355  0.00  0.00    +0.000 C 
ATOM      5  C   UNL     1       6.680  -6.492  12.489  0.00  0.00    +0.000 A 
ATOM      6  C   UNL     1       7.558  -7.366  13.136  0.00  0.00    +0.000 A 
ATOM      7  C   UNL     1       6.591  -5.174  12.960  0.00  0.00    +0.000 A 
ATOM      8  C   UNL     1       8.336  -6.926  14.209  0.00  0.00    +0.000 A 
ATOM      9  C   UNL     1       7.347  -4.731  14.041  0.00  0.00    +0.000 A 
ATOM     10  C   UNL     1       8.221  -5.615  14.657  0.00  0.00    +0.000 A 
ENDROOT
BRANCH   2  11
ATOM     11  C   UNL     1       5.597  -9.904  12.479  0.00  0.00    +0.000 A 
ATOM     12  C   UNL     1       4.507 -10.322  11.682  0.00  0.00    +0.000 A 
ATOM     13  C   UNL     1       5.511 -10.098  13.874  0.00  0.00    +0.000 A 
ATOM     14  C   UNL     1       3.385 -10.894  12.272  0.00  0.00    +0.000 A 
ATOM     15  C   UNL     1       4.373 -10.661  14.459  0.00  0.00    +0.000 A 
ATOM     16  C   UNL     1       3.318 -11.047  13.652  0.00  0.00    +0.000 A 
BRANCH  14  17
ATOM     17  O   UNL     1       2.316 -11.332  11.543  0.00  0.00    +0.000 OA
ATOM     18  H   UNL     1       1.784 -11.952  12.082  0.00  0.00    +0.000 HD
ENDBRANCH  14  17
BRANCH  16  19
ATOM     19  O   UNL     1       2.207 -11.601  14.223  0.00  0.00    +0.000 OA
ATOM     20  H   UNL     1       1.844 -12.188  13.528  0.00  0.00    +0.000 HD
ENDBRANCH  16  19
ENDBRANCH   2  11
BRANCH   3  21
ATOM     21  O   UNL     1       7.582  -7.847   9.914  0.00  0.00    +0.000 OA
ATOM     22  H   UNL     1       7.219  -7.198   9.278  0.00  0.00    +0.000 HD
ENDBRANCH   3  21
BRANCH   4  23
ATOM     23  O   UNL     1       5.718  -5.968  10.356  0.00  0.00    +0.000 OA
ATOM     24  H   UNL     1       5.362  -5.195  10.849  0.00  0.00    +0.000 HD
ENDBRANCH   4  23
BRANCH   7  25
ATOM     25  O   UNL     1       5.769  -4.253  12.365  0.00  0.00    +0.000 OA
ATOM     26  H   UNL     1       5.104  -4.754  11.844  0.00  0.00    +0.000 HD
ENDBRANCH   7  25
BRANCH  10  27
ATOM     27  O   UNL     1       8.992  -5.232  15.715  0.00  0.00    +0.000 OA
ATOM     28  H   UNL     1       8.423  -5.163  16.500  0.00  0.00    +0.000 HD
ENDBRANCH  10  27
BRANCH   2  29
ATOM     29  O   UNL     1       7.588 -10.280  11.091  0.00  0.00    +0.000 OA
BRANCH  29  31
ATOM     30  O   UNL     1      10.005 -12.906  12.087  0.00  0.00    +0.000 OA
ATOM     31  C   UNL     1       8.794 -10.784  11.698  0.00  0.00    +0.000 C 
ATOM     32  C   UNL     1       8.868 -12.311  11.447  0.00  0.00    +0.000 C 
ATOM     33  C   UNL     1      10.046 -10.155  11.078  0.00  0.00    +0.000 C 
ATOM     34  C   UNL     1      11.281 -10.978  11.320  0.00  0.00    +0.000 A 
ATOM     35  C   UNL     1      11.192 -12.286  11.806  0.00  0.00    +0.000 A 
ATOM     36  C   UNL     1      12.551 -10.451  11.055  0.00  0.00    +0.000 A 
ATOM     37  C   UNL     1      12.343 -13.034  12.065  0.00  0.00    +0.000 A 
ATOM     38  C   UNL     1      13.706 -11.192  11.294  0.00  0.00    +0.000 A 
ATOM     39  C   UNL     1      13.591 -12.479  11.804  0.00  0.00    +0.000 A 
BRANCH  32  40
ATOM     40  C   UNL     1       7.625 -13.015  11.975  0.00  0.00    +0.000 A 
ATOM     41  C   UNL     1       7.424 -13.187  13.354  0.00  0.00    +0.000 A 
ATOM     42  C   UNL     1       6.620 -13.430  11.083  0.00  0.00    +0.000 A 
ATOM     43  C   UNL     1       6.222 -13.717  13.820  0.00  0.00    +0.000 A 
ATOM     44  C   UNL     1       5.426 -13.978  11.556  0.00  0.00    +0.000 A 
ATOM     45  C   UNL     1       5.226 -14.104  12.927  0.00  0.00    +0.000 A 
BRANCH  43  46
ATOM     46  O   UNL     1       5.982 -13.797  15.162  0.00  0.00    +0.000 OA
ATOM     47  H   UNL     1       5.184 -13.284  15.374  0.00  0.00    +0.000 HD
ENDBRANCH  43  46
BRANCH  45  48
ATOM     48  O   UNL     1       4.041 -14.579  13.414  0.00  0.00    +0.000 OA
ATOM     49  H   UNL     1       3.329 -14.346  12.796  0.00  0.00    +0.000 HD
ENDBRANCH  45  48
ENDBRANCH  32  40
BRANCH  36  50
ATOM     50  O   UNL     1      12.641  -9.182  10.556  0.00  0.00    +0.000 OA
ATOM     51  H   UNL     1      11.764  -8.905  10.239  0.00  0.00    +0.000 HD
ENDBRANCH  36  50
BRANCH  39  52
ATOM     52  O   UNL     1      14.741 -13.176  12.035  0.00  0.00    +0.000 OA
ATOM     53  H   UNL     1      15.140 -13.411  11.179  0.00  0.00    +0.000 HD
ENDBRANCH  39  52
ENDBRANCH  29  31
ENDBRANCH   2  29
TORSDOF 14
ENDMDL
MODEL 2
REMARK VINA RESULT:      -6.4      2.661      6.662
REMARK  Name = 
REMARK  14 active torsions:
REMARK  status: ('A' for Active; 'I' for Inactive)
REMARK    1  A    between atoms: O_1  and  C_14
REMARK    2  A    between atoms: O_1  and  C_15
REMARK    3  A    between atoms: O_4  and  C_16
REMARK    4  A    between atoms: O_5  and  C_18
REMARK    5  A    between atoms: O_6  and  C_26
REMARK    6  A    between atoms: O_7  and  C_29
REMARK    7  A    between atoms: O_8  and  C_35
REMARK    8  A    between atoms: O_9  and  C_36
REMARK    9  A    between atoms: O_10  and  C_39
REMARK   10  A    between atoms: O_11  and  C_40
REMARK   11  A    between atoms: O_12  and  C_41
REMARK   12  A    between atoms: O_13  and  C_43
REMARK   13  A    between atoms: C_14  and  C_20
REMARK   14  A    between atoms: C_17  and  C_24
REMARK                            x       y       z     vdW  Elec       q    Type
REMARK                         _______ _______ _______ _____ _____    ______ ____
ROOT
ATOM      1  O   UNL     1       7.861  -9.579  11.362  0.00  0.00    +0.000 OA
ATOM      2  C   UNL     1       7.687  -8.244  11.856  0.00  0.00    +0.000 C 
ATOM      3  C   UNL     1       7.058  -8.250  13.282  0.00  0.00    +0.000 C 
ATOM      4  C   UNL     1       5.745  -9.027  13.284  0.00  0.00    +0.000 C 
ATOM      5  C   UNL     1       5.893 -10.348  12.590  0.00  0.00    +0.000 A 
ATOM      6  C   UNL     1       6.930 -10.531  11.671  0.00  0.00    +0.000 A 
ATOM      7  C   UNL     1       4.998 -11.408  12.798  0.00  0.00    +0.000 A 
ATOM      8  C   UNL     1       7.074 -11.745  10.995  0.00  0.00    +0.000 A 
ATOM      9  C   UNL     1       5.121 -12.614  12.115  0.00  0.00    +0.000 A 
ATOM     10  C   UNL     1       6.167 -12.774  11.218  0.00  0.00    +0.000 A 
ENDROOT
BRANCH   2  11
ATOM     11  C   UNL     1       6.874  -7.350  10.899  0.00  0.00    +0.000 A 
ATOM     12  C   UNL     1       6.482  -7.827   9.628  0.00  0.00    +0.000 A 
ATOM     13  C   UNL     1       6.487  -6.043  11.265  0.00  0.00    +0.000 A 
ATOM     14  C   UNL     1       5.746  -7.015   8.770  0.00  0.00    +0.000 A 
ATOM     15  C   UNL     1       5.761  -5.230  10.390  0.00  0.00    +0.000 A 
ATOM     16  C   UNL     1       5.403  -5.722   9.148  0.00  0.00    +0.000 A 
BRANCH  14  17
ATOM     17  O   UNL     1       5.326  -7.439   7.541  0.00  0.00    +0.000 OA
ATOM     18  H   UNL     1       4.566  -8.046   7.647  0.00  0.00    +0.000 HD
ENDBRANCH  14  17
BRANCH  16  19
ATOM     19  O   UNL     1       4.689  -4.930   8.294  0.00  0.00    +0.000 OA
ATOM     20  H   UNL     1       4.710  -4.045   8.711  0.00  0.00    +0.000 HD
ENDBRANCH  16  19
ENDBRANCH   2  11
BRANCH   3  21
ATOM     21  O   UNL     1       7.947  -8.849  14.268  0.00  0.00    +0.000 OA
ATOM     22  H   UNL     1       7.543  -9.716  14.476  0.00  0.00    +0.000 HD
ENDBRANCH   3  21
BRANCH   4  23
ATOM     23  O   UNL     1       5.320  -9.246  14.640  0.00  0.00    +0.000 OA
ATOM     24  H   UNL     1       4.838  -8.422  14.876  0.00  0.00    +0.000 HD
ENDBRANCH   4  23
BRANCH   7  25
ATOM     25  O   UNL     1       3.970 -11.313  13.698  0.00  0.00    +0.000 OA
ATOM     26  H   UNL     1       3.486 -12.167  13.675  0.00  0.00    +0.000 HD
ENDBRANCH   7  25
BRANCH  10  27
ATOM     27  O   UNL     1       6.340 -13.938  10.527  0.00  0.00    +0.000 OA
ATOM     28  H   UNL     1       5.629 -14.012   9.868  0.00  0.00    +0.000 HD
ENDBRANCH  10  27
BRANCH   2  29
ATOM     29  O   UNL     1       9.004  -7.667  12.080  0.00  0.00    +0.000 OA
BRANCH  29  31
ATOM     30  O   UNL     1      11.966  -7.225   9.897  0.00  0.00    +0.000 OA
ATOM     31  C   UNL     1      10.070  -8.111  11.217  0.00  0.00    +0.000 C 
ATOM     32  C   UNL     1      10.924  -6.881  10.821  0.00  0.00    +0.000 C 
ATOM     33  C   UNL     1      10.995  -9.106  11.923  0.00  0.00    +0.000 C 
ATOM     34  C   UNL     1      12.342  -9.208  11.261  0.00  0.00    +0.000 A 
ATOM     35  C   UNL     1      12.743  -8.277  10.298  0.00  0.00    +0.000 A 
ATOM     36  C   UNL     1      13.227 -10.238  11.603  0.00  0.00    +0.000 A 
ATOM     37  C   UNL     1      13.979  -8.398   9.658  0.00  0.00    +0.000 A 
ATOM     38  C   UNL     1      14.468 -10.359  10.983  0.00  0.00    +0.000 A 
ATOM     39  C   UNL     1      14.831  -9.438  10.009  0.00  0.00    +0.000 A 
BRANCH  32  40
ATOM     40  C   UNL     1      10.069  -5.805  10.166  0.00  0.00    +0.000 A 
ATOM     41  C   UNL     1       9.840  -4.575  10.804  0.00  0.00    +0.000 A 
ATOM     42  C   UNL     1       9.565  -6.003   8.868  0.00  0.00    +0.000 A 
ATOM     43  C   UNL     1       9.164  -3.559  10.133  0.00  0.00    +0.000 A 
ATOM     44  C   UNL     1       8.871  -4.986   8.207  0.00  0.00    +0.000 A 
ATOM     45  C   UNL     1       8.688  -3.760   8.839  0.00  0.00    +0.000 A 
BRANCH  43  46
ATOM     46  O   UNL     1       9.022  -2.329  10.711  0.00  0.00    +0.000 OA
ATOM     47  H   UNL     1       8.252  -2.344  11.304  0.00  0.00    +0.000 HD
ENDBRANCH  43  46
BRANCH  45  48
ATOM     48  O   UNL     1       8.069  -2.731   8.188  0.00  0.00    +0.000 OA
ATOM     49  H   UNL     1       8.363  -1.890   8.573  0.00  0.00    +0.000 HD
ENDBRANCH  45  48
ENDBRANCH  32  40
BRANCH  36  50
ATOM     50  O   UNL     1      12.847 -11.134  12.562  0.00  0.00    +0.000 OA
ATOM     51  H   UNL     1      13.236 -10.869  13.413  0.00  0.00    +0.000 HD
ENDBRANCH  36  50
BRANCH  39  52
ATOM     52  O   UNL     1      16.050  -9.589   9.415  0.00  0.00    +0.000 OA
ATOM     53  H   UNL     1      16.557  -8.767   9.531  0.00  0.00    +0.000 HD
ENDBRANCH  39  52
ENDBRANCH  29  31
ENDBRANCH   2  29
TORSDOF 14
ENDMDL
MODEL 3
REMARK VINA RESULT:      -6.2      2.520      7.740
REMARK  Name = 
REMARK  14 active torsions:
REMARK  status: ('A' for Active; 'I' for Inactive)
REMARK    1  A    between atoms: O_1  and  C_14
REMARK    2  A    between atoms: O_1  and  C_15
REMARK    3  A    between atoms: O_4  and  C_16
REMARK    4  A    between atoms: O_5  and  C_18
REMARK    5  A    between atoms: O_6  and  C_26
REMARK    6  A    between atoms: O_7  and  C_29
REMARK    7  A    between atoms: O_8  and  C_35
REMARK    8  A    between atoms: O_9  and  C_36
REMARK    9  A    between atoms: O_10  and  C_39
REMARK   10  A    between atoms: O_11  and  C_40
REMARK   11  A    between atoms: O_12  and  C_41
REMARK   12  A    between atoms: O_13  and  C_43
REMARK   13  A    between atoms: C_14  and  C_20
REMARK   14  A    between atoms: C_17  and  C_24
REMARK                            x       y       z     vdW  Elec       q    Type
REMARK                         _______ _______ _______ _____ _____    ______ ____
ROOT
ATOM      1  O   UNL     1       6.328  -9.715  12.491  0.00  0.00    +0.000 OA
ATOM      2  C   UNL     1       7.756  -9.725  12.628  0.00  0.00    +0.000 C 
ATOM      3  C   UNL     1       8.397 -10.839  11.745  0.00  0.00    +0.000 C 
ATOM      4  C   UNL     1       7.789 -12.198  12.074  0.00  0.00    +0.000 C 
ATOM      5  C   UNL     1       6.292 -12.129  12.117  0.00  0.00    +0.000 A 
ATOM      6  C   UNL     1       5.665 -10.899  12.332  0.00  0.00    +0.000 A 
ATOM      7  C   UNL     1       5.485 -13.270  11.988  0.00  0.00    +0.000 A 
ATOM      8  C   UNL     1       4.272 -10.814  12.399  0.00  0.00    +0.000 A 
ATOM      9  C   UNL     1       4.098 -13.199  12.073  0.00  0.00    +0.000 A 
ATOM     10  C   UNL     1       3.500 -11.963  12.274  0.00  0.00    +0.000 A 
ENDROOT
BRANCH   2  11
ATOM     11  C   UNL     1       8.217  -9.849  14.094  0.00  0.00    +0.000 A 
ATOM     12  C   UNL     1       7.304  -9.656  15.154  0.00  0.00    +0.000 A 
ATOM     13  C   UNL     1       9.552 -10.172  14.419  0.00  0.00    +0.000 A 
ATOM     14  C   UNL     1       7.726  -9.772  16.475  0.00  0.00    +0.000 A 
ATOM     15  C   UNL     1       9.970 -10.272  15.749  0.00  0.00    +0.000 A 
ATOM     16  C   UNL     1       9.054 -10.064  16.764  0.00  0.00    +0.000 A 
BRANCH  14  17
ATOM     17  O   UNL     1       6.876  -9.614  17.533  0.00  0.00    +0.000 OA
ATOM     18  H   UNL     1       6.707  -8.661  17.677  0.00  0.00    +0.000 HD
ENDBRANCH  14  17
BRANCH  16  19
ATOM     19  O   UNL     1       9.461 -10.166  18.064  0.00  0.00    +0.000 OA
ATOM     20  H   UNL     1       8.899  -9.525  18.545  0.00  0.00    +0.000 HD
ENDBRANCH  16  19
ENDBRANCH   2  11
BRANCH   3  21
ATOM     21  O   UNL     1       8.209 -10.584  10.324  0.00  0.00    +0.000 OA
ATOM     22  H   UNL     1       8.984 -10.047  10.061  0.00  0.00    +0.000 HD
ENDBRANCH   3  21
BRANCH   4  23
ATOM     23  O   UNL     1       8.194 -13.157  11.083  0.00  0.00    +0.000 OA
ATOM     24  H   UNL     1       7.760 -12.846  10.257  0.00  0.00    +0.000 HD
ENDBRANCH   4  23
BRANCH   7  25
ATOM     25  O   UNL     1       6.025 -14.507  11.754  0.00  0.00    +0.000 OA
ATOM     26  H   UNL     1       6.956 -14.480  12.065  0.00  0.00    +0.000 HD
ENDBRANCH   7  25
BRANCH  10  27
ATOM     27  O   UNL     1       2.145 -11.834  12.357  0.00  0.00    +0.000 OA
ATOM     28  H   UNL     1       1.781 -11.838  11.455  0.00  0.00    +0.000 HD
ENDBRANCH  10  27
BRANCH   2  29
ATOM     29  O   UNL     1       8.278  -8.499  12.043  0.00  0.00    +0.000 OA
BRANCH  29  31
ATOM     30  O   UNL     1       7.203  -4.957  12.195  0.00  0.00    +0.000 OA
ATOM     31  C   UNL     1       7.354  -7.406  11.878  0.00  0.00    +0.000 C 
ATOM     32  C   UNL     1       8.079  -6.090  12.258  0.00  0.00    +0.000 C 
ATOM     33  C   UNL     1       6.887  -7.271  10.425  0.00  0.00    +0.000 C 
ATOM     34  C   UNL     1       6.340  -5.903  10.123  0.00  0.00    +0.000 A 
ATOM     35  C   UNL     1       6.524  -4.841  11.012  0.00  0.00    +0.000 A 
ATOM     36  C   UNL     1       5.638  -5.664   8.935  0.00  0.00    +0.000 A 
ATOM     37  C   UNL     1       5.981  -3.582  10.746  0.00  0.00    +0.000 A 
ATOM     38  C   UNL     1       5.106  -4.409   8.650  0.00  0.00    +0.000 A 
ATOM     39  C   UNL     1       5.278  -3.378   9.564  0.00  0.00    +0.000 A 
BRANCH  32  40
ATOM     40  C   UNL     1       8.637  -6.159  13.673  0.00  0.00    +0.000 A 
ATOM     41  C   UNL     1       7.794  -6.033  14.789  0.00  0.00    +0.000 A 
ATOM     42  C   UNL     1      10.001  -6.435  13.877  0.00  0.00    +0.000 A 
ATOM     43  C   UNL     1       8.304  -6.228  16.071  0.00  0.00    +0.000 A 
ATOM     44  C   UNL     1      10.510  -6.610  15.167  0.00  0.00    +0.000 A 
ATOM     45  C   UNL     1       9.653  -6.521  16.259  0.00  0.00    +0.000 A 
BRANCH  43  46
ATOM     46  O   UNL     1       7.470  -6.201  17.153  0.00  0.00    +0.000 OA
ATOM     47  H   UNL     1       7.410  -7.094  17.530  0.00  0.00    +0.000 HD
ENDBRANCH  43  46
BRANCH  45  48
ATOM     48  O   UNL     1      10.115  -6.751  17.523  0.00  0.00    +0.000 OA
ATOM     49  H   UNL     1      10.441  -5.916  17.898  0.00  0.00    +0.000 HD
ENDBRANCH  45  48
ENDBRANCH  32  40
BRANCH  36  50
ATOM     50  O   UNL     1       5.479  -6.695   8.051  0.00  0.00    +0.000 OA
ATOM     51  H   UNL     1       5.214  -7.492   8.541  0.00  0.00    +0.000 HD
ENDBRANCH  36  50
BRANCH  39  52
ATOM     52  O   UNL     1       4.738  -2.163   9.259  0.00  0.00    +0.000 OA
ATOM     53  H   UNL     1       4.261  -2.236   8.415  0.00  0.00    +0.000 HD
ENDBRANCH  39  52
ENDBRANCH  29  31
ENDBRANCH   2  29
TORSDOF 14
ENDMDL
MODEL 4
REMARK VINA RESULT:      -6.0     18.755     23.636
REMARK  Name = 
REMARK  14 active torsions:
REMARK  status: ('A' for Active; 'I' for Inactive)
REMARK    1  A    between atoms: O_1  and  C_14
REMARK    2  A    between atoms: O_1  and  C_15
REMARK    3  A    between atoms: O_4  and  C_16
REMARK    4  A    between atoms: O_5  and  C_18
REMARK    5  A    between atoms: O_6  and  C_26
REMARK    6  A    between atoms: O_7  and  C_29
REMARK    7  A    between atoms: O_8  and  C_35
REMARK    8  A    between atoms: O_9  and  C_36
REMARK    9  A    between atoms: O_10  and  C_39
REMARK   10  A    between atoms: O_11  and  C_40
REMARK   11  A    between atoms: O_12  and  C_41
REMARK   12  A    between atoms: O_13  and  C_43
REMARK   13  A    between atoms: C_14  and  C_20
REMARK   14  A    between atoms: C_17  and  C_24
REMARK                            x       y       z     vdW  Elec       q    Type
REMARK                         _______ _______ _______ _____ _____    ______ ____
ROOT
ATOM      1  O   UNL     1     -11.433 -11.638   2.765  0.00  0.00    +0.000 OA
ATOM      2  C   UNL     1     -12.463 -12.079   1.870  0.00  0.00    +0.000 C 
ATOM      3  C   UNL     1     -13.113 -13.404   2.372  0.00  0.00    +0.000 C 
ATOM      4  C   UNL     1     -12.049 -14.477   2.578  0.00  0.00    +0.000 C 
ATOM      5  C   UNL     1     -10.883 -13.944   3.356  0.00  0.00    +0.000 A 
ATOM      6  C   UNL     1     -10.647 -12.567   3.388  0.00  0.00    +0.000 A 
ATOM      7  C   UNL     1      -9.984 -14.786   4.028  0.00  0.00    +0.000 A 
ATOM      8  C   UNL     1      -9.554 -12.049   4.086  0.00  0.00    +0.000 A 
ATOM      9  C   UNL     1      -8.880 -14.281   4.709  0.00  0.00    +0.000 A 
ATOM     10  C   UNL     1      -8.677 -12.909   4.736  0.00  0.00    +0.000 A 
ENDROOT
BRANCH   2  11
ATOM     11  C   UNL     1     -11.975 -12.220   0.415  0.00  0.00    +0.000 A 
ATOM     12  C   UNL     1     -10.601 -12.111   0.103  0.00  0.00    +0.000 A 
ATOM     13  C   UNL     1     -12.875 -12.476  -0.641  0.00  0.00    +0.000 A 
ATOM     14  C   UNL     1     -10.167 -12.241  -1.212  0.00  0.00    +0.000 A 
ATOM     15  C   UNL     1     -12.431 -12.591  -1.961  0.00  0.00    +0.000 A 
ATOM     16  C   UNL     1     -11.081 -12.466  -2.234  0.00  0.00    +0.000 A 
BRANCH  14  17
ATOM     17  O   UNL     1      -8.847 -12.165  -1.559  0.00  0.00    +0.000 OA
ATOM     18  H   UNL     1      -8.642 -11.257  -1.863  0.00  0.00    +0.000 HD
ENDBRANCH  14  17
BRANCH  16  19
ATOM     19  O   UNL     1     -10.646 -12.583  -3.523  0.00  0.00    +0.000 OA
ATOM     20  H   UNL     1      -9.670 -12.565  -3.453  0.00  0.00    +0.000 HD
ENDBRANCH  16  19
ENDBRANCH   2  11
BRANCH   3  21
ATOM     21  O   UNL     1     -13.830 -13.220   3.626  0.00  0.00    +0.000 OA
ATOM     22  H   UNL     1     -13.165 -13.396   4.322  0.00  0.00    +0.000 HD
ENDBRANCH   3  21
BRANCH   4  23
ATOM     23  O   UNL     1     -12.623 -15.592   3.283  0.00  0.00    +0.000 OA
ATOM     24  H   UNL     1     -13.399 -15.207   3.749  0.00  0.00    +0.000 HD
ENDBRANCH   4  23
BRANCH   7  25
ATOM     25  O   UNL     1     -10.159 -16.144   4.060  0.00  0.00    +0.000 OA
ATOM     26  H   UNL     1      -9.492 -16.536   3.454  0.00  0.00    +0.000 HD
ENDBRANCH   7  25
BRANCH  10  27
ATOM     27  O   UNL     1      -7.617 -12.360   5.397  0.00  0.00    +0.000 OA
ATOM     28  H   UNL     1      -7.667 -12.624   6.331  0.00  0.00    +0.000 HD
ENDBRANCH  10  27
BRANCH   2  29
ATOM     29  O   UNL     1     -13.562 -11.127   1.937  0.00  0.00    +0.000 OA
BRANCH  29  31
ATOM     30  O   UNL     1     -13.593  -7.459   2.460  0.00  0.00    +0.000 OA
ATOM     31  C   UNL     1     -13.331  -9.909   2.673  0.00  0.00    +0.000 C 
ATOM     32  C   UNL     1     -13.855  -8.720   1.830  0.00  0.00    +0.000 C 
ATOM     33  C   UNL     1     -14.089  -9.898   4.005  0.00  0.00    +0.000 C 
ATOM     34  C   UNL     1     -14.270  -8.509   4.550  0.00  0.00    +0.000 A 
ATOM     35  C   UNL     1     -14.013  -7.385   3.759  0.00  0.00    +0.000 A 
ATOM     36  C   UNL     1     -14.710  -8.312   5.865  0.00  0.00    +0.000 A 
ATOM     37  C   UNL     1     -14.146  -6.097   4.282  0.00  0.00    +0.000 A 
ATOM     38  C   UNL     1     -14.862  -7.032   6.393  0.00  0.00    +0.000 A 
ATOM     39  C   UNL     1     -14.571  -5.933   5.595  0.00  0.00    +0.000 A 
BRANCH  32  40
ATOM     40  C   UNL     1     -13.199  -8.690   0.455  0.00  0.00    +0.000 A 
ATOM     41  C   UNL     1     -11.805  -8.593   0.322  0.00  0.00    +0.000 A 
ATOM     42  C   UNL     1     -13.986  -8.845  -0.701  0.00  0.00    +0.000 A 
ATOM     43  C   UNL     1     -11.219  -8.697  -0.937  0.00  0.00    +0.000 A 
ATOM     44  C   UNL     1     -13.393  -8.930  -1.963  0.00  0.00    +0.000 A 
ATOM     45  C   UNL     1     -12.007  -8.871  -2.073  0.00  0.00    +0.000 A 
BRANCH  43  46
ATOM     46  O   UNL     1      -9.859  -8.700  -1.064  0.00  0.00    +0.000 OA
ATOM     47  H   UNL     1      -9.470  -8.196  -0.329  0.00  0.00    +0.000 HD
ENDBRANCH  43  46
BRANCH  45  48
ATOM     48  O   UNL     1     -11.402  -9.015  -3.289  0.00  0.00    +0.000 OA
ATOM     49  H   UNL     1     -10.593  -8.479  -3.307  0.00  0.00    +0.000 HD
ENDBRANCH  45  48
ENDBRANCH  32  40
BRANCH  36  50
ATOM     50  O   UNL     1     -14.986  -9.409   6.633  0.00  0.00    +0.000 OA
ATOM     51  H   UNL     1     -14.966  -9.151   7.570  0.00  0.00    +0.000 HD
ENDBRANCH  36  50
BRANCH  39  52
ATOM     52  O   UNL     1     -14.723  -4.693   6.144  0.00  0.00    +0.000 OA
ATOM     53  H   UNL     1     -15.672  -4.520   6.266  0.00  0.00    +0.000 HD
ENDBRANCH  39  52
ENDBRANCH  29  31
ENDBRANCH   2  29
TORSDOF 14
ENDMDL
MODEL 5
REMARK VINA RESULT:      -6.0     25.825     29.816
REMARK  Name = 
REMARK  14 active torsions:
REMARK  status: ('A' for Active; 'I' for Inactive)
REMARK    1  A    between atoms: O_1  and  C_14
REMARK    2  A    between atoms: O_1  and  C_15
REMARK    3  A    between atoms: O_4  and  C_16
REMARK    4  A    between atoms: O_5  and  C_18
REMARK    5  A    between atoms: O_6  and  C_26
REMARK    6  A    between atoms: O_7  and  C_29
REMARK    7  A    between atoms: O_8  and  C_35
REMARK    8  A    between atoms: O_9  and  C_36
REMARK    9  A    between atoms: O_10  and  C_39
REMARK   10  A    between atoms: O_11  and  C_40
REMARK   11  A    between atoms: O_12  and  C_41
REMARK   12  A    between atoms: O_13  and  C_43
REMARK   13  A    between atoms: C_14  and  C_20
REMARK   14  A    between atoms: C_17  and  C_24
REMARK                            x       y       z     vdW  Elec       q    Type
REMARK                         _______ _______ _______ _____ _____    ______ ____
ROOT
ATOM      1  O   UNL     1     -17.651   4.444  15.422  0.00  0.00    +0.000 OA
ATOM      2  C   UNL     1     -17.374   5.772  15.890  0.00  0.00    +0.000 C 
ATOM      3  C   UNL     1     -18.571   6.729  15.605  0.00  0.00    +0.000 C 
ATOM      4  C   UNL     1     -18.922   6.716  14.120  0.00  0.00    +0.000 C 
ATOM      5  C   UNL     1     -19.020   5.315  13.595  0.00  0.00    +0.000 A 
ATOM      6  C   UNL     1     -18.371   4.279  14.272  0.00  0.00    +0.000 A 
ATOM      7  C   UNL     1     -19.711   5.005  12.414  0.00  0.00    +0.000 A 
ATOM      8  C   UNL     1     -18.428   2.970  13.789  0.00  0.00    +0.000 A 
ATOM      9  C   UNL     1     -19.756   3.707  11.914  0.00  0.00    +0.000 A 
ATOM     10  C   UNL     1     -19.115   2.695  12.613  0.00  0.00    +0.000 A 
ENDROOT
BRANCH   2  11
ATOM     11  C   UNL     1     -16.060   6.346  15.325  0.00  0.00    +0.000 A 
ATOM     12  C   UNL     1     -15.514   7.540  15.847  0.00  0.00    +0.000 A 
ATOM     13  C   UNL     1     -15.360   5.695  14.288  0.00  0.00    +0.000 A 
ATOM     14  C   UNL     1     -14.326   8.052  15.334  0.00  0.00    +0.000 A 
ATOM     15  C   UNL     1     -14.175   6.225  13.769  0.00  0.00    +0.000 A 
ATOM     16  C   UNL     1     -13.674   7.402  14.293  0.00  0.00    +0.000 A 
BRANCH  14  17
ATOM     17  O   UNL     1     -13.749   9.191  15.820  0.00  0.00    +0.000 OA
ATOM     18  H   UNL     1     -13.182   8.969  16.586  0.00  0.00    +0.000 HD
ENDBRANCH  14  17
BRANCH  16  19
ATOM     19  O   UNL     1     -12.514   7.918  13.790  0.00  0.00    +0.000 OA
ATOM     20  H   UNL     1     -12.160   7.208  13.216  0.00  0.00    +0.000 HD
ENDBRANCH  16  19
ENDBRANCH   2  11
BRANCH   3  21
ATOM     21  O   UNL     1     -19.759   6.358  16.360  0.00  0.00    +0.000 OA
ATOM     22  H   UNL     1     -19.523   5.519  16.804  0.00  0.00    +0.000 HD
ENDBRANCH   3  21
BRANCH   4  23
ATOM     23  O   UNL     1     -20.177   7.390  13.919  0.00  0.00    +0.000 OA
ATOM     24  H   UNL     1     -19.975   8.076  13.245  0.00  0.00    +0.000 HD
ENDBRANCH   4  23
BRANCH   7  25
ATOM     25  O   UNL     1     -20.389   5.961  11.707  0.00  0.00    +0.000 OA
ATOM     26  H   UNL     1     -20.816   5.509  10.946  0.00  0.00    +0.000 HD
ENDBRANCH   7  25
BRANCH  10  27
ATOM     27  O   UNL     1     -19.135   1.403  12.173  0.00  0.00    +0.000 OA
ATOM     28  H   UNL     1     -19.599   1.377  11.319  0.00  0.00    +0.000 HD
ENDBRANCH  10  27
BRANCH   2  29
ATOM     29  O   UNL     1     -17.320   5.738  17.345  0.00  0.00    +0.000 OA
BRANCH  29  31
ATOM     30  O   UNL     1     -16.149   3.142  19.715  0.00  0.00    +0.000 OA
ATOM     31  C   UNL     1     -17.330   4.440  17.972  0.00  0.00    +0.000 C 
ATOM     32  C   UNL     1     -16.257   4.428  19.089  0.00  0.00    +0.000 C 
ATOM     33  C   UNL     1     -18.681   4.138  18.627  0.00  0.00    +0.000 C 
ATOM     34  C   UNL     1     -18.583   3.062  19.673  0.00  0.00    +0.000 A 
ATOM     35  C   UNL     1     -17.341   2.630  20.148  0.00  0.00    +0.000 A 
ATOM     36  C   UNL     1     -19.740   2.474  20.200  0.00  0.00    +0.000 A 
ATOM     37  C   UNL     1     -17.254   1.603  21.091  0.00  0.00    +0.000 A 
ATOM     38  C   UNL     1     -19.666   1.460  21.153  0.00  0.00    +0.000 A 
ATOM     39  C   UNL     1     -18.419   1.029  21.586  0.00  0.00    +0.000 A 
BRANCH  32  40
ATOM     40  C   UNL     1     -14.883   4.784  18.536  0.00  0.00    +0.000 A 
ATOM     41  C   UNL     1     -14.292   4.016  17.521  0.00  0.00    +0.000 A 
ATOM     42  C   UNL     1     -14.226   5.945  18.984  0.00  0.00    +0.000 A 
ATOM     43  C   UNL     1     -13.096   4.433  16.941  0.00  0.00    +0.000 A 
ATOM     44  C   UNL     1     -13.017   6.347  18.411  0.00  0.00    +0.000 A 
ATOM     45  C   UNL     1     -12.465   5.596  17.378  0.00  0.00    +0.000 A 
BRANCH  43  46
ATOM     46  O   UNL     1     -12.565   3.743  15.888  0.00  0.00    +0.000 OA
ATOM     47  H   UNL     1     -12.768   2.798  15.993  0.00  0.00    +0.000 HD
ENDBRANCH  43  46
BRANCH  45  48
ATOM     48  O   UNL     1     -11.318   6.005  16.761  0.00  0.00    +0.000 OA
ATOM     49  H   UNL     1     -11.275   5.609  15.875  0.00  0.00    +0.000 HD
ENDBRANCH  45  48
ENDBRANCH  32  40
BRANCH  36  50
ATOM     50  O   UNL     1     -20.956   2.912  19.756  0.00  0.00    +0.000 OA
ATOM     51  H   UNL     1     -21.656   2.435  20.233  0.00  0.00    +0.000 HD
ENDBRANCH  36  50
BRANCH  39  52
ATOM     52  O   UNL     1     -18.380   0.030  22.514  0.00  0.00    +0.000 OA
ATOM     53  H   UNL     1     -18.568  -0.815  22.071  0.00  0.00    +0.000 HD
ENDBRANCH  39  52
ENDBRANCH  29  31
ENDBRANCH   2  29
TORSDOF 14
ENDMDL
MODEL 6
REMARK VINA RESULT:      -5.8     20.748     24.000
REMARK  Name = 
REMARK  14 active torsions:
REMARK  status: ('A' for Active; 'I' for Inactive)
REMARK    1  A    between atoms: O_1  and  C_14
REMARK    2  A    between atoms: O_1  and  C_15
REMARK    3  A    between atoms: O_4  and  C_16
REMARK    4  A    between atoms: O_5  and  C_18
REMARK    5  A    between atoms: O_6  and  C_26
REMARK    6  A    between atoms: O_7  and  C_29
REMARK    7  A    between atoms: O_8  and  C_35
REMARK    8  A    between atoms: O_9  and  C_36
REMARK    9  A    between atoms: O_10  and  C_39
REMARK   10  A    between atoms: O_11  and  C_40
REMARK   11  A    between atoms: O_12  and  C_41
REMARK   12  A    between atoms: O_13  and  C_43
REMARK   13  A    between atoms: C_14  and  C_20
REMARK   14  A    between atoms: C_17  and  C_24
REMARK                            x       y       z     vdW  Elec       q    Type
REMARK                         _______ _______ _______ _____ _____    ______ ____
ROOT
ATOM      1  O   UNL     1      -6.457  -2.666  -6.214  0.00  0.00    +0.000 OA
ATOM      2  C   UNL     1      -5.580  -3.772  -5.958  0.00  0.00    +0.000 C 
ATOM      3  C   UNL     1      -5.793  -4.910  -7.002  0.00  0.00    +0.000 C 
ATOM      4  C   UNL     1      -7.255  -5.345  -7.028  0.00  0.00    +0.000 C 
ATOM      5  C   UNL     1      -8.173  -4.162  -7.102  0.00  0.00    +0.000 A 
ATOM      6  C   UNL     1      -7.718  -2.909  -6.681  0.00  0.00    +0.000 A 
ATOM      7  C   UNL     1      -9.500  -4.271  -7.544  0.00  0.00    +0.000 A 
ATOM      8  C   UNL     1      -8.563  -1.797  -6.719  0.00  0.00    +0.000 A 
ATOM      9  C   UNL     1     -10.356  -3.173  -7.566  0.00  0.00    +0.000 A 
ATOM     10  C   UNL     1      -9.875  -1.939  -7.155  0.00  0.00    +0.000 A 
ENDROOT
BRANCH   2  11
ATOM     11  C   UNL     1      -5.698  -4.312  -4.520  0.00  0.00    +0.000 A 
ATOM     12  C   UNL     1      -6.232  -3.506  -3.490  0.00  0.00    +0.000 A 
ATOM     13  C   UNL     1      -5.295  -5.624  -4.193  0.00  0.00    +0.000 A 
ATOM     14  C   UNL     1      -6.338  -4.001  -2.194  0.00  0.00    +0.000 A 
ATOM     15  C   UNL     1      -5.392  -6.108  -2.885  0.00  0.00    +0.000 A 
ATOM     16  C   UNL     1      -5.907  -5.289  -1.897  0.00  0.00    +0.000 A 
BRANCH  14  17
ATOM     17  O   UNL     1      -6.867  -3.267  -1.170  0.00  0.00    +0.000 OA
ATOM     18  H   UNL     1      -6.184  -3.127  -0.482  0.00  0.00    +0.000 HD
ENDBRANCH  14  17
BRANCH  16  19
ATOM     19  O   UNL     1      -6.006  -5.762  -0.620  0.00  0.00    +0.000 OA
ATOM     20  H   UNL     1      -6.574  -5.109  -0.162  0.00  0.00    +0.000 HD
ENDBRANCH  16  19
ENDBRANCH   2  11
BRANCH   3  21
ATOM     21  O   UNL     1      -5.413  -4.497  -8.346  0.00  0.00    +0.000 OA
ATOM     22  H   UNL     1      -6.246  -4.512  -8.858  0.00  0.00    +0.000 HD
ENDBRANCH   3  21
BRANCH   4  23
ATOM     23  O   UNL     1      -7.481  -6.196  -8.165  0.00  0.00    +0.000 OA
ATOM     24  H   UNL     1      -7.106  -5.691  -8.921  0.00  0.00    +0.000 HD
ENDBRANCH   4  23
BRANCH   7  25
ATOM     25  O   UNL     1     -10.012  -5.459  -7.991  0.00  0.00    +0.000 OA
ATOM     26  H   UNL     1     -10.921  -5.277  -8.319  0.00  0.00    +0.000 HD
ENDBRANCH   7  25
BRANCH  10  27
ATOM     27  O   UNL     1     -10.667  -0.828  -7.165  0.00  0.00    +0.000 OA
ATOM     28  H   UNL     1     -11.550  -1.078  -6.843  0.00  0.00    +0.000 HD
ENDBRANCH  10  27
BRANCH   2  29
ATOM     29  O   UNL     1      -4.215  -3.338  -6.218  0.00  0.00    +0.000 OA
BRANCH  29  31
ATOM     30  O   UNL     1      -2.391  -0.193  -5.504  0.00  0.00    +0.000 OA
ATOM     31  C   UNL     1      -3.980  -1.918  -6.290  0.00  0.00    +0.000 C 
ATOM     32  C   UNL     1      -2.660  -1.601  -5.545  0.00  0.00    +0.000 C 
ATOM     33  C   UNL     1      -3.817  -1.443  -7.738  0.00  0.00    +0.000 C 
ATOM     34  C   UNL     1      -3.107  -0.121  -7.831  0.00  0.00    +0.000 A 
ATOM     35  C   UNL     1      -2.446   0.422  -6.725  0.00  0.00    +0.000 A 
ATOM     36  C   UNL     1      -3.087   0.593  -9.036  0.00  0.00    +0.000 A 
ATOM     37  C   UNL     1      -1.821   1.669  -6.805  0.00  0.00    +0.000 A 
ATOM     38  C   UNL     1      -2.452   1.829  -9.133  0.00  0.00    +0.000 A 
ATOM     39  C   UNL     1      -1.829   2.359  -8.011  0.00  0.00    +0.000 A 
BRANCH  32  40
ATOM     40  C   UNL     1      -2.707  -2.100  -4.107  0.00  0.00    +0.000 A 
ATOM     41  C   UNL     1      -3.392  -1.380  -3.115  0.00  0.00    +0.000 A 
ATOM     42  C   UNL     1      -2.130  -3.339  -3.774  0.00  0.00    +0.000 A 
ATOM     43  C   UNL     1      -3.532  -1.918  -1.837  0.00  0.00    +0.000 A 
ATOM     44  C   UNL     1      -2.258  -3.864  -2.486  0.00  0.00    +0.000 A 
ATOM     45  C   UNL     1      -2.974  -3.156  -1.526  0.00  0.00    +0.000 A 
BRANCH  43  46
ATOM     46  O   UNL     1      -4.279  -1.268  -0.896  0.00  0.00    +0.000 OA
ATOM     47  H   UNL     1      -5.018  -1.838  -0.627  0.00  0.00    +0.000 HD
ENDBRANCH  43  46
BRANCH  45  48
ATOM     48  O   UNL     1      -3.166  -3.680  -0.279  0.00  0.00    +0.000 OA
ATOM     49  H   UNL     1      -3.840  -3.157   0.184  0.00  0.00    +0.000 HD
ENDBRANCH  45  48
ENDBRANCH  32  40
BRANCH  36  50
ATOM     50  O   UNL     1      -3.710   0.053 -10.126  0.00  0.00    +0.000 OA
ATOM     51  H   UNL     1      -3.723   0.713 -10.840  0.00  0.00    +0.000 HD
ENDBRANCH  36  50
BRANCH  39  52
ATOM     52  O   UNL     1      -1.223   3.576  -8.137  0.00  0.00    +0.000 OA
ATOM     53  H   UNL     1      -0.310   3.439  -8.442  0.00  0.00    +0.000 HD
ENDBRANCH  39  52
ENDBRANCH  29  31
ENDBRANCH   2  29
TORSDOF 14
ENDMDL
MODEL 7
REMARK VINA RESULT:      -5.8     22.080     26.681
REMARK  Name = 
REMARK  14 active torsions:
REMARK  status: ('A' for Active; 'I' for Inactive)
REMARK    1  A    between atoms: O_1  and  C_14
REMARK    2  A    between atoms: O_1  and  C_15
REMARK    3  A    between atoms: O_4  and  C_16
REMARK    4  A    between atoms: O_5  and  C_18
REMARK    5  A    between atoms: O_6  and  C_26
REMARK    6  A    between atoms: O_7  and  C_29
REMARK    7  A    between atoms: O_8  and  C_35
REMARK    8  A    between atoms: O_9  and  C_36
REMARK    9  A    between atoms: O_10  and  C_39
REMARK   10  A    between atoms: O_11  and  C_40
REMARK   11  A    between atoms: O_12  and  C_41
REMARK   12  A    between atoms: O_13  and  C_43
REMARK   13  A    between atoms: C_14  and  C_20
REMARK   14  A    between atoms: C_17  and  C_24
REMARK                            x       y       z     vdW  Elec       q    Type
REMARK                         _______ _______ _______ _____ _____    ______ ____
ROOT
ATOM      1  O   UNL     1     -10.922  -5.974  27.776  0.00  0.00    +0.000 OA
ATOM      2  C   UNL     1     -11.488  -6.976  28.633  0.00  0.00    +0.000 C 
ATOM      3  C   UNL     1     -10.486  -7.387  29.753  0.00  0.00    +0.000 C 
ATOM      4  C   UNL     1      -9.164  -7.847  29.146  0.00  0.00    +0.000 C 
ATOM      5  C   UNL     1      -8.678  -6.882  28.107  0.00  0.00    +0.000 A 
ATOM      6  C   UNL     1      -9.587  -6.022  27.486  0.00  0.00    +0.000 A 
ATOM      7  C   UNL     1      -7.336  -6.835  27.698  0.00  0.00    +0.000 A 
ATOM      8  C   UNL     1      -9.161  -5.130  26.498  0.00  0.00    +0.000 A 
ATOM      9  C   UNL     1      -6.906  -5.964  26.701  0.00  0.00    +0.000 A 
ATOM     10  C   UNL     1      -7.827  -5.112  26.110  0.00  0.00    +0.000 A 
ENDROOT
BRANCH   2  11
ATOM     11  C   UNL     1     -11.992  -8.211  27.862  0.00  0.00    +0.000 A 
ATOM     12  C   UNL     1     -12.460  -8.089  26.534  0.00  0.00    +0.000 A 
ATOM     13  C   UNL     1     -11.989  -9.495  28.448  0.00  0.00    +0.000 A 
ATOM     14  C   UNL     1     -12.911  -9.210  25.843  0.00  0.00    +0.000 A 
ATOM     15  C   UNL     1     -12.457 -10.612  27.750  0.00  0.00    +0.000 A 
ATOM     16  C   UNL     1     -12.920 -10.457  26.457  0.00  0.00    +0.000 A 
BRANCH  14  17
ATOM     17  O   UNL     1     -13.352  -9.145  24.551  0.00  0.00    +0.000 OA
ATOM     18  H   UNL     1     -12.613  -8.884  23.966  0.00  0.00    +0.000 HD
ENDBRANCH  14  17
BRANCH  16  19
ATOM     19  O   UNL     1     -13.375 -11.548  25.773  0.00  0.00    +0.000 OA
ATOM     20  H   UNL     1     -13.369 -12.269  26.435  0.00  0.00    +0.000 HD
ENDBRANCH  16  19
ENDBRANCH   2  11
BRANCH   3  21
ATOM     21  O   UNL     1     -10.212  -6.291  30.671  0.00  0.00    +0.000 OA
ATOM     22  H   UNL     1     -11.018  -6.216  31.220  0.00  0.00    +0.000 HD
ENDBRANCH   3  21
BRANCH   4  23
ATOM     23  O   UNL     1      -8.176  -7.969  30.183  0.00  0.00    +0.000 OA
ATOM     24  H   UNL     1      -8.165  -8.930  30.391  0.00  0.00    +0.000 HD
ENDBRANCH   4  23
BRANCH   7  25
ATOM     25  O   UNL     1      -6.382  -7.631  28.273  0.00  0.00    +0.000 OA
ATOM     26  H   UNL     1      -6.658  -8.563  28.129  0.00  0.00    +0.000 HD
ENDBRANCH   7  25
BRANCH  10  27
ATOM     27  O   UNL     1      -7.458  -4.232  25.135  0.00  0.00    +0.000 OA
ATOM     28  H   UNL     1      -7.956  -4.444  24.327  0.00  0.00    +0.000 HD
ENDBRANCH  10  27
BRANCH   2  29
ATOM     29  O   UNL     1     -12.583  -6.371  29.377  0.00  0.00    +0.000 OA
BRANCH  29  31
ATOM     30  O   UNL     1     -15.949  -5.120  28.462  0.00  0.00    +0.000 OA
ATOM     31  C   UNL     1     -13.522  -5.573  28.629  0.00  0.00    +0.000 C 
ATOM     32  C   UNL     1     -14.940  -5.821  29.202  0.00  0.00    +0.000 C 
ATOM     33  C   UNL     1     -13.228  -4.076  28.763  0.00  0.00    +0.000 C 
ATOM     34  C   UNL     1     -14.420  -3.224  28.426  0.00  0.00    +0.000 A 
ATOM     35  C   UNL     1     -15.693  -3.787  28.294  0.00  0.00    +0.000 A 
ATOM     36  C   UNL     1     -14.280  -1.842  28.245  0.00  0.00    +0.000 A 
ATOM     37  C   UNL     1     -16.792  -2.998  27.943  0.00  0.00    +0.000 A 
ATOM     38  C   UNL     1     -15.371  -1.043  27.911  0.00  0.00    +0.000 A 
ATOM     39  C   UNL     1     -16.619  -1.631  27.757  0.00  0.00    +0.000 A 
BRANCH  32  40
ATOM     40  C   UNL     1     -15.295  -7.302  29.170  0.00  0.00    +0.000 A 
ATOM     41  C   UNL     1     -15.798  -7.899  28.003  0.00  0.00    +0.000 A 
ATOM     42  C   UNL     1     -15.041  -8.109  30.294  0.00  0.00    +0.000 A 
ATOM     43  C   UNL     1     -15.994  -9.277  27.956  0.00  0.00    +0.000 A 
ATOM     44  C   UNL     1     -15.258  -9.488  30.246  0.00  0.00    +0.000 A 
ATOM     45  C   UNL     1     -15.719 -10.069  29.069  0.00  0.00    +0.000 A 
BRANCH  43  46
ATOM     46  O   UNL     1     -16.392  -9.876  26.795  0.00  0.00    +0.000 OA
ATOM     47  H   UNL     1     -16.781  -9.205  26.209  0.00  0.00    +0.000 HD
ENDBRANCH  43  46
BRANCH  45  48
ATOM     48  O   UNL     1     -15.877 -11.423  28.981  0.00  0.00    +0.000 OA
ATOM     49  H   UNL     1     -16.056 -11.661  28.056  0.00  0.00    +0.000 HD
ENDBRANCH  45  48
ENDBRANCH  32  40
BRANCH  36  50
ATOM     50  O   UNL     1     -13.041  -1.286  28.398  0.00  0.00    +0.000 OA
ATOM     51  H   UNL     1     -12.593  -1.715  29.147  0.00  0.00    +0.000 HD
ENDBRANCH  36  50
BRANCH  39  52
ATOM     52  O   UNL     1     -17.665  -0.822  27.423  0.00  0.00    +0.000 OA
ATOM     53  H   UNL     1     -17.401  -0.265  26.671  0.00  0.00    +0.000 HD
ENDBRANCH  39  52
ENDBRANCH  29  31
ENDBRANCH   2  29
TORSDOF 14
ENDMDL
MODEL 8
REMARK VINA RESULT:      -5.7     26.704     30.457
REMARK  Name = 
REMARK  14 active torsions:
REMARK  status: ('A' for Active; 'I' for Inactive)
REMARK    1  A    between atoms: O_1  and  C_14
REMARK    2  A    between atoms: O_1  and  C_15
REMARK    3  A    between atoms: O_4  and  C_16
REMARK    4  A    between atoms: O_5  and  C_18
REMARK    5  A    between atoms: O_6  and  C_26
REMARK    6  A    between atoms: O_7  and  C_29
REMARK    7  A    between atoms: O_8  and  C_35
REMARK    8  A    between atoms: O_9  and  C_36
REMARK    9  A    between atoms: O_10  and  C_39
REMARK   10  A    between atoms: O_11  and  C_40
REMARK   11  A    between atoms: O_12  and  C_41
REMARK   12  A    between atoms: O_13  and  C_43
REMARK   13  A    between atoms: C_14  and  C_20
REMARK   14  A    between atoms: C_17  and  C_24
REMARK                            x       y       z     vdW  Elec       q    Type
REMARK                         _______ _______ _______ _____ _____    ______ ____
ROOT
ATOM      1  O   UNL     1     -18.711   4.134  14.985  0.00  0.00    +0.000 OA
ATOM      2  C   UNL     1     -18.402   5.325  15.723  0.00  0.00    +0.000 C 
ATOM      3  C   UNL     1     -19.380   6.482  15.356  0.00  0.00    +0.000 C 
ATOM      4  C   UNL     1     -19.370   6.733  13.851  0.00  0.00    +0.000 C 
ATOM      5  C   UNL     1     -19.502   5.451  13.085  0.00  0.00    +0.000 A 
ATOM      6  C   UNL     1     -19.154   4.244  13.696  0.00  0.00    +0.000 A 
ATOM      7  C   UNL     1     -19.926   5.419  11.748  0.00  0.00    +0.000 A 
ATOM      8  C   UNL     1     -19.246   3.040  12.994  0.00  0.00    +0.000 A 
ATOM      9  C   UNL     1     -20.002   4.226  11.034  0.00  0.00    +0.000 A 
ATOM     10  C   UNL     1     -19.663   3.041  11.669  0.00  0.00    +0.000 A 
ENDROOT
BRANCH   2  11
ATOM     11  C   UNL     1     -16.935   5.769  15.560  0.00  0.00    +0.000 A 
ATOM     12  C   UNL     1     -16.040   5.019  14.763  0.00  0.00    +0.000 A 
ATOM     13  C   UNL     1     -16.448   6.937  16.183  0.00  0.00    +0.000 A 
ATOM     14  C   UNL     1     -14.718   5.427  14.619  0.00  0.00    +0.000 A 
ATOM     15  C   UNL     1     -15.114   7.331  16.043  0.00  0.00    +0.000 A 
ATOM     16  C   UNL     1     -14.260   6.568  15.267  0.00  0.00    +0.000 A 
BRANCH  14  17
ATOM     17  O   UNL     1     -13.822   4.747  13.843  0.00  0.00    +0.000 OA
ATOM     18  H   UNL     1     -14.209   3.890  13.572  0.00  0.00    +0.000 HD
ENDBRANCH  14  17
BRANCH  16  19
ATOM     19  O   UNL     1     -12.958   6.955  15.127  0.00  0.00    +0.000 OA
ATOM     20  H   UNL     1     -12.787   6.886  14.166  0.00  0.00    +0.000 HD
ENDBRANCH  16  19
ENDBRANCH   2  11
BRANCH   3  21
ATOM     21  O   UNL     1     -20.747   6.192  15.764  0.00  0.00    +0.000 OA
ATOM     22  H   UNL     1     -21.016   5.429  15.214  0.00  0.00    +0.000 HD
ENDBRANCH   3  21
BRANCH   4  23
ATOM     23  O   UNL     1     -20.457   7.610  13.505  0.00  0.00    +0.000 OA
ATOM     24  H   UNL     1     -20.593   7.453  12.544  0.00  0.00    +0.000 HD
ENDBRANCH   4  23
BRANCH   7  25
ATOM     25  O   UNL     1     -20.304   6.557  11.087  0.00  0.00    +0.000 OA
ATOM     26  H   UNL     1     -20.799   7.113  11.728  0.00  0.00    +0.000 HD
ENDBRANCH   7  25
BRANCH  10  27
ATOM     27  O   UNL     1     -19.727   1.842  11.019  0.00  0.00    +0.000 OA
ATOM     28  H   UNL     1     -19.835   1.140  11.682  0.00  0.00    +0.000 HD
ENDBRANCH  10  27
BRANCH   2  29
ATOM     29  O   UNL     1     -18.695   5.078  17.127  0.00  0.00    +0.000 OA
BRANCH  29  31
ATOM     30  O   UNL     1     -18.153   2.173  19.362  0.00  0.00    +0.000 OA
ATOM     31  C   UNL     1     -18.826   3.703  17.538  0.00  0.00    +0.000 C 
ATOM     32  C   UNL     1     -18.135   3.536  18.914  0.00  0.00    +0.000 C 
ATOM     33  C   UNL     1     -20.294   3.298  17.708  0.00  0.00    +0.000 C 
ATOM     34  C   UNL     1     -20.457   2.082  18.577  0.00  0.00    +0.000 A 
ATOM     35  C   UNL     1     -19.392   1.595  19.341  0.00  0.00    +0.000 A 
ATOM     36  C   UNL     1     -21.686   1.415  18.644  0.00  0.00    +0.000 A 
ATOM     37  C   UNL     1     -19.537   0.442  20.117  0.00  0.00    +0.000 A 
ATOM     38  C   UNL     1     -21.848   0.274  19.427  0.00  0.00    +0.000 A 
ATOM     39  C   UNL     1     -20.766  -0.206  20.153  0.00  0.00    +0.000 A 
BRANCH  32  40
ATOM     40  C   UNL     1     -16.679   3.979  18.856  0.00  0.00    +0.000 A 
ATOM     41  C   UNL     1     -15.751   3.306  18.046  0.00  0.00    +0.000 A 
ATOM     42  C   UNL     1     -16.267   5.128  19.556  0.00  0.00    +0.000 A 
ATOM     43  C   UNL     1     -14.458   3.806  17.907  0.00  0.00    +0.000 A 
ATOM     44  C   UNL     1     -14.963   5.613  19.428  0.00  0.00    +0.000 A 
ATOM     45  C   UNL     1     -14.067   4.956  18.589  0.00  0.00    +0.000 A 
BRANCH  43  46
ATOM     46  O   UNL     1     -13.580   3.211  17.047  0.00  0.00    +0.000 OA
ATOM     47  H   UNL     1     -13.278   3.867  16.397  0.00  0.00    +0.000 HD
ENDBRANCH  43  46
BRANCH  45  48
ATOM     48  O   UNL     1     -12.807   5.449  18.400  0.00  0.00    +0.000 OA
ATOM     49  H   UNL     1     -12.588   5.405  17.455  0.00  0.00    +0.000 HD
ENDBRANCH  45  48
ENDBRANCH  32  40
BRANCH  36  50
ATOM     50  O   UNL     1     -22.736   1.904  17.918  0.00  0.00    +0.000 OA
ATOM     51  H   UNL     1     -22.701   1.528  17.022  0.00  0.00    +0.000 HD
ENDBRANCH  36  50
BRANCH  39  52
ATOM     52  O   UNL     1     -20.955  -1.330  20.904  0.00  0.00    +0.000 OA
ATOM     53  H   UNL     1     -21.529  -1.109  21.657  0.00  0.00    +0.000 HD
ENDBRANCH  39  52
ENDBRANCH  29  31
ENDBRANCH   2  29
TORSDOF 14
ENDMDL
MODEL 9
REMARK VINA RESULT:      -5.6     23.884     28.208
REMARK  Name = 
REMARK  14 active torsions:
REMARK  status: ('A' for Active; 'I' for Inactive)
REMARK    1  A    between atoms: O_1  and  C_14
REMARK    2  A    between atoms: O_1  and  C_15
REMARK    3  A    between atoms: O_4  and  C_16
REMARK    4  A    between atoms: O_5  and  C_18
REMARK    5  A    between atoms: O_6  and  C_26
REMARK    6  A    between atoms: O_7  and  C_29
REMARK    7  A    between atoms: O_8  and  C_35
REMARK    8  A    between atoms: O_9  and  C_36
REMARK    9  A    between atoms: O_10  and  C_39
REMARK   10  A    between atoms: O_11  and  C_40
REMARK   11  A    between atoms: O_12  and  C_41
REMARK   12  A    between atoms: O_13  and  C_43
REMARK   13  A    between atoms: C_14  and  C_20
REMARK   14  A    between atoms: C_17  and  C_24
REMARK                            x       y       z     vdW  Elec       q    Type
REMARK                         _______ _______ _______ _____ _____    ______ ____
ROOT
ATOM      1  O   UNL     1     -12.371   8.390   4.419  0.00  0.00    +0.000 OA
ATOM      2  C   UNL     1     -11.983   7.068   4.819  0.00  0.00    +0.000 C 
ATOM      3  C   UNL     1     -12.895   6.539   5.967  0.00  0.00    +0.000 C 
ATOM      4  C   UNL     1     -12.890   7.509   7.144  0.00  0.00    +0.000 C 
ATOM      5  C   UNL     1     -13.107   8.920   6.688  0.00  0.00    +0.000 A 
ATOM      6  C   UNL     1     -12.823   9.267   5.364  0.00  0.00    +0.000 A 
ATOM      7  C   UNL     1     -13.549   9.929   7.557  0.00  0.00    +0.000 A 
ATOM      8  C   UNL     1     -12.995  10.581   4.922  0.00  0.00    +0.000 A 
ATOM      9  C   UNL     1     -13.704  11.245   7.131  0.00  0.00    +0.000 A 
ATOM     10  C   UNL     1     -13.428  11.560   5.809  0.00  0.00    +0.000 A 
ENDROOT
BRANCH   2  11
ATOM     11  C   UNL     1     -10.495   6.971   5.208  0.00  0.00    +0.000 A 
ATOM     12  C   UNL     1      -9.851   5.716   5.281  0.00  0.00    +0.000 A 
ATOM     13  C   UNL     1      -9.731   8.125   5.485  0.00  0.00    +0.000 A 
ATOM     14  C   UNL     1      -8.506   5.635   5.629  0.00  0.00    +0.000 A 
ATOM     15  C   UNL     1      -8.385   8.033   5.849  0.00  0.00    +0.000 A 
ATOM     16  C   UNL     1      -7.787   6.788   5.924  0.00  0.00    +0.000 A 
BRANCH  14  17
ATOM     17  O   UNL     1      -7.835   4.447   5.693  0.00  0.00    +0.000 OA
ATOM     18  H   UNL     1      -8.040   4.000   6.539  0.00  0.00    +0.000 HD
ENDBRANCH  14  17
BRANCH  16  19
ATOM     19  O   UNL     1      -6.471   6.698   6.275  0.00  0.00    +0.000 OA
ATOM     20  H   UNL     1      -6.291   7.529   6.760  0.00  0.00    +0.000 HD
ENDBRANCH  16  19
ENDBRANCH   2  11
BRANCH   3  21
ATOM     21  O   UNL     1     -14.272   6.355   5.530  0.00  0.00    +0.000 OA
ATOM     22  H   UNL     1     -14.704   7.218   5.691  0.00  0.00    +0.000 HD
ENDBRANCH   3  21
BRANCH   4  23
ATOM     23  O   UNL     1     -13.927   7.143   8.071  0.00  0.00    +0.000 OA
ATOM     24  H   UNL     1     -14.046   6.177   7.929  0.00  0.00    +0.000 HD
ENDBRANCH   4  23
BRANCH   7  25
ATOM     25  O   UNL     1     -13.868   9.663   8.862  0.00  0.00    +0.000 OA
ATOM     26  H   UNL     1     -13.143   9.110   9.230  0.00  0.00    +0.000 HD
ENDBRANCH   7  25
BRANCH  10  27
ATOM     27  O   UNL     1     -13.571  12.831   5.336  0.00  0.00    +0.000 OA
ATOM     28  H   UNL     1     -13.248  13.449   6.013  0.00  0.00    +0.000 HD
ENDBRANCH  10  27
BRANCH   2  29
ATOM     29  O   UNL     1     -12.273   6.157   3.722  0.00  0.00    +0.000 OA
BRANCH  29  31
ATOM     30  O   UNL     1     -11.820   6.490   0.059  0.00  0.00    +0.000 OA
ATOM     31  C   UNL     1     -12.499   6.744   2.425  0.00  0.00    +0.000 C 
ATOM     32  C   UNL     1     -11.711   5.924   1.373  0.00  0.00    +0.000 C 
ATOM     33  C   UNL     1     -13.978   6.697   2.030  0.00  0.00    +0.000 C 
ATOM     34  C   UNL     1     -14.182   6.835   0.547  0.00  0.00    +0.000 A 
ATOM     35  C   UNL     1     -13.107   6.729  -0.341  0.00  0.00    +0.000 A 
ATOM     36  C   UNL     1     -15.459   7.068   0.022  0.00  0.00    +0.000 A 
ATOM     37  C   UNL     1     -13.294   6.896  -1.715  0.00  0.00    +0.000 A 
ATOM     38  C   UNL     1     -15.661   7.221  -1.348  0.00  0.00    +0.000 A 
ATOM     39  C   UNL     1     -14.572   7.139  -2.205  0.00  0.00    +0.000 A 
BRANCH  32  40
ATOM     40  C   UNL     1     -10.229   5.862   1.721  0.00  0.00    +0.000 A 
ATOM     41  C   UNL     1      -9.540   4.639   1.729  0.00  0.00    +0.000 A 
ATOM     42  C   UNL     1      -9.514   7.049   1.960  0.00  0.00    +0.000 A 
ATOM     43  C   UNL     1      -8.161   4.620   1.923  0.00  0.00    +0.000 A 
ATOM     44  C   UNL     1      -8.134   7.021   2.173  0.00  0.00    +0.000 A 
ATOM     45  C   UNL     1      -7.460   5.805   2.138  0.00  0.00    +0.000 A 
BRANCH  43  46
ATOM     46  O   UNL     1      -7.471   3.444   1.836  0.00  0.00    +0.000 OA
ATOM     47  H   UNL     1      -6.708   3.566   1.247  0.00  0.00    +0.000 HD
ENDBRANCH  43  46
BRANCH  45  48
ATOM     48  O   UNL     1      -6.102   5.760   2.281  0.00  0.00    +0.000 OA
ATOM     49  H   UNL     1      -5.694   6.342   1.619  0.00  0.00    +0.000 HD
ENDBRANCH  45  48
ENDBRANCH  32  40
BRANCH  36  50
ATOM     50  O   UNL     1     -16.516   7.148   0.885  0.00  0.00    +0.000 OA
ATOM     51  H   UNL     1     -16.540   8.040   1.272  0.00  0.00    +0.000 HD
ENDBRANCH  36  50
BRANCH  39  52
ATOM     52  O   UNL     1     -14.801   7.301  -3.540  0.00  0.00    +0.000 OA
ATOM     53  H   UNL     1     -14.233   6.684  -4.032  0.00  0.00    +0.000 HD
ENDBRANCH  39  52
ENDBRANCH  29  31
ENDBRANCH   2  29
TORSDOF 14
ENDMDL
