MODEL 1
REMARK VINA RESULT:      -5.6      0.000      0.000
REMARK  Name = Progesterone.pdbqt.pdb
REMARK  1 active torsions:
REMARK  status: ('A' for Active; 'I' for Inactive)
REMARK    1  A    between atoms: C_7  and  C_21
REMARK                            x       y       z     vdW  Elec       q    Type
REMARK                         _______ _______ _______ _____ _____    ______ ____
ROOT
ATOM      1  O   UNL     1      11.264 -18.495   8.921  0.00  0.00    +0.000 OA
ATOM      2  C   UNL     1       9.927 -11.608  11.988  0.00  0.00    +0.000 C 
ATOM      3  C   UNL     1       8.445 -10.942  11.996  0.00  0.00    +0.000 C 
ATOM      4  C   UNL     1      10.138 -13.069  11.958  0.00  0.00    +0.000 C 
ATOM      5  C   UNL     1       9.093 -14.109  11.666  0.00  0.00    +0.000 C 
ATOM      6  C   UNL     1       9.338 -15.631  11.764  0.00  0.00    +0.000 C 
ATOM      7  C   UNL     1       8.588  -9.798  11.037  0.00  0.00    +0.000 C 
ATOM      8  C   UNL     1       7.568 -12.024  11.549  0.00  0.00    +0.000 C 
ATOM      9  C   UNL     1       7.832 -13.503  11.411  0.00  0.00    +0.000 C 
ATOM     10  C   UNL     1      10.776 -10.742  11.229  0.00  0.00    +0.000 C 
ATOM     11  C   UNL     1      11.434 -13.622  12.074  0.00  0.00    +0.000 C 
ATOM     12  C   UNL     1       9.941  -9.645  10.624  0.00  0.00    +0.000 C 
ATOM     13  C   UNL     1      10.927 -16.093  11.675  0.00  0.00    +0.000 C 
ATOM     14  C   UNL     1       8.189 -10.453  13.440  0.00  0.00    +0.000 C 
ATOM     15  C   UNL     1      11.853 -15.056  11.945  0.00  0.00    +0.000 C 
ATOM     16  C   UNL     1       8.723 -16.335  10.590  0.00  0.00    +0.000 C 
ATOM     17  C   UNL     1       8.785 -16.166  13.112  0.00  0.00    +0.000 C 
ATOM     18  C   UNL     1       9.277 -17.353   9.569  0.00  0.00    +0.000 C 
ATOM     19  C   UNL     1      11.254 -16.992  10.771  0.00  0.00    +0.000 C 
ATOM     20  C   UNL     1      10.672 -17.735   9.663  0.00  0.00    +0.000 C 
ENDROOT
BRANCH   7  21
ATOM     21  C   UNL     1       7.497  -8.944  10.634  0.00  0.00    +0.000 C 
ATOM     22  O   UNL     1       6.598  -9.262   9.874  0.00  0.00    +0.000 OA
ATOM     23  C   UNL     1       7.270  -7.571  11.174  0.00  0.00    +0.000 C 
ENDBRANCH   7  21
TORSDOF 1
ENDMDL
MODEL 2
REMARK VINA RESULT:      -5.6      2.322      4.087
REMARK  Name = Progesterone.pdbqt.pdb
REMARK  1 active torsions:
REMARK  status: ('A' for Active; 'I' for Inactive)
REMARK    1  A    between atoms: C_7  and  C_21
REMARK                            x       y       z     vdW  Elec       q    Type
REMARK                         _______ _______ _______ _____ _____    ______ ____
ROOT
ATOM      1  O   UNL     1      11.147 -14.948  12.043  0.00  0.00    +0.000 OA
ATOM      2  C   UNL     1       8.003  -7.979  11.638  0.00  0.00    +0.000 C 
ATOM      3  C   UNL     1       6.559  -7.725  10.939  0.00  0.00    +0.000 C 
ATOM      4  C   UNL     1       8.374  -9.273  12.242  0.00  0.00    +0.000 C 
ATOM      5  C   UNL     1       7.635 -10.572  12.076  0.00  0.00    +0.000 C 
ATOM      6  C   UNL     1       7.996 -11.873  12.825  0.00  0.00    +0.000 C 
ATOM      7  C   UNL     1       6.916  -6.954   9.703  0.00  0.00    +0.000 C 
ATOM      8  C   UNL     1       6.037  -9.071  10.704  0.00  0.00    +0.000 C 
ATOM      9  C   UNL     1       6.498 -10.405  11.237  0.00  0.00    +0.000 C 
ATOM     10  C   UNL     1       8.970  -7.226  10.898  0.00  0.00    +0.000 C 
ATOM     11  C   UNL     1       9.589  -9.429  12.949  0.00  0.00    +0.000 C 
ATOM     12  C   UNL     1       8.301  -6.621   9.693  0.00  0.00    +0.000 C 
ATOM     13  C   UNL     1       9.546 -11.941  13.406  0.00  0.00    +0.000 C 
ATOM     14  C   UNL     1       5.733  -6.872  11.930  0.00  0.00    +0.000 C 
ATOM     15  C   UNL     1      10.184 -10.681  13.520  0.00  0.00    +0.000 C 
ATOM     16  C   UNL     1       7.942 -13.046  11.890  0.00  0.00    +0.000 C 
ATOM     17  C   UNL     1       7.048 -12.060  14.040  0.00  0.00    +0.000 C 
ATOM     18  C   UNL     1       8.946 -14.174  11.563  0.00  0.00    +0.000 C 
ATOM     19  C   UNL     1      10.284 -12.977  13.068  0.00  0.00    +0.000 C 
ATOM     20  C   UNL     1      10.241 -14.156  12.216  0.00  0.00    +0.000 C 
ENDROOT
BRANCH   7  21
ATOM     21  C   UNL     1       5.964  -6.567   8.691  0.00  0.00    +0.000 C 
ATOM     22  O   UNL     1       5.568  -7.283   7.787  0.00  0.00    +0.000 OA
ATOM     23  C   UNL     1       5.256  -5.252   8.672  0.00  0.00    +0.000 C 
ENDBRANCH   7  21
TORSDOF 1
ENDMDL
MODEL 3
REMARK VINA RESULT:      -5.0     24.188     27.123
REMARK  Name = Progesterone.pdbqt.pdb
REMARK  1 active torsions:
REMARK  status: ('A' for Active; 'I' for Inactive)
REMARK    1  A    between atoms: C_7  and  C_21
REMARK                            x       y       z     vdW  Elec       q    Type
REMARK                         _______ _______ _______ _____ _____    ______ ____
ROOT
ATOM      1  O   UNL     1      -6.112  -4.236  30.269  0.00  0.00    +0.000 OA
ATOM      2  C   UNL     1     -11.218  -9.437  27.925  0.00  0.00    +0.000 C 
ATOM      3  C   UNL     1     -12.547  -9.023  27.089  0.00  0.00    +0.000 C 
ATOM      4  C   UNL     1      -9.981  -8.632  27.896  0.00  0.00    +0.000 C 
ATOM      5  C   UNL     1      -9.844  -7.239  27.347  0.00  0.00    +0.000 C 
ATOM      6  C   UNL     1      -8.501  -6.485  27.231  0.00  0.00    +0.000 C 
ATOM      7  C   UNL     1     -13.654  -9.290  28.065  0.00  0.00    +0.000 C 
ATOM      8  C   UNL     1     -12.334  -7.613  26.759  0.00  0.00    +0.000 C 
ATOM      9  C   UNL     1     -11.088  -6.768  26.844  0.00  0.00    +0.000 C 
ATOM     10  C   UNL     1     -11.657 -10.038  29.147  0.00  0.00    +0.000 C 
ATOM     11  C   UNL     1      -8.802  -9.080  28.535  0.00  0.00    +0.000 C 
ATOM     12  C   UNL     1     -13.155  -9.919  29.241  0.00  0.00    +0.000 C 
ATOM     13  C   UNL     1      -7.296  -7.042  28.223  0.00  0.00    +0.000 C 
ATOM     14  C   UNL     1     -12.615  -9.971  25.869  0.00  0.00    +0.000 C 
ATOM     15  C   UNL     1      -7.502  -8.354  28.714  0.00  0.00    +0.000 C 
ATOM     16  C   UNL     1      -8.662  -5.061  27.676  0.00  0.00    +0.000 C 
ATOM     17  C   UNL     1      -7.970  -6.578  25.776  0.00  0.00    +0.000 C 
ATOM     18  C   UNL     1      -7.888  -4.182  28.684  0.00  0.00    +0.000 C 
ATOM     19  C   UNL     1      -6.702  -6.174  29.014  0.00  0.00    +0.000 C 
ATOM     20  C   UNL     1      -6.794  -4.780  29.423  0.00  0.00    +0.000 C 
ENDROOT
BRANCH   7  21
ATOM     21  C   UNL     1     -15.041  -8.987  27.814  0.00  0.00    +0.000 C 
ATOM     22  O   UNL     1     -15.833  -9.726  27.252  0.00  0.00    +0.000 OA
ATOM     23  C   UNL     1     -15.726  -7.751  28.298  0.00  0.00    +0.000 C 
ENDBRANCH   7  21
TORSDOF 1
ENDMDL
MODEL 4
REMARK VINA RESULT:      -4.5     23.553     26.994
REMARK  Name = Progesterone.pdbqt.pdb
REMARK  1 active torsions:
REMARK  status: ('A' for Active; 'I' for Inactive)
REMARK    1  A    between atoms: C_7  and  C_21
REMARK                            x       y       z     vdW  Elec       q    Type
REMARK                         _______ _______ _______ _____ _____    ______ ____
ROOT
ATOM      1  O   UNL     1      -8.650   0.260  31.952  0.00  0.00    +0.000 OA
ATOM      2  C   UNL     1      -7.697  -6.301  28.122  0.00  0.00    +0.000 C 
ATOM      3  C   UNL     1      -8.592  -6.675  26.820  0.00  0.00    +0.000 C 
ATOM      4  C   UNL     1      -7.428  -4.906  28.524  0.00  0.00    +0.000 C 
ATOM      5  C   UNL     1      -8.123  -3.683  27.994  0.00  0.00    +0.000 C 
ATOM      6  C   UNL     1      -7.723  -2.236  28.360  0.00  0.00    +0.000 C 
ATOM      7  C   UNL     1      -9.440  -7.810  27.312  0.00  0.00    +0.000 C 
ATOM      8  C   UNL     1      -9.317  -5.440  26.520  0.00  0.00    +0.000 C 
ATOM      9  C   UNL     1      -9.105  -4.035  27.029  0.00  0.00    +0.000 C 
ATOM     10  C   UNL     1      -7.955  -7.299  29.114  0.00  0.00    +0.000 C 
ATOM     11  C   UNL     1      -6.547  -4.609  29.590  0.00  0.00    +0.000 C 
ATOM     12  C   UNL     1      -9.049  -8.208  28.621  0.00  0.00    +0.000 C 
ATOM     13  C   UNL     1      -6.860  -2.081  29.766  0.00  0.00    +0.000 C 
ATOM     14  C   UNL     1      -7.604  -7.131  25.721  0.00  0.00    +0.000 C 
ATOM     15  C   UNL     1      -6.248  -3.278  30.212  0.00  0.00    +0.000 C 
ATOM     16  C   UNL     1      -8.946  -1.409  28.630  0.00  0.00    +0.000 C 
ATOM     17  C   UNL     1      -6.855  -1.629  27.226  0.00  0.00    +0.000 C 
ATOM     18  C   UNL     1      -9.357  -0.497  29.808  0.00  0.00    +0.000 C 
ATOM     19  C   UNL     1      -7.314  -1.244  30.675  0.00  0.00    +0.000 C 
ATOM     20  C   UNL     1      -8.459  -0.387  30.941  0.00  0.00    +0.000 C 
ENDROOT
BRANCH   7  21
ATOM     21  C   UNL     1     -10.480  -8.436  26.532  0.00  0.00    +0.000 C 
ATOM     22  O   UNL     1     -10.319  -9.368  25.763  0.00  0.00    +0.000 OA
ATOM     23  C   UNL     1     -11.927  -8.082  26.636  0.00  0.00    +0.000 C 
ENDBRANCH   7  21
TORSDOF 1
ENDMDL
MODEL 5
REMARK VINA RESULT:      -4.3     13.185     15.115
REMARK  Name = Progesterone.pdbqt.pdb
REMARK  1 active torsions:
REMARK  status: ('A' for Active; 'I' for Inactive)
REMARK    1  A    between atoms: C_7  and  C_21
REMARK                            x       y       z     vdW  Elec       q    Type
REMARK                         _______ _______ _______ _____ _____    ______ ____
ROOT
ATOM      1  O   UNL     1       2.492 -18.096  22.988  0.00  0.00    +0.000 OA
ATOM      2  C   UNL     1      -3.137 -17.677  17.815  0.00  0.00    +0.000 C 
ATOM      3  C   UNL     1      -4.159 -16.416  17.755  0.00  0.00    +0.000 C 
ATOM      4  C   UNL     1      -1.766 -17.561  18.350  0.00  0.00    +0.000 C 
ATOM      5  C   UNL     1      -1.217 -16.401  19.133  0.00  0.00    +0.000 C 
ATOM      6  C   UNL     1       0.260 -16.275  19.568  0.00  0.00    +0.000 C 
ATOM      7  C   UNL     1      -5.458 -17.016  18.202  0.00  0.00    +0.000 C 
ATOM      8  C   UNL     1      -3.573 -15.441  18.675  0.00  0.00    +0.000 C 
ATOM      9  C   UNL     1      -2.205 -15.394  19.309  0.00  0.00    +0.000 C 
ATOM     10  C   UNL     1      -3.921 -18.843  18.089  0.00  0.00    +0.000 C 
ATOM     11  C   UNL     1      -0.860 -18.644  18.279  0.00  0.00    +0.000 C 
ATOM     12  C   UNL     1      -5.343 -18.427  18.354  0.00  0.00    +0.000 C 
ATOM     13  C   UNL     1       1.102 -17.702  19.615  0.00  0.00    +0.000 C 
ATOM     14  C   UNL     1      -4.213 -15.962  16.278  0.00  0.00    +0.000 C 
ATOM     15  C   UNL     1       0.515 -18.753  18.868  0.00  0.00    +0.000 C 
ATOM     16  C   UNL     1       0.347 -15.793  20.986  0.00  0.00    +0.000 C 
ATOM     17  C   UNL     1       1.016 -15.335  18.591  0.00  0.00    +0.000 C 
ATOM     18  C   UNL     1       1.100 -16.320  22.229  0.00  0.00    +0.000 C 
ATOM     19  C   UNL     1       1.720 -18.012  20.735  0.00  0.00    +0.000 C 
ATOM     20  C   UNL     1       1.873 -17.539  22.102  0.00  0.00    +0.000 C 
ENDROOT
BRANCH   7  21
ATOM     21  C   UNL     1      -6.669 -16.258  18.402  0.00  0.00    +0.000 C 
ATOM     22  O   UNL     1      -7.290 -15.679  17.527  0.00  0.00    +0.000 OA
ATOM     23  C   UNL     1      -7.385 -16.160  19.709  0.00  0.00    +0.000 C 
ENDBRANCH   7  21
TORSDOF 1
ENDMDL
MODEL 6
REMARK VINA RESULT:      -4.3      4.959      7.466
REMARK  Name = Progesterone.pdbqt.pdb
REMARK  1 active torsions:
REMARK  status: ('A' for Active; 'I' for Inactive)
REMARK    1  A    between atoms: C_7  and  C_21
REMARK                            x       y       z     vdW  Elec       q    Type
REMARK                         _______ _______ _______ _____ _____    ______ ____
ROOT
ATOM      1  O   UNL     1      14.004  -7.176  13.997  0.00  0.00    +0.000 OA
ATOM      2  C   UNL     1       7.522  -9.440  10.609  0.00  0.00    +0.000 C 
ATOM      3  C   UNL     1       6.061  -8.989  11.158  0.00  0.00    +0.000 C 
ATOM      4  C   UNL     1       8.735  -8.626  10.825  0.00  0.00    +0.000 C 
ATOM      5  C   UNL     1       8.863  -7.461  11.767  0.00  0.00    +0.000 C 
ATOM      6  C   UNL     1      10.119  -6.567  11.869  0.00  0.00    +0.000 C 
ATOM      7  C   UNL     1       5.495 -10.270  11.694  0.00  0.00    +0.000 C 
ATOM      8  C   UNL     1       6.359  -7.970  12.164  0.00  0.00    +0.000 C 
ATOM      9  C   UNL     1       7.639  -7.226  12.453  0.00  0.00    +0.000 C 
ATOM     10  C   UNL     1       7.587 -10.866  10.700  0.00  0.00    +0.000 C 
ATOM     11  C   UNL     1       9.969  -8.981  10.233  0.00  0.00    +0.000 C 
ATOM     12  C   UNL     1       6.349 -11.369  11.394  0.00  0.00    +0.000 C 
ATOM     13  C   UNL     1      11.516  -7.253  11.301  0.00  0.00    +0.000 C 
ATOM     14  C   UNL     1       5.268  -8.479   9.933  0.00  0.00    +0.000 C 
ATOM     15  C   UNL     1      11.316  -8.355  10.433  0.00  0.00    +0.000 C 
ATOM     16  C   UNL     1      10.447  -6.292  13.307  0.00  0.00    +0.000 C 
ATOM     17  C   UNL     1       9.897  -5.258  11.067  0.00  0.00    +0.000 C 
ATOM     18  C   UNL     1      11.745  -6.436  14.133  0.00  0.00    +0.000 C 
ATOM     19  C   UNL     1      12.556  -7.284  12.107  0.00  0.00    +0.000 C 
ATOM     20  C   UNL     1      12.923  -6.972  13.480  0.00  0.00    +0.000 C 
ENDROOT
BRANCH   7  21
ATOM     21  C   UNL     1       4.230 -10.368  12.380  0.00  0.00    +0.000 C 
ATOM     22  O   UNL     1       3.136 -10.381  11.840  0.00  0.00    +0.000 OA
ATOM     23  C   UNL     1       4.094 -10.564  13.854  0.00  0.00    +0.000 C 
ENDBRANCH   7  21
TORSDOF 1
ENDMDL
MODEL 7
REMARK VINA RESULT:      -4.3     28.531     30.994
REMARK  Name = Progesterone.pdbqt.pdb
REMARK  1 active torsions:
REMARK  status: ('A' for Active; 'I' for Inactive)
REMARK    1  A    between atoms: C_7  and  C_21
REMARK                            x       y       z     vdW  Elec       q    Type
REMARK                         _______ _______ _______ _____ _____    ______ ____
ROOT
ATOM      1  O   UNL     1     -13.996   7.966  13.411  0.00  0.00    +0.000 OA
ATOM      2  C   UNL     1     -12.489   4.302  19.962  0.00  0.00    +0.000 C 
ATOM      3  C   UNL     1     -12.619   5.033  21.407  0.00  0.00    +0.000 C 
ATOM      4  C   UNL     1     -13.276   4.725  18.787  0.00  0.00    +0.000 C 
ATOM      5  C   UNL     1     -14.069   5.996  18.664  0.00  0.00    +0.000 C 
ATOM      6  C   UNL     1     -14.973   6.337  17.459  0.00  0.00    +0.000 C 
ATOM      7  C   UNL     1     -11.192   5.133  21.860  0.00  0.00    +0.000 C 
ATOM      8  C   UNL     1     -13.267   6.309  21.102  0.00  0.00    +0.000 C 
ATOM      9  C   UNL     1     -13.969   6.773  19.851  0.00  0.00    +0.000 C 
ATOM     10  C   UNL     1     -11.122   3.906  19.809  0.00  0.00    +0.000 C 
ATOM     11  C   UNL     1     -13.233   3.995  17.577  0.00  0.00    +0.000 C 
ATOM     12  C   UNL     1     -10.324   4.445  20.966  0.00  0.00    +0.000 C 
ATOM     13  C   UNL     1     -14.624   5.512  16.065  0.00  0.00    +0.000 C 
ATOM     14  C   UNL     1     -13.443   4.085  22.309  0.00  0.00    +0.000 C 
ATOM     15  C   UNL     1     -13.859   4.334  16.258  0.00  0.00    +0.000 C 
ATOM     16  C   UNL     1     -14.781   7.768  17.052  0.00  0.00    +0.000 C 
ATOM     17  C   UNL     1     -16.453   6.030  17.809  0.00  0.00    +0.000 C 
ATOM     18  C   UNL     1     -14.473   8.441  15.695  0.00  0.00    +0.000 C 
ATOM     19  C   UNL     1     -14.408   6.215  14.973  0.00  0.00    +0.000 C 
ATOM     20  C   UNL     1     -14.275   7.596  14.534  0.00  0.00    +0.000 C 
ENDROOT
BRANCH   7  21
ATOM     21  C   UNL     1     -10.776   5.801  23.069  0.00  0.00    +0.000 C 
ATOM     22  O   UNL     1     -10.752   5.297  24.179  0.00  0.00    +0.000 OA
ATOM     23  C   UNL     1     -10.222   7.187  23.107  0.00  0.00    +0.000 C 
ENDBRANCH   7  21
TORSDOF 1
ENDMDL
MODEL 8
REMARK VINA RESULT:      -4.2     27.660     31.551
REMARK  Name = Progesterone.pdbqt.pdb
REMARK  1 active torsions:
REMARK  status: ('A' for Active; 'I' for Inactive)
REMARK    1  A    between atoms: C_7  and  C_21
REMARK                            x       y       z     vdW  Elec       q    Type
REMARK                         _______ _______ _______ _____ _____    ______ ____
ROOT
ATOM      1  O   UNL     1     -19.329   8.639  15.741  0.00  0.00    +0.000 OA
ATOM      2  C   UNL     1     -12.472   5.554  17.184  0.00  0.00    +0.000 C 
ATOM      3  C   UNL     1     -12.258   4.434  18.341  0.00  0.00    +0.000 C 
ATOM      4  C   UNL     1     -13.763   5.743  16.494  0.00  0.00    +0.000 C 
ATOM      5  C   UNL     1     -15.085   5.161  16.914  0.00  0.00    +0.000 C 
ATOM      6  C   UNL     1     -16.386   5.291  16.091  0.00  0.00    +0.000 C 
ATOM      7  C   UNL     1     -11.452   5.167  19.372  0.00  0.00    +0.000 C 
ATOM      8  C   UNL     1     -13.618   4.081  18.749  0.00  0.00    +0.000 C 
ATOM      9  C   UNL     1     -14.943   4.381  18.094  0.00  0.00    +0.000 C 
ATOM     10  C   UNL     1     -11.672   6.686  17.538  0.00  0.00    +0.000 C 
ATOM     11  C   UNL     1     -13.888   6.641  15.409  0.00  0.00    +0.000 C 
ATOM     12  C   UNL     1     -11.069   6.454  18.898  0.00  0.00    +0.000 C 
ATOM     13  C   UNL     1     -16.407   6.544  15.006  0.00  0.00    +0.000 C 
ATOM     14  C   UNL     1     -11.454   3.281  17.696  0.00  0.00    +0.000 C 
ATOM     15  C   UNL     1     -15.127   7.051  14.673  0.00  0.00    +0.000 C 
ATOM     16  C   UNL     1     -17.542   5.614  16.991  0.00  0.00    +0.000 C 
ATOM     17  C   UNL     1     -16.628   3.989  15.284  0.00  0.00    +0.000 C 
ATOM     18  C   UNL     1     -18.627   6.714  16.953  0.00  0.00    +0.000 C 
ATOM     19  C   UNL     1     -17.410   7.395  15.072  0.00  0.00    +0.000 C 
ATOM     20  C   UNL     1     -18.574   7.699  15.891  0.00  0.00    +0.000 C 
ENDROOT
BRANCH   7  21
ATOM     21  C   UNL     1     -11.082   4.612  20.650  0.00  0.00    +0.000 C 
ATOM     22  O   UNL     1     -10.036   4.030  20.888  0.00  0.00    +0.000 OA
ATOM     23  C   UNL     1     -11.898   4.760  21.891  0.00  0.00    +0.000 C 
ENDBRANCH   7  21
TORSDOF 1
ENDMDL
MODEL 9
REMARK VINA RESULT:      -4.1     24.056     26.399
REMARK  Name = Progesterone.pdbqt.pdb
REMARK  1 active torsions:
REMARK  status: ('A' for Active; 'I' for Inactive)
REMARK    1  A    between atoms: C_7  and  C_21
REMARK                            x       y       z     vdW  Elec       q    Type
REMARK                         _______ _______ _______ _____ _____    ______ ____
ROOT
ATOM      1  O   UNL     1      -6.313  -8.625  35.366  0.00  0.00    +0.000 OA
ATOM      2  C   UNL     1      -9.491  -6.915  28.614  0.00  0.00    +0.000 C 
ATOM      3  C   UNL     1      -8.639  -6.935  27.232  0.00  0.00    +0.000 C 
ATOM      4  C   UNL     1      -9.131  -7.747  29.779  0.00  0.00    +0.000 C 
ATOM      5  C   UNL     1      -7.839  -8.493  29.968  0.00  0.00    +0.000 C 
ATOM      6  C   UNL     1      -7.558  -9.446  31.151  0.00  0.00    +0.000 C 
ATOM      7  C   UNL     1      -8.567  -5.484  26.861  0.00  0.00    +0.000 C 
ATOM      8  C   UNL     1      -7.365  -7.546  27.609  0.00  0.00    +0.000 C 
ATOM      9  C   UNL     1      -6.973  -8.296  28.858  0.00  0.00    +0.000 C 
ATOM     10  C   UNL     1      -9.960  -5.576  28.803  0.00  0.00    +0.000 C 
ATOM     11  C   UNL     1      -9.959  -7.799  30.924  0.00  0.00    +0.000 C 
ATOM     12  C   UNL     1      -9.365  -4.694  27.737  0.00  0.00    +0.000 C 
ATOM     13  C   UNL     1      -8.510  -9.208  32.486  0.00  0.00    +0.000 C 
ATOM     14  C   UNL     1      -9.471  -7.747  26.212  0.00  0.00    +0.000 C 
ATOM     15  C   UNL     1      -9.701  -8.483  32.233  0.00  0.00    +0.000 C 
ATOM     16  C   UNL     1      -6.175  -9.219  31.686  0.00  0.00    +0.000 C 
ATOM     17  C   UNL     1      -7.768 -10.916  30.701  0.00  0.00    +0.000 C 
ATOM     18  C   UNL     1      -5.631  -8.957  33.109  0.00  0.00    +0.000 C 
ATOM     19  C   UNL     1      -7.910  -9.023  33.642  0.00  0.00    +0.000 C 
ATOM     20  C   UNL     1      -6.577  -8.858  34.203  0.00  0.00    +0.000 C 
ENDROOT
BRANCH   7  21
ATOM     21  C   UNL     1      -7.822  -4.975  25.736  0.00  0.00    +0.000 C 
ATOM     22  O   UNL     1      -7.297  -5.658  24.873  0.00  0.00    +0.000 OA
ATOM     23  C   UNL     1      -7.673  -3.523  25.423  0.00  0.00    +0.000 C 
ENDBRANCH   7  21
TORSDOF 1
ENDMDL
