MODEL 1
REMARK VINA RESULT:      -6.2      0.000      0.000
REMARK  Name = 
REMARK  11 active torsions:
REMARK  status: ('A' for Active; 'I' for Inactive)
REMARK    1  A    between atoms: O_2  and  C_16
REMARK    2  A    between atoms: O_2  and  C_18
REMARK    3  A    between atoms: O_3  and  C_12
REMARK    4  A    between atoms: O_4  and  C_13
REMARK    5  A    between atoms: O_5  and  C_14
REMARK    6  A    between atoms: O_8  and  C_24
REMARK    7  A    between atoms: O_9  and  C_29
REMARK    8  A    between atoms: O_10  and  C_30
REMARK    9  A    between atoms: O_11  and  C_32
REMARK   10  A    between atoms: C_15  and  C_17
REMARK   11  A    between atoms: C_19  and  C_23
REMARK                            x       y       z     vdW  Elec       q    Type
REMARK                         _______ _______ _______ _____ _____    ______ ____
ROOT
ATOM      1  O   UNL     1       4.768  -9.039  11.445  0.00  0.00    +0.000 OA
ATOM      2  O   UNL     1       8.177 -11.232  11.619  0.00  0.00    +0.000 OA
ATOM      3  C   UNL     1       7.079  -9.311  10.795  0.00  0.00    +0.000 A 
ATOM      4  C   UNL     1       5.944  -8.588  10.874  0.00  0.00    +0.000 A 
ATOM      5  C   UNL     1       7.114 -10.643  11.466  0.00  0.00    +0.000 A 
ATOM      6  C   UNL     1       5.822 -11.174  11.954  0.00  0.00    +0.000 A 
ATOM      7  C   UNL     1       4.717 -10.322  11.922  0.00  0.00    +0.000 A 
ATOM      8  C   UNL     1       5.663 -12.475  12.454  0.00  0.00    +0.000 A 
ATOM      9  C   UNL     1       3.474 -10.750  12.391  0.00  0.00    +0.000 A 
ATOM     10  C   UNL     1       4.419 -12.911  12.923  0.00  0.00    +0.000 A 
ATOM     11  C   UNL     1       3.335 -12.039  12.888  0.00  0.00    +0.000 A 
ENDROOT
BRANCH   4  12
ATOM     12  C   UNL     1       5.824  -7.223  10.320  0.00  0.00    +0.000 A 
ATOM     13  C   UNL     1       6.070  -6.114  11.148  0.00  0.00    +0.000 A 
ATOM     14  C   UNL     1       5.474  -7.009   8.975  0.00  0.00    +0.000 A 
ATOM     15  C   UNL     1       5.939  -4.828  10.635  0.00  0.00    +0.000 A 
ATOM     16  C   UNL     1       5.341  -5.714   8.469  0.00  0.00    +0.000 A 
ATOM     17  C   UNL     1       5.571  -4.635   9.307  0.00  0.00    +0.000 A 
BRANCH  15  18
ATOM     18  O   UNL     1       6.158  -3.717  11.402  0.00  0.00    +0.000 OA
ATOM     19  H   UNL     1       5.500  -3.703  12.119  0.00  0.00    +0.000 HD
ENDBRANCH  15  18
BRANCH  17  20
ATOM     20  O   UNL     1       5.436  -3.370   8.814  0.00  0.00    +0.000 OA
ATOM     21  H   UNL     1       6.108  -2.842   9.291  0.00  0.00    +0.000 HD
ENDBRANCH  17  20
ENDBRANCH   4  12
BRANCH   8  22
ATOM     22  O   UNL     1       6.712 -13.348  12.474  0.00  0.00    +0.000 OA
ATOM     23  H   UNL     1       6.768 -13.848  11.645  0.00  0.00    +0.000 HD
ENDBRANCH   8  22
BRANCH  11  24
ATOM     24  O   UNL     1       2.103 -12.414  13.332  0.00  0.00    +0.000 OA
ATOM     25  H   UNL     1       1.658 -12.942  12.648  0.00  0.00    +0.000 HD
ENDBRANCH  11  24
BRANCH   3  26
ATOM     26  O   UNL     1       8.251  -8.848  10.217  0.00  0.00    +0.000 OA
BRANCH  26  32
ATOM     27  O   UNL     1       9.178  -6.843  11.143  0.00  0.00    +0.000 OA
ATOM     28  C   UNL     1      11.232  -8.350   9.793  0.00  0.00    +0.000 C 
ATOM     29  C   UNL     1      11.217  -6.817   9.789  0.00  0.00    +0.000 C 
ATOM     30  C   UNL     1      10.534  -8.902  11.036  0.00  0.00    +0.000 C 
ATOM     31  C   UNL     1       9.773  -6.326   9.942  0.00  0.00    +0.000 C 
ATOM     32  C   UNL     1       9.132  -8.272  11.193  0.00  0.00    +0.000 C 
ATOM     33  C   UNL     1       9.701  -4.805  10.018  0.00  0.00    +0.000 C 
BRANCH  28  34
ATOM     34  O   UNL     1      12.603  -8.793   9.760  0.00  0.00    +0.000 OA
ATOM     35  H   UNL     1      12.557  -9.727   9.469  0.00  0.00    +0.000 HD
ENDBRANCH  28  34
BRANCH  29  36
ATOM     36  O   UNL     1      11.807  -6.349   8.573  0.00  0.00    +0.000 OA
ATOM     37  H   UNL     1      11.403  -6.886   7.863  0.00  0.00    +0.000 HD
ENDBRANCH  29  36
BRANCH  30  38
ATOM     38  O   UNL     1      11.385  -8.623  12.169  0.00  0.00    +0.000 OA
ATOM     39  H   UNL     1      10.804  -8.412  12.923  0.00  0.00    +0.000 HD
ENDBRANCH  30  38
ENDBRANCH  26  32
ENDBRANCH   3  26
TORSDOF 10
ENDMDL
MODEL 2
REMARK VINA RESULT:      -5.8     19.402     22.379
REMARK  Name = 
REMARK  11 active torsions:
REMARK  status: ('A' for Active; 'I' for Inactive)
REMARK    1  A    between atoms: O_2  and  C_16
REMARK    2  A    between atoms: O_2  and  C_18
REMARK    3  A    between atoms: O_3  and  C_12
REMARK    4  A    between atoms: O_4  and  C_13
REMARK    5  A    between atoms: O_5  and  C_14
REMARK    6  A    between atoms: O_8  and  C_24
REMARK    7  A    between atoms: O_9  and  C_29
REMARK    8  A    between atoms: O_10  and  C_30
REMARK    9  A    between atoms: O_11  and  C_32
REMARK   10  A    between atoms: C_15  and  C_17
REMARK   11  A    between atoms: C_19  and  C_23
REMARK                            x       y       z     vdW  Elec       q    Type
REMARK                         _______ _______ _______ _____ _____    ______ ____
ROOT
ATOM      1  O   UNL     1     -11.487  -9.208   3.959  0.00  0.00    +0.000 OA
ATOM      2  O   UNL     1     -15.146  -9.686   2.272  0.00  0.00    +0.000 OA
ATOM      3  C   UNL     1     -12.809  -9.542   1.965  0.00  0.00    +0.000 A 
ATOM      4  C   UNL     1     -11.628  -9.483   2.612  0.00  0.00    +0.000 A 
ATOM      5  C   UNL     1     -14.060  -9.415   2.768  0.00  0.00    +0.000 A 
ATOM      6  C   UNL     1     -13.903  -8.987   4.177  0.00  0.00    +0.000 A 
ATOM      7  C   UNL     1     -12.608  -8.920   4.693  0.00  0.00    +0.000 A 
ATOM      8  C   UNL     1     -14.984  -8.664   5.009  0.00  0.00    +0.000 A 
ATOM      9  C   UNL     1     -12.390  -8.549   6.022  0.00  0.00    +0.000 A 
ATOM     10  C   UNL     1     -14.771  -8.288   6.340  0.00  0.00    +0.000 A 
ATOM     11  C   UNL     1     -13.472  -8.237   6.833  0.00  0.00    +0.000 A 
ENDROOT
BRANCH   4  12
ATOM     12  C   UNL     1     -10.332  -9.682   1.931  0.00  0.00    +0.000 A 
ATOM     13  C   UNL     1      -9.639  -8.571   1.419  0.00  0.00    +0.000 A 
ATOM     14  C   UNL     1      -9.770 -10.964   1.789  0.00  0.00    +0.000 A 
ATOM     15  C   UNL     1      -8.428  -8.757   0.761  0.00  0.00    +0.000 A 
ATOM     16  C   UNL     1      -8.556 -11.141   1.122  0.00  0.00    +0.000 A 
ATOM     17  C   UNL     1      -7.898 -10.035   0.611  0.00  0.00    +0.000 A 
BRANCH  15  18
ATOM     18  O   UNL     1      -7.720  -7.710   0.237  0.00  0.00    +0.000 OA
ATOM     19  H   UNL     1      -7.244  -8.024  -0.551  0.00  0.00    +0.000 HD
ENDBRANCH  15  18
BRANCH  17  20
ATOM     20  O   UNL     1      -6.714 -10.210  -0.044  0.00  0.00    +0.000 OA
ATOM     21  H   UNL     1      -6.842 -11.018  -0.582  0.00  0.00    +0.000 HD
ENDBRANCH  17  20
ENDBRANCH   4  12
BRANCH   8  22
ATOM     22  O   UNL     1     -16.263  -8.688   4.533  0.00  0.00    +0.000 OA
ATOM     23  H   UNL     1     -16.328  -9.227   3.729  0.00  0.00    +0.000 HD
ENDBRANCH   8  22
BRANCH  11  24
ATOM     24  O   UNL     1     -13.210  -7.878   8.121  0.00  0.00    +0.000 OA
ATOM     25  H   UNL     1     -14.026  -7.554   8.540  0.00  0.00    +0.000 HD
ENDBRANCH  11  24
BRANCH   3  26
ATOM     26  O   UNL     1     -12.937  -9.817   0.612  0.00  0.00    +0.000 OA
BRANCH  26  32
ATOM     27  O   UNL     1     -14.352  -8.355  -0.651  0.00  0.00    +0.000 OA
ATOM     28  C   UNL     1     -12.460  -9.653  -2.398  0.00  0.00    +0.000 C 
ATOM     29  C   UNL     1     -13.892  -9.335  -2.846  0.00  0.00    +0.000 C 
ATOM     30  C   UNL     1     -11.997  -8.680  -1.313  0.00  0.00    +0.000 C 
ATOM     31  C   UNL     1     -14.811  -9.311  -1.620  0.00  0.00    +0.000 C 
ATOM     32  C   UNL     1     -13.031  -8.616  -0.167  0.00  0.00    +0.000 C 
ATOM     33  C   UNL     1     -16.238  -8.927  -1.994  0.00  0.00    +0.000 C 
BRANCH  28  34
ATOM     34  O   UNL     1     -11.593  -9.562  -3.545  0.00  0.00    +0.000 OA
ATOM     35  H   UNL     1     -10.848  -8.996  -3.251  0.00  0.00    +0.000 HD
ENDBRANCH  28  34
BRANCH  29  36
ATOM     36  O   UNL     1     -14.310 -10.317  -3.799  0.00  0.00    +0.000 OA
ATOM     37  H   UNL     1     -14.089  -9.940  -4.674  0.00  0.00    +0.000 HD
ENDBRANCH  29  36
BRANCH  30  38
ATOM     38  O   UNL     1     -11.802  -7.394  -1.942  0.00  0.00    +0.000 OA
ATOM     39  H   UNL     1     -12.476  -7.307  -2.640  0.00  0.00    +0.000 HD
ENDBRANCH  30  38
ENDBRANCH  26  32
ENDBRANCH   3  26
TORSDOF 10
ENDMDL
MODEL 3
REMARK VINA RESULT:      -5.3      2.028      5.042
REMARK  Name = 
REMARK  11 active torsions:
REMARK  status: ('A' for Active; 'I' for Inactive)
REMARK    1  A    between atoms: O_2  and  C_16
REMARK    2  A    between atoms: O_2  and  C_18
REMARK    3  A    between atoms: O_3  and  C_12
REMARK    4  A    between atoms: O_4  and  C_13
REMARK    5  A    between atoms: O_5  and  C_14
REMARK    6  A    between atoms: O_8  and  C_24
REMARK    7  A    between atoms: O_9  and  C_29
REMARK    8  A    between atoms: O_10  and  C_30
REMARK    9  A    between atoms: O_11  and  C_32
REMARK   10  A    between atoms: C_15  and  C_17
REMARK   11  A    between atoms: C_19  and  C_23
REMARK                            x       y       z     vdW  Elec       q    Type
REMARK                         _______ _______ _______ _____ _____    ______ ____
ROOT
ATOM      1  O   UNL     1       6.812 -12.410  13.613  0.00  0.00    +0.000 OA
ATOM      2  O   UNL     1       4.030 -10.565  11.306  0.00  0.00    +0.000 OA
ATOM      3  C   UNL     1       6.291 -10.717  11.971  0.00  0.00    +0.000 A 
ATOM      4  C   UNL     1       7.168 -11.448  12.687  0.00  0.00    +0.000 A 
ATOM      5  C   UNL     1       4.839 -11.038  12.095  0.00  0.00    +0.000 A 
ATOM      6  C   UNL     1       4.456 -11.968  13.181  0.00  0.00    +0.000 A 
ATOM      7  C   UNL     1       5.482 -12.613  13.874  0.00  0.00    +0.000 A 
ATOM      8  C   UNL     1       3.125 -12.238  13.531  0.00  0.00    +0.000 A 
ATOM      9  C   UNL     1       5.190 -13.522  14.892  0.00  0.00    +0.000 A 
ATOM     10  C   UNL     1       2.827 -13.146  14.553  0.00  0.00    +0.000 A 
ATOM     11  C   UNL     1       3.867 -13.782  15.223  0.00  0.00    +0.000 A 
ENDROOT
BRANCH   4  12
ATOM     12  C   UNL     1       8.632 -11.275  12.577  0.00  0.00    +0.000 A 
ATOM     13  C   UNL     1       9.329 -10.596  13.592  0.00  0.00    +0.000 A 
ATOM     14  C   UNL     1       9.347 -11.784  11.478  0.00  0.00    +0.000 A 
ATOM     15  C   UNL     1      10.703 -10.415  13.482  0.00  0.00    +0.000 A 
ATOM     16  C   UNL     1      10.726 -11.594  11.374  0.00  0.00    +0.000 A 
ATOM     17  C   UNL     1      11.391 -10.906  12.376  0.00  0.00    +0.000 A 
BRANCH  15  18
ATOM     18  O   UNL     1      11.425  -9.753  14.436  0.00  0.00    +0.000 OA
ATOM     19  H   UNL     1      12.161 -10.324  14.716  0.00  0.00    +0.000 HD
ENDBRANCH  15  18
BRANCH  17  20
ATOM     20  O   UNL     1      12.738 -10.717  12.272  0.00  0.00    +0.000 OA
ATOM     21  H   UNL     1      12.846  -9.752  12.149  0.00  0.00    +0.000 HD
ENDBRANCH  17  20
ENDBRANCH   4  12
BRANCH   8  22
ATOM     22  O   UNL     1       2.095 -11.605  12.897  0.00  0.00    +0.000 OA
ATOM     23  H   UNL     1       2.093 -10.655  13.093  0.00  0.00    +0.000 HD
ENDBRANCH   8  22
BRANCH  11  24
ATOM     24  O   UNL     1       3.631 -14.674  16.225  0.00  0.00    +0.000 OA
ATOM     25  H   UNL     1       4.461 -14.866  16.691  0.00  0.00    +0.000 HD
ENDBRANCH  11  24
BRANCH   3  26
ATOM     26  O   UNL     1       6.662  -9.753  11.046  0.00  0.00    +0.000 OA
BRANCH  26  32
ATOM     27  O   UNL     1       5.626  -7.614  10.746  0.00  0.00    +0.000 OA
ATOM     28  C   UNL     1       8.483  -7.381  10.436  0.00  0.00    +0.000 C 
ATOM     29  C   UNL     1       7.507  -6.542   9.604  0.00  0.00    +0.000 C 
ATOM     30  C   UNL     1       7.862  -7.776  11.777  0.00  0.00    +0.000 C 
ATOM     31  C   UNL     1       6.184  -7.302   9.460  0.00  0.00    +0.000 C 
ATOM     32  C   UNL     1       6.477  -8.426  11.560  0.00  0.00    +0.000 C 
ATOM     33  C   UNL     1       5.145  -6.484   8.702  0.00  0.00    +0.000 C 
BRANCH  28  34
ATOM     34  O   UNL     1       9.678  -6.607  10.656  0.00  0.00    +0.000 OA
ATOM     35  H   UNL     1      10.293  -6.888   9.945  0.00  0.00    +0.000 HD
ENDBRANCH  28  34
BRANCH  29  36
ATOM     36  O   UNL     1       8.098  -6.266   8.331  0.00  0.00    +0.000 OA
ATOM     37  H   UNL     1       7.348  -6.171   7.711  0.00  0.00    +0.000 HD
ENDBRANCH  29  36
BRANCH  30  38
ATOM     38  O   UNL     1       7.782  -6.581  12.583  0.00  0.00    +0.000 OA
ATOM     39  H   UNL     1       8.582  -6.054  12.401  0.00  0.00    +0.000 HD
ENDBRANCH  30  38
ENDBRANCH  26  32
ENDBRANCH   3  26
TORSDOF 10
ENDMDL
MODEL 4
REMARK VINA RESULT:      -5.3      2.178      3.577
REMARK  Name = 
REMARK  11 active torsions:
REMARK  status: ('A' for Active; 'I' for Inactive)
REMARK    1  A    between atoms: O_2  and  C_16
REMARK    2  A    between atoms: O_2  and  C_18
REMARK    3  A    between atoms: O_3  and  C_12
REMARK    4  A    between atoms: O_4  and  C_13
REMARK    5  A    between atoms: O_5  and  C_14
REMARK    6  A    between atoms: O_8  and  C_24
REMARK    7  A    between atoms: O_9  and  C_29
REMARK    8  A    between atoms: O_10  and  C_30
REMARK    9  A    between atoms: O_11  and  C_32
REMARK   10  A    between atoms: C_15  and  C_17
REMARK   11  A    between atoms: C_19  and  C_23
REMARK                            x       y       z     vdW  Elec       q    Type
REMARK                         _______ _______ _______ _____ _____    ______ ____
ROOT
ATOM      1  O   UNL     1       5.070 -11.660  11.865  0.00  0.00    +0.000 OA
ATOM      2  O   UNL     1       8.445 -13.468  13.209  0.00  0.00    +0.000 OA
ATOM      3  C   UNL     1       7.434 -11.518  12.340  0.00  0.00    +0.000 A 
ATOM      4  C   UNL     1       6.253 -10.960  12.010  0.00  0.00    +0.000 A 
ATOM      5  C   UNL     1       7.455 -12.969  12.687  0.00  0.00    +0.000 A 
ATOM      6  C   UNL     1       6.222 -13.737  12.401  0.00  0.00    +0.000 A 
ATOM      7  C   UNL     1       5.089 -13.022  12.013  0.00  0.00    +0.000 A 
ATOM      8  C   UNL     1       6.140 -15.132  12.514  0.00  0.00    +0.000 A 
ATOM      9  C   UNL     1       3.886 -13.681  11.753  0.00  0.00    +0.000 A 
ATOM     10  C   UNL     1       4.938 -15.799  12.252  0.00  0.00    +0.000 A 
ATOM     11  C   UNL     1       3.820 -15.062  11.875  0.00  0.00    +0.000 A 
ENDROOT
BRANCH   4  12
ATOM     12  C   UNL     1       6.101  -9.516  11.731  0.00  0.00    +0.000 A 
ATOM     13  C   UNL     1       6.164  -9.054  10.405  0.00  0.00    +0.000 A 
ATOM     14  C   UNL     1       5.885  -8.592  12.770  0.00  0.00    +0.000 A 
ATOM     15  C   UNL     1       6.040  -7.694  10.143  0.00  0.00    +0.000 A 
ATOM     16  C   UNL     1       5.766  -7.227  12.497  0.00  0.00    +0.000 A 
ATOM     17  C   UNL     1       5.849  -6.791  11.185  0.00  0.00    +0.000 A 
BRANCH  15  18
ATOM     18  O   UNL     1       6.104  -7.193   8.872  0.00  0.00    +0.000 OA
ATOM     19  H   UNL     1       6.089  -6.221   8.923  0.00  0.00    +0.000 HD
ENDBRANCH  15  18
BRANCH  17  20
ATOM     20  O   UNL     1       5.737  -5.457  10.919  0.00  0.00    +0.000 OA
ATOM     21  H   UNL     1       4.977  -5.158  11.458  0.00  0.00    +0.000 HD
ENDBRANCH  17  20
ENDBRANCH   4  12
BRANCH   8  22
ATOM     22  O   UNL     1       7.234 -15.870  12.862  0.00  0.00    +0.000 OA
ATOM     23  H   UNL     1       7.207 -16.117  13.800  0.00  0.00    +0.000 HD
ENDBRANCH   8  22
BRANCH  11  24
ATOM     24  O   UNL     1       2.626 -15.662  11.608  0.00  0.00    +0.000 OA
ATOM     25  H   UNL     1       2.661 -16.593  11.886  0.00  0.00    +0.000 HD
ENDBRANCH  11  24
BRANCH   3  26
ATOM     26  O   UNL     1       8.615 -10.805  12.480  0.00  0.00    +0.000 OA
BRANCH  26  32
ATOM     27  O   UNL     1      10.423 -11.626  11.141  0.00  0.00    +0.000 OA
ATOM     28  C   UNL     1      10.948  -8.909  11.951  0.00  0.00    +0.000 C 
ATOM     29  C   UNL     1      12.069  -9.946  11.819  0.00  0.00    +0.000 C 
ATOM     30  C   UNL     1       9.777  -9.248  11.027  0.00  0.00    +0.000 C 
ATOM     31  C   UNL     1      11.492 -11.347  12.058  0.00  0.00    +0.000 C 
ATOM     32  C   UNL     1       9.328 -10.711  11.238  0.00  0.00    +0.000 C 
ATOM     33  C   UNL     1      12.548 -12.430  11.868  0.00  0.00    +0.000 C 
BRANCH  28  34
ATOM     34  O   UNL     1      11.483  -7.615  11.614  0.00  0.00    +0.000 OA
ATOM     35  H   UNL     1      11.836  -7.718  10.706  0.00  0.00    +0.000 HD
ENDBRANCH  28  34
BRANCH  29  36
ATOM     36  O   UNL     1      13.104  -9.635  12.756  0.00  0.00    +0.000 OA
ATOM     37  H   UNL     1      13.924  -9.572  12.227  0.00  0.00    +0.000 HD
ENDBRANCH  29  36
BRANCH  30  38
ATOM     38  O   UNL     1      10.211  -9.002   9.672  0.00  0.00    +0.000 OA
ATOM     39  H   UNL     1      11.002  -8.434   9.719  0.00  0.00    +0.000 HD
ENDBRANCH  30  38
ENDBRANCH  26  32
ENDBRANCH   3  26
TORSDOF 10
ENDMDL
MODEL 5
REMARK VINA RESULT:      -5.2     19.680     22.543
REMARK  Name = 
REMARK  11 active torsions:
REMARK  status: ('A' for Active; 'I' for Inactive)
REMARK    1  A    between atoms: O_2  and  C_16
REMARK    2  A    between atoms: O_2  and  C_18
REMARK    3  A    between atoms: O_3  and  C_12
REMARK    4  A    between atoms: O_4  and  C_13
REMARK    5  A    between atoms: O_5  and  C_14
REMARK    6  A    between atoms: O_8  and  C_24
REMARK    7  A    between atoms: O_9  and  C_29
REMARK    8  A    between atoms: O_10  and  C_30
REMARK    9  A    between atoms: O_11  and  C_32
REMARK   10  A    between atoms: C_15  and  C_17
REMARK   11  A    between atoms: C_19  and  C_23
REMARK                            x       y       z     vdW  Elec       q    Type
REMARK                         _______ _______ _______ _____ _____    ______ ____
ROOT
ATOM      1  O   UNL     1     -11.581  -8.338   2.815  0.00  0.00    +0.000 OA
ATOM      2  O   UNL     1     -14.849 -10.232   1.333  0.00  0.00    +0.000 OA
ATOM      3  C   UNL     1     -12.546  -9.759   1.116  0.00  0.00    +0.000 A 
ATOM      4  C   UNL     1     -11.490  -9.188   1.728  0.00  0.00    +0.000 A 
ATOM      5  C   UNL     1     -13.899  -9.558   1.711  0.00  0.00    +0.000 A 
ATOM      6  C   UNL     1     -14.008  -8.545   2.785  0.00  0.00    +0.000 A 
ATOM      7  C   UNL     1     -12.823  -8.000   3.283  0.00  0.00    +0.000 A 
ATOM      8  C   UNL     1     -15.230  -8.124   3.327  0.00  0.00    +0.000 A 
ATOM      9  C   UNL     1     -12.852  -7.058   4.314  0.00  0.00    +0.000 A 
ATOM     10  C   UNL     1     -15.266  -7.179   4.357  0.00  0.00    +0.000 A 
ATOM     11  C   UNL     1     -14.071  -6.656   4.842  0.00  0.00    +0.000 A 
ENDROOT
BRANCH   4  12
ATOM     12  C   UNL     1     -10.097  -9.390   1.276  0.00  0.00    +0.000 A 
ATOM     13  C   UNL     1      -9.442  -8.368   0.567  0.00  0.00    +0.000 A 
ATOM     14  C   UNL     1      -9.408 -10.585   1.549  0.00  0.00    +0.000 A 
ATOM     15  C   UNL     1      -8.138  -8.563   0.124  0.00  0.00    +0.000 A 
ATOM     16  C   UNL     1      -8.100 -10.774   1.096  0.00  0.00    +0.000 A 
ATOM     17  C   UNL     1      -7.479  -9.761   0.384  0.00  0.00    +0.000 A 
BRANCH  15  18
ATOM     18  O   UNL     1      -7.461  -7.605  -0.578  0.00  0.00    +0.000 OA
ATOM     19  H   UNL     1      -7.864  -6.740  -0.385  0.00  0.00    +0.000 HD
ENDBRANCH  15  18
BRANCH  17  20
ATOM     20  O   UNL     1      -6.203  -9.948  -0.062  0.00  0.00    +0.000 OA
ATOM     21  H   UNL     1      -6.148 -10.902  -0.272  0.00  0.00    +0.000 HD
ENDBRANCH  17  20
ENDBRANCH   4  12
BRANCH   8  22
ATOM     22  O   UNL     1     -16.412  -8.612   2.846  0.00  0.00    +0.000 OA
ATOM     23  H   UNL     1     -16.998  -8.885   3.569  0.00  0.00    +0.000 HD
ENDBRANCH   8  22
BRANCH  11  24
ATOM     24  O   UNL     1     -14.051  -5.733   5.845  0.00  0.00    +0.000 OA
ATOM     25  H   UNL     1     -13.130  -5.517   6.067  0.00  0.00    +0.000 HD
ENDBRANCH  11  24
BRANCH   3  26
ATOM     26  O   UNL     1     -12.440 -10.608   0.025  0.00  0.00    +0.000 OA
BRANCH  26  32
ATOM     27  O   UNL     1     -13.852 -10.469  -1.905  0.00  0.00    +0.000 OA
ATOM     28  C   UNL     1     -11.203 -11.304  -2.677  0.00  0.00    +0.000 C 
ATOM     29  C   UNL     1     -12.457 -11.834  -3.381  0.00  0.00    +0.000 C 
ATOM     30  C   UNL     1     -11.454  -9.918  -2.081  0.00  0.00    +0.000 C 
ATOM     31  C   UNL     1     -13.638 -11.798  -2.404  0.00  0.00    +0.000 C 
ATOM     32  C   UNL     1     -12.727  -9.929  -1.206  0.00  0.00    +0.000 C 
ATOM     33  C   UNL     1     -14.933 -12.247  -3.071  0.00  0.00    +0.000 C 
BRANCH  28  34
ATOM     34  O   UNL     1     -10.132 -11.240  -3.639  0.00  0.00    +0.000 OA
ATOM     35  H   UNL     1      -9.747 -10.346  -3.525  0.00  0.00    +0.000 HD
ENDBRANCH  28  34
BRANCH  29  36
ATOM     36  O   UNL     1     -12.201 -13.161  -3.851  0.00  0.00    +0.000 OA
ATOM     37  H   UNL     1     -12.157 -13.088  -4.825  0.00  0.00    +0.000 HD
ENDBRANCH  29  36
BRANCH  30  38
ATOM     38  O   UNL     1     -11.557  -8.988  -3.180  0.00  0.00    +0.000 OA
ATOM     39  H   UNL     1     -10.659  -8.863  -3.540  0.00  0.00    +0.000 HD
ENDBRANCH  30  38
ENDBRANCH  26  32
ENDBRANCH   3  26
TORSDOF 10
ENDMDL
MODEL 6
REMARK VINA RESULT:      -5.2     25.540     28.263
REMARK  Name = 
REMARK  11 active torsions:
REMARK  status: ('A' for Active; 'I' for Inactive)
REMARK    1  A    between atoms: O_2  and  C_16
REMARK    2  A    between atoms: O_2  and  C_18
REMARK    3  A    between atoms: O_3  and  C_12
REMARK    4  A    between atoms: O_4  and  C_13
REMARK    5  A    between atoms: O_5  and  C_14
REMARK    6  A    between atoms: O_8  and  C_24
REMARK    7  A    between atoms: O_9  and  C_29
REMARK    8  A    between atoms: O_10  and  C_30
REMARK    9  A    between atoms: O_11  and  C_32
REMARK   10  A    between atoms: C_15  and  C_17
REMARK   11  A    between atoms: C_19  and  C_23
REMARK                            x       y       z     vdW  Elec       q    Type
REMARK                         _______ _______ _______ _____ _____    ______ ____
ROOT
ATOM      1  O   UNL     1     -12.901   1.844  -3.644  0.00  0.00    +0.000 OA
ATOM      2  O   UNL     1     -15.636  -1.121  -4.080  0.00  0.00    +0.000 OA
ATOM      3  C   UNL     1     -14.682   0.525  -2.682  0.00  0.00    +0.000 A 
ATOM      4  C   UNL     1     -13.823   1.564  -2.653  0.00  0.00    +0.000 A 
ATOM      5  C   UNL     1     -14.727  -0.317  -3.912  0.00  0.00    +0.000 A 
ATOM      6  C   UNL     1     -13.652  -0.098  -4.906  0.00  0.00    +0.000 A 
ATOM      7  C   UNL     1     -12.802   0.991  -4.711  0.00  0.00    +0.000 A 
ATOM      8  C   UNL     1     -13.461  -0.917  -6.028  0.00  0.00    +0.000 A 
ATOM      9  C   UNL     1     -11.783   1.271  -5.624  0.00  0.00    +0.000 A 
ATOM     10  C   UNL     1     -12.440  -0.644  -6.945  0.00  0.00    +0.000 A 
ATOM     11  C   UNL     1     -11.611   0.452  -6.732  0.00  0.00    +0.000 A 
ENDROOT
BRANCH   4  12
ATOM     12  C   UNL     1     -13.754   2.514  -1.523  0.00  0.00    +0.000 A 
ATOM     13  C   UNL     1     -13.381   2.051  -0.249  0.00  0.00    +0.000 A 
ATOM     14  C   UNL     1     -14.048   3.878  -1.697  0.00  0.00    +0.000 A 
ATOM     15  C   UNL     1     -13.333   2.940   0.820  0.00  0.00    +0.000 A 
ATOM     16  C   UNL     1     -14.002   4.762  -0.617  0.00  0.00    +0.000 A 
ATOM     17  C   UNL     1     -13.649   4.282   0.633  0.00  0.00    +0.000 A 
BRANCH  15  18
ATOM     18  O   UNL     1     -12.986   2.538   2.080  0.00  0.00    +0.000 OA
ATOM     19  H   UNL     1     -12.607   1.643   2.025  0.00  0.00    +0.000 HD
ENDBRANCH  15  18
BRANCH  17  20
ATOM     20  O   UNL     1     -13.608   5.146   1.690  0.00  0.00    +0.000 OA
ATOM     21  H   UNL     1     -14.242   5.855   1.458  0.00  0.00    +0.000 HD
ENDBRANCH  17  20
ENDBRANCH   4  12
BRANCH   8  22
ATOM     22  O   UNL     1     -14.253  -2.010  -6.238  0.00  0.00    +0.000 OA
ATOM     23  H   UNL     1     -15.072  -1.954  -5.720  0.00  0.00    +0.000 HD
ENDBRANCH   8  22
BRANCH  11  24
ATOM     24  O   UNL     1     -10.602   0.762  -7.594  0.00  0.00    +0.000 OA
ATOM     25  H   UNL     1     -10.692   0.231  -8.403  0.00  0.00    +0.000 HD
ENDBRANCH  11  24
BRANCH   3  26
ATOM     26  O   UNL     1     -15.601   0.254  -1.680  0.00  0.00    +0.000 OA
BRANCH  26  32
ATOM     27  O   UNL     1     -17.268   1.961  -1.887  0.00  0.00    +0.000 OA
ATOM     28  C   UNL     1     -18.062   0.041   0.112  0.00  0.00    +0.000 C 
ATOM     29  C   UNL     1     -18.383   1.533   0.249  0.00  0.00    +0.000 C 
ATOM     30  C   UNL     1     -17.926  -0.358  -1.358  0.00  0.00    +0.000 C 
ATOM     31  C   UNL     1     -17.327   2.349  -0.505  0.00  0.00    +0.000 C 
ATOM     32  C   UNL     1     -16.938   0.583  -2.084  0.00  0.00    +0.000 C 
ATOM     33  C   UNL     1     -17.636   3.841  -0.467  0.00  0.00    +0.000 C 
BRANCH  28  34
ATOM     34  O   UNL     1     -19.122  -0.713   0.731  0.00  0.00    +0.000 OA
ATOM     35  H   UNL     1     -19.786  -0.841   0.021  0.00  0.00    +0.000 HD
ENDBRANCH  28  34
BRANCH  29  36
ATOM     36  O   UNL     1     -18.422   1.876   1.638  0.00  0.00    +0.000 OA
ATOM     37  H   UNL     1     -19.358   1.783   1.903  0.00  0.00    +0.000 HD
ENDBRANCH  29  36
BRANCH  30  38
ATOM     38  O   UNL     1     -19.246  -0.314  -1.941  0.00  0.00    +0.000 OA
ATOM     39  H   UNL     1     -19.540  -1.235  -2.063  0.00  0.00    +0.000 HD
ENDBRANCH  30  38
ENDBRANCH  26  32
ENDBRANCH   3  26
TORSDOF 10
ENDMDL
MODEL 7
REMARK VINA RESULT:      -5.1      3.897     10.053
REMARK  Name = 
REMARK  11 active torsions:
REMARK  status: ('A' for Active; 'I' for Inactive)
REMARK    1  A    between atoms: O_2  and  C_16
REMARK    2  A    between atoms: O_2  and  C_18
REMARK    3  A    between atoms: O_3  and  C_12
REMARK    4  A    between atoms: O_4  and  C_13
REMARK    5  A    between atoms: O_5  and  C_14
REMARK    6  A    between atoms: O_8  and  C_24
REMARK    7  A    between atoms: O_9  and  C_29
REMARK    8  A    between atoms: O_10  and  C_30
REMARK    9  A    between atoms: O_11  and  C_32
REMARK   10  A    between atoms: C_15  and  C_17
REMARK   11  A    between atoms: C_19  and  C_23
REMARK                            x       y       z     vdW  Elec       q    Type
REMARK                         _______ _______ _______ _____ _____    ______ ____
ROOT
ATOM      1  O   UNL     1       8.499 -13.161  11.462  0.00  0.00    +0.000 OA
ATOM      2  O   UNL     1       4.558 -12.234  11.729  0.00  0.00    +0.000 OA
ATOM      3  C   UNL     1       6.202 -13.908  11.461  0.00  0.00    +0.000 A 
ATOM      4  C   UNL     1       7.528 -14.144  11.488  0.00  0.00    +0.000 A 
ATOM      5  C   UNL     1       5.737 -12.491  11.522  0.00  0.00    +0.000 A 
ATOM      6  C   UNL     1       6.773 -11.446  11.357  0.00  0.00    +0.000 A 
ATOM      7  C   UNL     1       8.107 -11.853  11.349  0.00  0.00    +0.000 A 
ATOM      8  C   UNL     1       6.476 -10.082  11.225  0.00  0.00    +0.000 A 
ATOM      9  C   UNL     1       9.136 -10.916  11.223  0.00  0.00    +0.000 A 
ATOM     10  C   UNL     1       7.502  -9.139  11.096  0.00  0.00    +0.000 A 
ATOM     11  C   UNL     1       8.825  -9.569  11.098  0.00  0.00    +0.000 A 
ENDROOT
BRANCH   4  12
ATOM     12  C   UNL     1       8.098 -15.508  11.519  0.00  0.00    +0.000 A 
ATOM     13  C   UNL     1       8.346 -16.130  12.755  0.00  0.00    +0.000 A 
ATOM     14  C   UNL     1       8.391 -16.203  10.331  0.00  0.00    +0.000 A 
ATOM     15  C   UNL     1       8.899 -17.405  12.786  0.00  0.00    +0.000 A 
ATOM     16  C   UNL     1       8.951 -17.482  10.373  0.00  0.00    +0.000 A 
ATOM     17  C   UNL     1       9.203 -18.069  11.602  0.00  0.00    +0.000 A 
BRANCH  15  18
ATOM     18  O   UNL     1       9.168 -18.049  13.962  0.00  0.00    +0.000 OA
ATOM     19  H   UNL     1       9.213 -17.385  14.673  0.00  0.00    +0.000 HD
ENDBRANCH  15  18
BRANCH  17  20
ATOM     20  O   UNL     1       9.754 -19.317  11.641  0.00  0.00    +0.000 OA
ATOM     21  H   UNL     1       9.297 -19.769  12.379  0.00  0.00    +0.000 HD
ENDBRANCH  17  20
ENDBRANCH   4  12
BRANCH   8  22
ATOM     22  O   UNL     1       5.182  -9.648  11.199  0.00  0.00    +0.000 OA
ATOM     23  H   UNL     1       4.563 -10.385  11.318  0.00  0.00    +0.000 HD
ENDBRANCH   8  22
BRANCH  11  24
ATOM     24  O   UNL     1       9.860  -8.692  10.976  0.00  0.00    +0.000 OA
ATOM     25  H   UNL     1      10.254  -8.529  11.849  0.00  0.00    +0.000 HD
ENDBRANCH  11  24
BRANCH   3  26
ATOM     26  O   UNL     1       5.238 -14.904  11.486  0.00  0.00    +0.000 OA
BRANCH  26  32
ATOM     27  O   UNL     1       5.230 -16.319  13.418  0.00  0.00    +0.000 OA
ATOM     28  C   UNL     1       2.645 -16.373  12.143  0.00  0.00    +0.000 C 
ATOM     29  C   UNL     1       3.241 -17.613  12.818  0.00  0.00    +0.000 C 
ATOM     30  C   UNL     1       3.190 -15.091  12.773  0.00  0.00    +0.000 C 
ATOM     31  C   UNL     1       4.771 -17.522  12.782  0.00  0.00    +0.000 C 
ATOM     32  C   UNL     1       4.735 -15.123  12.812  0.00  0.00    +0.000 C 
ATOM     33  C   UNL     1       5.422 -18.695  13.505  0.00  0.00    +0.000 C 
BRANCH  28  34
ATOM     34  O   UNL     1       1.212 -16.421  12.285  0.00  0.00    +0.000 OA
ATOM     35  H   UNL     1       1.038 -17.240  12.796  0.00  0.00    +0.000 HD
ENDBRANCH  28  34
BRANCH  29  36
ATOM     36  O   UNL     1       2.766 -18.784  12.147  0.00  0.00    +0.000 OA
ATOM     37  H   UNL     1       2.865 -19.512  12.792  0.00  0.00    +0.000 HD
ENDBRANCH  29  36
BRANCH  30  38
ATOM     38  O   UNL     1       2.615 -14.979  14.092  0.00  0.00    +0.000 OA
ATOM     39  H   UNL     1       2.275 -15.860  14.336  0.00  0.00    +0.000 HD
ENDBRANCH  30  38
ENDBRANCH  26  32
ENDBRANCH   3  26
TORSDOF 10
ENDMDL
MODEL 8
REMARK VINA RESULT:      -5.0     21.833     24.179
REMARK  Name = 
REMARK  11 active torsions:
REMARK  status: ('A' for Active; 'I' for Inactive)
REMARK    1  A    between atoms: O_2  and  C_16
REMARK    2  A    between atoms: O_2  and  C_18
REMARK    3  A    between atoms: O_3  and  C_12
REMARK    4  A    between atoms: O_4  and  C_13
REMARK    5  A    between atoms: O_5  and  C_14
REMARK    6  A    between atoms: O_8  and  C_24
REMARK    7  A    between atoms: O_9  and  C_29
REMARK    8  A    between atoms: O_10  and  C_30
REMARK    9  A    between atoms: O_11  and  C_32
REMARK   10  A    between atoms: C_15  and  C_17
REMARK   11  A    between atoms: C_19  and  C_23
REMARK                            x       y       z     vdW  Elec       q    Type
REMARK                         _______ _______ _______ _____ _____    ______ ____
ROOT
ATOM      1  O   UNL     1     -13.498  -7.265   2.533  0.00  0.00    +0.000 OA
ATOM      2  O   UNL     1     -14.875 -10.405   4.705  0.00  0.00    +0.000 OA
ATOM      3  C   UNL     1     -14.183  -9.581   2.602  0.00  0.00    +0.000 A 
ATOM      4  C   UNL     1     -13.629  -8.524   1.977  0.00  0.00    +0.000 A 
ATOM      5  C   UNL     1     -14.583  -9.424   4.031  0.00  0.00    +0.000 A 
ATOM      6  C   UNL     1     -14.567  -8.048   4.577  0.00  0.00    +0.000 A 
ATOM      7  C   UNL     1     -14.007  -7.044   3.786  0.00  0.00    +0.000 A 
ATOM      8  C   UNL     1     -15.069  -7.715   5.843  0.00  0.00    +0.000 A 
ATOM      9  C   UNL     1     -13.937  -5.728   4.250  0.00  0.00    +0.000 A 
ATOM     10  C   UNL     1     -15.005  -6.399   6.313  0.00  0.00    +0.000 A 
ATOM     11  C   UNL     1     -14.435  -5.417   5.508  0.00  0.00    +0.000 A 
ENDROOT
BRANCH   4  12
ATOM     12  C   UNL     1     -13.119  -8.591   0.591  0.00  0.00    +0.000 A 
ATOM     13  C   UNL     1     -11.768  -8.906   0.362  0.00  0.00    +0.000 A 
ATOM     14  C   UNL     1     -13.963  -8.353  -0.509  0.00  0.00    +0.000 A 
ATOM     15  C   UNL     1     -11.282  -8.951  -0.940  0.00  0.00    +0.000 A 
ATOM     16  C   UNL     1     -13.465  -8.397  -1.813  0.00  0.00    +0.000 A 
ATOM     17  C   UNL     1     -12.127  -8.691  -2.015  0.00  0.00    +0.000 A 
BRANCH  15  18
ATOM     18  O   UNL     1      -9.975  -9.242  -1.215  0.00  0.00    +0.000 OA
ATOM     19  H   UNL     1      -9.505  -8.409  -1.395  0.00  0.00    +0.000 HD
ENDBRANCH  15  18
BRANCH  17  20
ATOM     20  O   UNL     1     -11.639  -8.729  -3.290  0.00  0.00    +0.000 OA
ATOM     21  H   UNL     1     -11.225  -7.853  -3.425  0.00  0.00    +0.000 HD
ENDBRANCH  17  20
ENDBRANCH   4  12
BRANCH   8  22
ATOM     22  O   UNL     1     -15.651  -8.664   6.635  0.00  0.00    +0.000 OA
ATOM     23  H   UNL     1     -14.984  -9.160   7.134  0.00  0.00    +0.000 HD
ENDBRANCH   8  22
BRANCH  11  24
ATOM     24  O   UNL     1     -14.347  -4.121   5.918  0.00  0.00    +0.000 OA
ATOM     25  H   UNL     1     -15.084  -3.611   5.542  0.00  0.00    +0.000 HD
ENDBRANCH  11  24
BRANCH   3  26
ATOM     26  O   UNL     1     -14.310 -10.838   2.032  0.00  0.00    +0.000 OA
BRANCH  26  32
ATOM     27  O   UNL     1     -16.551 -11.663   2.222  0.00  0.00    +0.000 OA
ATOM     28  C   UNL     1     -15.086 -13.218   0.286  0.00  0.00    +0.000 C 
ATOM     29  C   UNL     1     -16.139 -13.850   1.203  0.00  0.00    +0.000 C 
ATOM     30  C   UNL     1     -15.383 -11.737   0.050  0.00  0.00    +0.000 C 
ATOM     31  C   UNL     1     -16.234 -13.036   2.499  0.00  0.00    +0.000 C 
ATOM     32  C   UNL     1     -15.586 -11.006   1.396  0.00  0.00    +0.000 C 
ATOM     33  C   UNL     1     -17.319 -13.575   3.423  0.00  0.00    +0.000 C 
BRANCH  28  34
ATOM     34  O   UNL     1     -15.090 -13.927  -0.969  0.00  0.00    +0.000 OA
ATOM     35  H   UNL     1     -14.157 -13.905  -1.271  0.00  0.00    +0.000 HD
ENDBRANCH  28  34
BRANCH  29  36
ATOM     36  O   UNL     1     -15.777 -15.210   1.459  0.00  0.00    +0.000 OA
ATOM     37  H   UNL     1     -15.905 -15.336   2.421  0.00  0.00    +0.000 HD
ENDBRANCH  29  36
BRANCH  30  38
ATOM     38  O   UNL     1     -16.553 -11.659  -0.793  0.00  0.00    +0.000 OA
ATOM     39  H   UNL     1     -16.628 -12.510  -1.264  0.00  0.00    +0.000 HD
ENDBRANCH  30  38
ENDBRANCH  26  32
ENDBRANCH   3  26
TORSDOF 10
ENDMDL
MODEL 9
REMARK VINA RESULT:      -4.7     13.309     17.123
REMARK  Name = 
REMARK  11 active torsions:
REMARK  status: ('A' for Active; 'I' for Inactive)
REMARK    1  A    between atoms: O_2  and  C_16
REMARK    2  A    between atoms: O_2  and  C_18
REMARK    3  A    between atoms: O_3  and  C_12
REMARK    4  A    between atoms: O_4  and  C_13
REMARK    5  A    between atoms: O_5  and  C_14
REMARK    6  A    between atoms: O_8  and  C_24
REMARK    7  A    between atoms: O_9  and  C_29
REMARK    8  A    between atoms: O_10  and  C_30
REMARK    9  A    between atoms: O_11  and  C_32
REMARK   10  A    between atoms: C_15  and  C_17
REMARK   11  A    between atoms: C_19  and  C_23
REMARK                            x       y       z     vdW  Elec       q    Type
REMARK                         _______ _______ _______ _____ _____    ______ ____
ROOT
ATOM      1  O   UNL     1      -0.158 -20.064   3.744  0.00  0.00    +0.000 OA
ATOM      2  O   UNL     1       1.566 -20.429   7.399  0.00  0.00    +0.000 OA
ATOM      3  C   UNL     1      -0.422 -20.383   6.124  0.00  0.00    +0.000 A 
ATOM      4  C   UNL     1      -0.908 -20.359   4.867  0.00  0.00    +0.000 A 
ATOM      5  C   UNL     1       1.046 -20.192   6.316  0.00  0.00    +0.000 A 
ATOM      6  C   UNL     1       1.816 -19.743   5.133  0.00  0.00    +0.000 A 
ATOM      7  C   UNL     1       1.158 -19.718   3.903  0.00  0.00    +0.000 A 
ATOM      8  C   UNL     1       3.164 -19.362   5.191  0.00  0.00    +0.000 A 
ATOM      9  C   UNL     1       1.832 -19.331   2.743  0.00  0.00    +0.000 A 
ATOM     10  C   UNL     1       3.844 -18.970   4.033  0.00  0.00    +0.000 A 
ATOM     11  C   UNL     1       3.168 -18.961   2.817  0.00  0.00    +0.000 A 
ENDROOT
BRANCH   4  12
ATOM     12  C   UNL     1      -2.328 -20.622   4.553  0.00  0.00    +0.000 A 
ATOM     13  C   UNL     1      -3.318 -19.743   5.027  0.00  0.00    +0.000 A 
ATOM     14  C   UNL     1      -2.711 -21.733   3.781  0.00  0.00    +0.000 A 
ATOM     15  C   UNL     1      -4.656 -19.999   4.750  0.00  0.00    +0.000 A 
ATOM     16  C   UNL     1      -4.059 -21.984   3.510  0.00  0.00    +0.000 A 
ATOM     17  C   UNL     1      -5.019 -21.115   4.002  0.00  0.00    +0.000 A 
BRANCH  15  18
ATOM     18  O   UNL     1      -5.657 -19.180   5.196  0.00  0.00    +0.000 OA
ATOM     19  H   UNL     1      -5.550 -19.058   6.155  0.00  0.00    +0.000 HD
ENDBRANCH  15  18
BRANCH  17  20
ATOM     20  O   UNL     1      -6.336 -21.363   3.741  0.00  0.00    +0.000 OA
ATOM     21  H   UNL     1      -6.359 -22.292   3.434  0.00  0.00    +0.000 HD
ENDBRANCH  17  20
ENDBRANCH   4  12
BRANCH   8  22
ATOM     22  O   UNL     1       3.834 -19.345   6.381  0.00  0.00    +0.000 OA
ATOM     23  H   UNL     1       3.220 -19.399   7.130  0.00  0.00    +0.000 HD
ENDBRANCH   8  22
BRANCH  11  24
ATOM     24  O   UNL     1       3.784 -18.588   1.661  0.00  0.00    +0.000 OA
ATOM     25  H   UNL     1       4.120 -19.376   1.203  0.00  0.00    +0.000 HD
ENDBRANCH  11  24
BRANCH   3  26
ATOM     26  O   UNL     1      -1.185 -20.679   7.243  0.00  0.00    +0.000 OA
BRANCH  26  32
ATOM     27  O   UNL     1      -2.438 -22.715   7.090  0.00  0.00    +0.000 OA
ATOM     28  C   UNL     1      -2.135 -21.945   9.852  0.00  0.00    +0.000 C 
ATOM     29  C   UNL     1      -3.409 -22.623   9.336  0.00  0.00    +0.000 C 
ATOM     30  C   UNL     1      -0.925 -22.331   9.000  0.00  0.00    +0.000 C 
ATOM     31  C   UNL     1      -3.586 -22.298   7.848  0.00  0.00    +0.000 C 
ATOM     32  C   UNL     1      -1.220 -22.090   7.503  0.00  0.00    +0.000 C 
ATOM     33  C   UNL     1      -4.800 -23.007   7.258  0.00  0.00    +0.000 C 
BRANCH  28  34
ATOM     34  O   UNL     1      -1.925 -22.351  11.219  0.00  0.00    +0.000 OA
ATOM     35  H   UNL     1      -1.672 -23.296  11.163  0.00  0.00    +0.000 HD
ENDBRANCH  28  34
BRANCH  29  36
ATOM     36  O   UNL     1      -4.524 -22.172  10.110  0.00  0.00    +0.000 OA
ATOM     37  H   UNL     1      -5.117 -22.945  10.186  0.00  0.00    +0.000 HD
ENDBRANCH  29  36
BRANCH  30  38
ATOM     38  O   UNL     1      -0.623 -23.715   9.280  0.00  0.00    +0.000 OA
ATOM     39  H   UNL     1      -1.183 -24.258   8.695  0.00  0.00    +0.000 HD
ENDBRANCH  30  38
ENDBRANCH  26  32
ENDBRANCH   3  26
TORSDOF 10
ENDMDL
