MODEL 1
REMARK VINA RESULT:      -6.0      0.000      0.000
REMARK  Name = Quercetin.pdbqt.pdb
REMARK  6 active torsions:
REMARK  status: ('A' for Active; 'I' for Inactive)
REMARK    1  A    between atoms: C_5  and  C_12
REMARK    2  A    between atoms: C_6  and  O_22
REMARK    3  A    between atoms: C_8  and  O_24
REMARK    4  A    between atoms: C_10  and  O_26
REMARK    5  A    between atoms: C_15  and  O_18
REMARK    6  A    between atoms: C_17  and  O_20
REMARK                            x       y       z     vdW  Elec       q    Type
REMARK                         _______ _______ _______ _____ _____    ______ ____
ROOT
ATOM      1  O   UNL     1      -2.150  -5.996  -1.597  0.00  0.00    +0.000 OA
ATOM      2  O   UNL     1      -4.401  -8.778  -3.525  0.00  0.00    +0.000 OA
ATOM      3  C   UNL     1      -2.306  -8.134  -2.730  0.00  0.00    +0.000 A 
ATOM      4  C   UNL     1      -1.583  -7.149  -2.068  0.00  0.00    +0.000 A 
ATOM      5  C   UNL     1      -3.513  -5.801  -1.768  0.00  0.00    +0.000 A 
ATOM      6  C   UNL     1      -4.335  -6.665  -2.402  0.00  0.00    +0.000 A 
ATOM      7  C   UNL     1      -3.743  -7.926  -2.933  0.00  0.00    +0.000 A 
ATOM      8  C   UNL     1      -1.659  -9.289  -3.187  0.00  0.00    +0.000 A 
ATOM      9  C   UNL     1      -0.214  -7.308  -1.858  0.00  0.00    +0.000 A 
ATOM     10  C   UNL     1       0.419  -8.459  -2.315  0.00  0.00    +0.000 A 
ATOM     11  C   UNL     1      -0.292  -9.452  -2.979  0.00  0.00    +0.000 A 
ENDROOT
BRANCH   5  12
ATOM     12  C   UNL     1      -3.965  -4.530  -1.186  0.00  0.00    +0.000 A 
ATOM     13  C   UNL     1      -3.577  -3.306  -1.740  0.00  0.00    +0.000 A 
ATOM     14  C   UNL     1      -4.847  -4.541  -0.098  0.00  0.00    +0.000 A 
ATOM     15  C   UNL     1      -4.050  -2.120  -1.192  0.00  0.00    +0.000 A 
ATOM     16  C   UNL     1      -5.333  -3.350   0.439  0.00  0.00    +0.000 A 
ATOM     17  C   UNL     1      -4.942  -2.144  -0.126  0.00  0.00    +0.000 A 
BRANCH  15  18
ATOM     18  O   UNL     1      -3.595  -0.937  -1.696  0.00  0.00    +0.000 OA
ATOM     19  H   UNL     1      -4.365  -0.471  -2.072  0.00  0.00    +0.000 HD
ENDBRANCH  15  18
BRANCH  17  20
ATOM     20  O   UNL     1      -5.463  -0.982   0.365  0.00  0.00    +0.000 OA
ATOM     21  H   UNL     1      -5.631  -1.132   1.314  0.00  0.00    +0.000 HD
ENDBRANCH  17  20
ENDBRANCH   5  12
BRANCH   6  22
ATOM     22  O   UNL     1      -5.686  -6.471  -2.618  0.00  0.00    +0.000 OA
ATOM     23  H   UNL     1      -6.118  -7.315  -2.820  0.00  0.00    +0.000 HD
ENDBRANCH   6  22
BRANCH   8  24
ATOM     24  O   UNL     1      -2.307 -10.298  -3.848  0.00  0.00    +0.000 OA
ATOM     25  H   UNL     1      -2.116 -10.209  -4.811  0.00  0.00    +0.000 HD
ENDBRANCH   8  24
BRANCH  10  26
ATOM     26  O   UNL     1       1.759  -8.592  -2.097  0.00  0.00    +0.000 OA
ATOM     27  H   UNL     1       2.116  -9.202  -2.767  0.00  0.00    +0.000 HD
ENDBRANCH  10  26
TORSDOF 6
ENDMDL
MODEL 2
REMARK VINA RESULT:      -5.7     17.972     20.045
REMARK  Name = Quercetin.pdbqt.pdb
REMARK  6 active torsions:
REMARK  status: ('A' for Active; 'I' for Inactive)
REMARK    1  A    between atoms: C_5  and  C_12
REMARK    2  A    between atoms: C_6  and  O_22
REMARK    3  A    between atoms: C_8  and  O_24
REMARK    4  A    between atoms: C_10  and  O_26
REMARK    5  A    between atoms: C_15  and  O_18
REMARK    6  A    between atoms: C_17  and  O_20
REMARK                            x       y       z     vdW  Elec       q    Type
REMARK                         _______ _______ _______ _____ _____    ______ ____
ROOT
ATOM      1  O   UNL     1     -13.649 -15.413   9.724  0.00  0.00    +0.000 OA
ATOM      2  O   UNL     1     -14.927 -14.841  13.540  0.00  0.00    +0.000 OA
ATOM      3  C   UNL     1     -15.345 -14.609  11.259  0.00  0.00    +0.000 A 
ATOM      4  C   UNL     1     -14.859 -14.825   9.974  0.00  0.00    +0.000 A 
ATOM      5  C   UNL     1     -12.873 -15.833  10.795  0.00  0.00    +0.000 A 
ATOM      6  C   UNL     1     -13.213 -15.677  12.092  0.00  0.00    +0.000 A 
ATOM      7  C   UNL     1     -14.522 -15.031  12.396  0.00  0.00    +0.000 A 
ATOM      8  C   UNL     1     -16.593 -13.999  11.441  0.00  0.00    +0.000 A 
ATOM      9  C   UNL     1     -15.610 -14.435   8.867  0.00  0.00    +0.000 A 
ATOM     10  C   UNL     1     -16.849 -13.831   9.059  0.00  0.00    +0.000 A 
ATOM     11  C   UNL     1     -17.347 -13.608  10.338  0.00  0.00    +0.000 A 
ENDROOT
BRANCH   5  12
ATOM     12  C   UNL     1     -11.621 -16.464  10.354  0.00  0.00    +0.000 A 
ATOM     13  C   UNL     1     -11.528 -17.851  10.205  0.00  0.00    +0.000 A 
ATOM     14  C   UNL     1     -10.522 -15.662  10.019  0.00  0.00    +0.000 A 
ATOM     15  C   UNL     1     -10.343 -18.418   9.751  0.00  0.00    +0.000 A 
ATOM     16  C   UNL     1      -9.340 -16.233   9.548  0.00  0.00    +0.000 A 
ATOM     17  C   UNL     1      -9.266 -17.611   9.401  0.00  0.00    +0.000 A 
BRANCH  15  18
ATOM     18  O   UNL     1     -10.247 -19.777   9.691  0.00  0.00    +0.000 OA
ATOM     19  H   UNL     1     -10.399 -20.034   8.762  0.00  0.00    +0.000 HD
ENDBRANCH  15  18
BRANCH  17  20
ATOM     20  O   UNL     1      -8.129 -18.163   8.886  0.00  0.00    +0.000 OA
ATOM     21  H   UNL     1      -7.848 -17.586   8.152  0.00  0.00    +0.000 HD
ENDBRANCH  17  20
ENDBRANCH   5  12
BRANCH   6  22
ATOM     22  O   UNL     1     -12.436 -16.051  13.173  0.00  0.00    +0.000 OA
ATOM     23  H   UNL     1     -12.614 -15.472  13.930  0.00  0.00    +0.000 HD
ENDBRANCH   6  22
BRANCH   8  24
ATOM     24  O   UNL     1     -17.132 -13.753  12.675  0.00  0.00    +0.000 OA
ATOM     25  H   UNL     1     -17.913 -14.344  12.794  0.00  0.00    +0.000 HD
ENDBRANCH   8  24
BRANCH  10  26
ATOM     26  O   UNL     1     -17.565 -13.459   7.959  0.00  0.00    +0.000 OA
ATOM     27  H   UNL     1     -17.840 -12.531   8.076  0.00  0.00    +0.000 HD
ENDBRANCH  10  26
TORSDOF 6
ENDMDL
MODEL 3
REMARK VINA RESULT:      -5.7     28.318     30.792
REMARK  Name = Quercetin.pdbqt.pdb
REMARK  6 active torsions:
REMARK  status: ('A' for Active; 'I' for Inactive)
REMARK    1  A    between atoms: C_5  and  C_12
REMARK    2  A    between atoms: C_6  and  O_22
REMARK    3  A    between atoms: C_8  and  O_24
REMARK    4  A    between atoms: C_10  and  O_26
REMARK    5  A    between atoms: C_15  and  O_18
REMARK    6  A    between atoms: C_17  and  O_20
REMARK                            x       y       z     vdW  Elec       q    Type
REMARK                         _______ _______ _______ _____ _____    ______ ____
ROOT
ATOM      1  O   UNL     1     -11.683  -7.347  27.815  0.00  0.00    +0.000 OA
ATOM      2  O   UNL     1     -13.160 -10.462  25.661  0.00  0.00    +0.000 OA
ATOM      3  C   UNL     1     -13.578  -8.686  27.113  0.00  0.00    +0.000 A 
ATOM      4  C   UNL     1     -13.020  -7.637  27.833  0.00  0.00    +0.000 A 
ATOM      5  C   UNL     1     -10.840  -8.122  27.032  0.00  0.00    +0.000 A 
ATOM      6  C   UNL     1     -11.240  -9.178  26.292  0.00  0.00    +0.000 A 
ATOM      7  C   UNL     1     -12.691  -9.522  26.298  0.00  0.00    +0.000 A 
ATOM      8  C   UNL     1     -14.957  -8.926  27.179  0.00  0.00    +0.000 A 
ATOM      9  C   UNL     1     -13.830  -6.821  28.621  0.00  0.00    +0.000 A 
ATOM     10  C   UNL     1     -15.198  -7.066  28.679  0.00  0.00    +0.000 A 
ATOM     11  C   UNL     1     -15.770  -8.113  27.964  0.00  0.00    +0.000 A 
ENDROOT
BRANCH   5  12
ATOM     12  C   UNL     1      -9.445  -7.665  27.106  0.00  0.00    +0.000 A 
ATOM     13  C   UNL     1      -8.882  -6.901  26.079  0.00  0.00    +0.000 A 
ATOM     14  C   UNL     1      -8.684  -7.946  28.248  0.00  0.00    +0.000 A 
ATOM     15  C   UNL     1      -7.573  -6.451  26.193  0.00  0.00    +0.000 A 
ATOM     16  C   UNL     1      -7.375  -7.479  28.366  0.00  0.00    +0.000 A 
ATOM     17  C   UNL     1      -6.834  -6.718  27.340  0.00  0.00    +0.000 A 
BRANCH  15  18
ATOM     18  O   UNL     1      -7.017  -5.777  25.145  0.00  0.00    +0.000 OA
ATOM     19  H   UNL     1      -7.752  -5.424  24.610  0.00  0.00    +0.000 HD
ENDBRANCH  15  18
BRANCH  17  20
ATOM     20  O   UNL     1      -5.574  -6.214  27.482  0.00  0.00    +0.000 OA
ATOM     21  H   UNL     1      -5.281  -6.447  28.383  0.00  0.00    +0.000 HD
ENDBRANCH  17  20
ENDBRANCH   5  12
BRANCH   6  22
ATOM     22  O   UNL     1     -10.411  -9.986  25.537  0.00  0.00    +0.000 OA
ATOM     23  H   UNL     1     -10.618 -10.920  25.695  0.00  0.00    +0.000 HD
ENDBRANCH   6  22
BRANCH   8  24
ATOM     24  O   UNL     1     -15.573  -9.941  26.499  0.00  0.00    +0.000 OA
ATOM     25  H   UNL     1     -16.509  -9.678  26.332  0.00  0.00    +0.000 HD
ENDBRANCH   8  24
BRANCH  10  26
ATOM     26  O   UNL     1     -15.970  -6.254  29.458  0.00  0.00    +0.000 OA
ATOM     27  H   UNL     1     -16.070  -6.676  30.330  0.00  0.00    +0.000 HD
ENDBRANCH  10  26
TORSDOF 6
ENDMDL
MODEL 4
REMARK VINA RESULT:      -5.6     14.928     15.824
REMARK  Name = Quercetin.pdbqt.pdb
REMARK  6 active torsions:
REMARK  status: ('A' for Active; 'I' for Inactive)
REMARK    1  A    between atoms: C_5  and  C_12
REMARK    2  A    between atoms: C_6  and  O_22
REMARK    3  A    between atoms: C_8  and  O_24
REMARK    4  A    between atoms: C_10  and  O_26
REMARK    5  A    between atoms: C_15  and  O_18
REMARK    6  A    between atoms: C_17  and  O_20
REMARK                            x       y       z     vdW  Elec       q    Type
REMARK                         _______ _______ _______ _____ _____    ______ ____
ROOT
ATOM      1  O   UNL     1      -6.493   7.151   4.170  0.00  0.00    +0.000 OA
ATOM      2  O   UNL     1     -10.525   6.929   3.707  0.00  0.00    +0.000 OA
ATOM      3  C   UNL     1      -8.651   6.412   4.993  0.00  0.00    +0.000 A 
ATOM      4  C   UNL     1      -7.268   6.513   5.100  0.00  0.00    +0.000 A 
ATOM      5  C   UNL     1      -7.108   7.741   3.075  0.00  0.00    +0.000 A 
ATOM      6  C   UNL     1      -8.437   7.710   2.836  0.00  0.00    +0.000 A 
ATOM      7  C   UNL     1      -9.306   7.015   3.828  0.00  0.00    +0.000 A 
ATOM      8  C   UNL     1      -9.382   5.743   5.983  0.00  0.00    +0.000 A 
ATOM      9  C   UNL     1      -6.608   5.951   6.190  0.00  0.00    +0.000 A 
ATOM     10  C   UNL     1      -7.343   5.289   7.169  0.00  0.00    +0.000 A 
ATOM     11  C   UNL     1      -8.726   5.180   7.074  0.00  0.00    +0.000 A 
ENDROOT
BRANCH   5  12
ATOM     12  C   UNL     1      -6.139   8.401   2.189  0.00  0.00    +0.000 A 
ATOM     13  C   UNL     1      -5.997   8.005   0.855  0.00  0.00    +0.000 A 
ATOM     14  C   UNL     1      -5.390   9.485   2.665  0.00  0.00    +0.000 A 
ATOM     15  C   UNL     1      -5.101   8.671   0.029  0.00  0.00    +0.000 A 
ATOM     16  C   UNL     1      -4.504  10.163   1.829  0.00  0.00    +0.000 A 
ATOM     17  C   UNL     1      -4.378   9.759   0.507  0.00  0.00    +0.000 A 
BRANCH  15  18
ATOM     18  O   UNL     1      -4.918   8.216  -1.243  0.00  0.00    +0.000 OA
ATOM     19  H   UNL     1      -4.380   8.882  -1.711  0.00  0.00    +0.000 HD
ENDBRANCH  15  18
BRANCH  17  20
ATOM     20  O   UNL     1      -3.553  10.459  -0.324  0.00  0.00    +0.000 OA
ATOM     21  H   UNL     1      -4.128  11.009  -0.887  0.00  0.00    +0.000 HD
ENDBRANCH  17  20
ENDBRANCH   5  12
BRANCH   6  22
ATOM     22  O   UNL     1      -9.063   8.257   1.732  0.00  0.00    +0.000 OA
ATOM     23  H   UNL     1      -8.930   7.690   0.956  0.00  0.00    +0.000 HD
ENDBRANCH   6  22
BRANCH   8  24
ATOM     24  O   UNL     1     -10.743   5.603   5.941  0.00  0.00    +0.000 OA
ATOM     25  H   UNL     1     -10.951   4.648   5.811  0.00  0.00    +0.000 HD
ENDBRANCH   8  24
BRANCH  10  26
ATOM     26  O   UNL     1      -6.674   4.747   8.227  0.00  0.00    +0.000 OA
ATOM     27  H   UNL     1      -6.368   5.475   8.797  0.00  0.00    +0.000 HD
ENDBRANCH  10  26
TORSDOF 6
ENDMDL
MODEL 5
REMARK VINA RESULT:      -5.6      8.162     11.105
REMARK  Name = Quercetin.pdbqt.pdb
REMARK  6 active torsions:
REMARK  status: ('A' for Active; 'I' for Inactive)
REMARK    1  A    between atoms: C_5  and  C_12
REMARK    2  A    between atoms: C_6  and  O_22
REMARK    3  A    between atoms: C_8  and  O_24
REMARK    4  A    between atoms: C_10  and  O_26
REMARK    5  A    between atoms: C_15  and  O_18
REMARK    6  A    between atoms: C_17  and  O_20
REMARK                            x       y       z     vdW  Elec       q    Type
REMARK                         _______ _______ _______ _____ _____    ______ ____
ROOT
ATOM      1  O   UNL     1     -10.605  -8.882   3.181  0.00  0.00    +0.000 OA
ATOM      2  O   UNL     1     -13.677  -7.450   0.937  0.00  0.00    +0.000 OA
ATOM      3  C   UNL     1     -12.827  -7.920   3.057  0.00  0.00    +0.000 A 
ATOM      4  C   UNL     1     -11.749  -8.423   3.775  0.00  0.00    +0.000 A 
ATOM      5  C   UNL     1     -10.501  -8.831   1.799  0.00  0.00    +0.000 A 
ATOM      6  C   UNL     1     -11.472  -8.380   0.975  0.00  0.00    +0.000 A 
ATOM      7  C   UNL     1     -12.733  -7.882   1.594  0.00  0.00    +0.000 A 
ATOM      8  C   UNL     1     -13.968  -7.468   3.732  0.00  0.00    +0.000 A 
ATOM      9  C   UNL     1     -11.801  -8.479   5.167  0.00  0.00    +0.000 A 
ATOM     10  C   UNL     1     -12.938  -8.027   5.828  0.00  0.00    +0.000 A 
ATOM     11  C   UNL     1     -14.025  -7.521   5.121  0.00  0.00    +0.000 A 
ENDROOT
BRANCH   5  12
ATOM     12  C   UNL     1      -9.205  -9.337   1.324  0.00  0.00    +0.000 A 
ATOM     13  C   UNL     1      -8.145  -8.465   1.058  0.00  0.00    +0.000 A 
ATOM     14  C   UNL     1      -9.006 -10.718   1.195  0.00  0.00    +0.000 A 
ATOM     15  C   UNL     1      -6.920  -8.974   0.647  0.00  0.00    +0.000 A 
ATOM     16  C   UNL     1      -7.770 -11.227   0.799  0.00  0.00    +0.000 A 
ATOM     17  C   UNL     1      -6.727 -10.348   0.543  0.00  0.00    +0.000 A 
BRANCH  15  18
ATOM     18  O   UNL     1      -5.925  -8.102   0.314  0.00  0.00    +0.000 OA
ATOM     19  H   UNL     1      -6.341  -7.367  -0.175  0.00  0.00    +0.000 HD
ENDBRANCH  15  18
BRANCH  17  20
ATOM     20  O   UNL     1      -5.503 -10.850   0.210  0.00  0.00    +0.000 OA
ATOM     21  H   UNL     1      -5.649 -11.472  -0.527  0.00  0.00    +0.000 HD
ENDBRANCH  17  20
ENDBRANCH   5  12
BRANCH   6  22
ATOM     22  O   UNL     1     -11.403  -8.358  -0.405  0.00  0.00    +0.000 OA
ATOM     23  H   UNL     1     -12.176  -7.901  -0.772  0.00  0.00    +0.000 HD
ENDBRANCH   6  22
BRANCH   8  24
ATOM     24  O   UNL     1     -15.067  -6.963   3.089  0.00  0.00    +0.000 OA
ATOM     25  H   UNL     1     -15.660  -6.558   3.764  0.00  0.00    +0.000 HD
ENDBRANCH   8  24
BRANCH  10  26
ATOM     26  O   UNL     1     -12.965  -8.091   7.191  0.00  0.00    +0.000 OA
ATOM     27  H   UNL     1     -12.393  -8.829   7.470  0.00  0.00    +0.000 HD
ENDBRANCH  10  26
TORSDOF 6
ENDMDL
MODEL 6
REMARK VINA RESULT:      -5.6     20.009     21.661
REMARK  Name = Quercetin.pdbqt.pdb
REMARK  6 active torsions:
REMARK  status: ('A' for Active; 'I' for Inactive)
REMARK    1  A    between atoms: C_5  and  C_12
REMARK    2  A    between atoms: C_6  and  O_22
REMARK    3  A    between atoms: C_8  and  O_24
REMARK    4  A    between atoms: C_10  and  O_26
REMARK    5  A    between atoms: C_15  and  O_18
REMARK    6  A    between atoms: C_17  and  O_20
REMARK                            x       y       z     vdW  Elec       q    Type
REMARK                         _______ _______ _______ _____ _____    ______ ____
ROOT
ATOM      1  O   UNL     1       1.463 -12.801  17.371  0.00  0.00    +0.000 OA
ATOM      2  O   UNL     1       3.572 -10.103  19.561  0.00  0.00    +0.000 OA
ATOM      3  C   UNL     1       1.794 -11.607  19.455  0.00  0.00    +0.000 A 
ATOM      4  C   UNL     1       1.106 -12.517  18.661  0.00  0.00    +0.000 A 
ATOM      5  C   UNL     1       2.572 -12.169  16.827  0.00  0.00    +0.000 A 
ATOM      6  C   UNL     1       3.325 -11.254  17.476  0.00  0.00    +0.000 A 
ATOM      7  C   UNL     1       2.955 -10.919  18.881  0.00  0.00    +0.000 A 
ATOM      8  C   UNL     1       1.371 -11.365  20.768  0.00  0.00    +0.000 A 
ATOM      9  C   UNL     1      -0.004 -13.190  19.169  0.00  0.00    +0.000 A 
ATOM     10  C   UNL     1      -0.415 -12.943  20.475  0.00  0.00    +0.000 A 
ATOM     11  C   UNL     1       0.263 -12.034  21.280  0.00  0.00    +0.000 A 
ENDROOT
BRANCH   5  12
ATOM     12  C   UNL     1       2.832 -12.601  15.447  0.00  0.00    +0.000 A 
ATOM     13  C   UNL     1       2.494 -11.787  14.362  0.00  0.00    +0.000 A 
ATOM     14  C   UNL     1       3.484 -13.819  15.213  0.00  0.00    +0.000 A 
ATOM     15  C   UNL     1       2.785 -12.204  13.069  0.00  0.00    +0.000 A 
ATOM     16  C   UNL     1       3.790 -14.227  13.916  0.00  0.00    +0.000 A 
ATOM     17  C   UNL     1       3.451 -13.405  12.851  0.00  0.00    +0.000 A 
BRANCH  15  18
ATOM     18  O   UNL     1       2.373 -11.433  12.022  0.00  0.00    +0.000 OA
ATOM     19  H   UNL     1       1.509 -11.782  11.732  0.00  0.00    +0.000 HD
ENDBRANCH  15  18
BRANCH  17  20
ATOM     20  O   UNL     1       3.802 -13.779  11.586  0.00  0.00    +0.000 OA
ATOM     21  H   UNL     1       3.396 -14.652  11.432  0.00  0.00    +0.000 HD
ENDBRANCH  17  20
ENDBRANCH   5  12
BRANCH   6  22
ATOM     22  O   UNL     1       4.408 -10.584  16.940  0.00  0.00    +0.000 OA
ATOM     23  H   UNL     1       5.157 -11.192  16.829  0.00  0.00    +0.000 HD
ENDBRANCH   6  22
BRANCH   8  24
ATOM     24  O   UNL     1       1.998 -10.481  21.605  0.00  0.00    +0.000 OA
ATOM     25  H   UNL     1       2.968 -10.654  21.566  0.00  0.00    +0.000 HD
ENDBRANCH   8  24
BRANCH  10  26
ATOM     26  O   UNL     1      -1.505 -13.613  20.949  0.00  0.00    +0.000 OA
ATOM     27  H   UNL     1      -2.283 -13.037  20.848  0.00  0.00    +0.000 HD
ENDBRANCH  10  26
TORSDOF 6
ENDMDL
MODEL 7
REMARK VINA RESULT:      -5.5     16.631     18.367
REMARK  Name = Quercetin.pdbqt.pdb
REMARK  6 active torsions:
REMARK  status: ('A' for Active; 'I' for Inactive)
REMARK    1  A    between atoms: C_5  and  C_12
REMARK    2  A    between atoms: C_6  and  O_22
REMARK    3  A    between atoms: C_8  and  O_24
REMARK    4  A    between atoms: C_10  and  O_26
REMARK    5  A    between atoms: C_15  and  O_18
REMARK    6  A    between atoms: C_17  and  O_20
REMARK                            x       y       z     vdW  Elec       q    Type
REMARK                         _______ _______ _______ _____ _____    ______ ____
ROOT
ATOM      1  O   UNL     1       5.671 -13.515  12.121  0.00  0.00    +0.000 OA
ATOM      2  O   UNL     1       4.277  -9.722  11.682  0.00  0.00    +0.000 OA
ATOM      3  C   UNL     1       6.101 -11.175  11.654  0.00  0.00    +0.000 A 
ATOM      4  C   UNL     1       6.524 -12.488  11.820  0.00  0.00    +0.000 A 
ATOM      5  C   UNL     1       4.317 -13.245  12.254  0.00  0.00    +0.000 A 
ATOM      6  C   UNL     1       3.767 -12.017  12.134  0.00  0.00    +0.000 A 
ATOM      7  C   UNL     1       4.674 -10.877  11.813  0.00  0.00    +0.000 A 
ATOM      8  C   UNL     1       7.030 -10.173  11.347  0.00  0.00    +0.000 A 
ATOM      9  C   UNL     1       7.873 -12.811  11.680  0.00  0.00    +0.000 A 
ATOM     10  C   UNL     1       8.788 -11.809  11.373  0.00  0.00    +0.000 A 
ATOM     11  C   UNL     1       8.378 -10.491  11.206  0.00  0.00    +0.000 A 
ENDROOT
BRANCH   5  12
ATOM     12  C   UNL     1       3.540 -14.456  12.554  0.00  0.00    +0.000 A 
ATOM     13  C   UNL     1       3.270 -15.402  11.560  0.00  0.00    +0.000 A 
ATOM     14  C   UNL     1       3.115 -14.699  13.866  0.00  0.00    +0.000 A 
ATOM     15  C   UNL     1       2.565 -16.555  11.880  0.00  0.00    +0.000 A 
ATOM     16  C   UNL     1       2.423 -15.866  14.188  0.00  0.00    +0.000 A 
ATOM     17  C   UNL     1       2.167 -16.796  13.190  0.00  0.00    +0.000 A 
BRANCH  15  18
ATOM     18  O   UNL     1       2.241 -17.425  10.880  0.00  0.00    +0.000 OA
ATOM     19  H   UNL     1       2.546 -18.308  11.160  0.00  0.00    +0.000 HD
ENDBRANCH  15  18
BRANCH  17  20
ATOM     20  O   UNL     1       1.539 -17.963  13.518  0.00  0.00    +0.000 OA
ATOM     21  H   UNL     1       1.869 -18.639  12.897  0.00  0.00    +0.000 HD
ENDBRANCH  17  20
ENDBRANCH   5  12
BRANCH   6  22
ATOM     22  O   UNL     1       2.428 -11.721  12.301  0.00  0.00    +0.000 OA
ATOM     23  H   UNL     1       2.190 -11.764  13.241  0.00  0.00    +0.000 HD
ENDBRANCH   6  22
BRANCH   8  24
ATOM     24  O   UNL     1       6.685  -8.860  11.173  0.00  0.00    +0.000 OA
ATOM     25  H   UNL     1       7.421  -8.407  10.699  0.00  0.00    +0.000 HD
ENDBRANCH   8  24
BRANCH  10  26
ATOM     26  O   UNL     1      10.102 -12.150  11.242  0.00  0.00    +0.000 OA
ATOM     27  H   UNL     1      10.335 -12.749  11.974  0.00  0.00    +0.000 HD
ENDBRANCH  10  26
TORSDOF 6
ENDMDL
MODEL 8
REMARK VINA RESULT:      -5.4      9.697     11.183
REMARK  Name = Quercetin.pdbqt.pdb
REMARK  6 active torsions:
REMARK  status: ('A' for Active; 'I' for Inactive)
REMARK    1  A    between atoms: C_5  and  C_12
REMARK    2  A    between atoms: C_6  and  O_22
REMARK    3  A    between atoms: C_8  and  O_24
REMARK    4  A    between atoms: C_10  and  O_26
REMARK    5  A    between atoms: C_15  and  O_18
REMARK    6  A    between atoms: C_17  and  O_20
REMARK                            x       y       z     vdW  Elec       q    Type
REMARK                         _______ _______ _______ _____ _____    ______ ____
ROOT
ATOM      1  O   UNL     1     -11.506 -10.429   3.583  0.00  0.00    +0.000 OA
ATOM      2  O   UNL     1     -10.611  -8.155   0.335  0.00  0.00    +0.000 OA
ATOM      3  C   UNL     1     -10.247 -10.121   1.534  0.00  0.00    +0.000 A 
ATOM      4  C   UNL     1     -10.588 -10.857   2.664  0.00  0.00    +0.000 A 
ATOM      5  C   UNL     1     -12.145  -9.215   3.379  0.00  0.00    +0.000 A 
ATOM      6  C   UNL     1     -11.905  -8.391   2.335  0.00  0.00    +0.000 A 
ATOM      7  C   UNL     1     -10.903  -8.827   1.321  0.00  0.00    +0.000 A 
ATOM      8  C   UNL     1      -9.297 -10.620   0.634  0.00  0.00    +0.000 A 
ATOM      9  C   UNL     1      -9.985 -12.090   2.903  0.00  0.00    +0.000 A 
ATOM     10  C   UNL     1      -9.042 -12.577   2.003  0.00  0.00    +0.000 A 
ATOM     11  C   UNL     1      -8.692 -11.852   0.869  0.00  0.00    +0.000 A 
ENDROOT
BRANCH   5  12
ATOM     12  C   UNL     1     -13.115  -8.916   4.442  0.00  0.00    +0.000 A 
ATOM     13  C   UNL     1     -12.698  -8.396   5.671  0.00  0.00    +0.000 A 
ATOM     14  C   UNL     1     -14.483  -9.095   4.201  0.00  0.00    +0.000 A 
ATOM     15  C   UNL     1     -13.640  -8.088   6.645  0.00  0.00    +0.000 A 
ATOM     16  C   UNL     1     -15.427  -8.769   5.174  0.00  0.00    +0.000 A 
ATOM     17  C   UNL     1     -14.997  -8.250   6.387  0.00  0.00    +0.000 A 
BRANCH  15  18
ATOM     18  O   UNL     1     -13.206  -7.660   7.865  0.00  0.00    +0.000 OA
ATOM     19  H   UNL     1     -13.804  -8.045   8.532  0.00  0.00    +0.000 HD
ENDBRANCH  15  18
BRANCH  17  20
ATOM     20  O   UNL     1     -15.925  -7.878   7.316  0.00  0.00    +0.000 OA
ATOM     21  H   UNL     1     -15.863  -6.908   7.398  0.00  0.00    +0.000 HD
ENDBRANCH  17  20
ENDBRANCH   5  12
BRANCH   6  22
ATOM     22  O   UNL     1     -12.501  -7.161   2.135  0.00  0.00    +0.000 OA
ATOM     23  H   UNL     1     -12.274  -6.817   1.256  0.00  0.00    +0.000 HD
ENDBRANCH   6  22
BRANCH   8  24
ATOM     24  O   UNL     1      -8.912  -9.950  -0.495  0.00  0.00    +0.000 OA
ATOM     25  H   UNL     1      -9.693  -9.877  -1.093  0.00  0.00    +0.000 HD
ENDBRANCH   8  24
BRANCH  10  26
ATOM     26  O   UNL     1      -8.466 -13.787   2.259  0.00  0.00    +0.000 OA
ATOM     27  H   UNL     1      -9.016 -14.478   1.848  0.00  0.00    +0.000 HD
ENDBRANCH  10  26
TORSDOF 6
ENDMDL
MODEL 9
REMARK VINA RESULT:      -5.3     15.252     16.433
REMARK  Name = Quercetin.pdbqt.pdb
REMARK  6 active torsions:
REMARK  status: ('A' for Active; 'I' for Inactive)
REMARK    1  A    between atoms: C_5  and  C_12
REMARK    2  A    between atoms: C_6  and  O_22
REMARK    3  A    between atoms: C_8  and  O_24
REMARK    4  A    between atoms: C_10  and  O_26
REMARK    5  A    between atoms: C_15  and  O_18
REMARK    6  A    between atoms: C_17  and  O_20
REMARK                            x       y       z     vdW  Elec       q    Type
REMARK                         _______ _______ _______ _____ _____    ______ ____
ROOT
ATOM      1  O   UNL     1      -8.204   7.309   3.296  0.00  0.00    +0.000 OA
ATOM      2  O   UNL     1      -7.380   7.047   7.268  0.00  0.00    +0.000 OA
ATOM      3  C   UNL     1      -8.827   6.544   5.511  0.00  0.00    +0.000 A 
ATOM      4  C   UNL     1      -9.062   6.666   4.146  0.00  0.00    +0.000 A 
ATOM      5  C   UNL     1      -7.035   7.853   3.808  0.00  0.00    +0.000 A 
ATOM      6  C   UNL     1      -6.684   7.821   5.112  0.00  0.00    +0.000 A 
ATOM      7  C   UNL     1      -7.604   7.134   6.063  0.00  0.00    +0.000 A 
ATOM      8  C   UNL     1      -9.751   5.873   6.323  0.00  0.00    +0.000 A 
ATOM      9  C   UNL     1     -10.215   6.122   3.584  0.00  0.00    +0.000 A 
ATOM     10  C   UNL     1     -11.126   5.457   4.398  0.00  0.00    +0.000 A 
ATOM     11  C   UNL     1     -10.904   5.328   5.765  0.00  0.00    +0.000 A 
ENDROOT
BRANCH   5  12
ATOM     12  C   UNL     1      -6.216   8.484   2.763  0.00  0.00    +0.000 A 
ATOM     13  C   UNL     1      -5.371   9.557   3.061  0.00  0.00    +0.000 A 
ATOM     14  C   UNL     1      -6.234   7.966   1.462  0.00  0.00    +0.000 A 
ATOM     15  C   UNL     1      -4.581  10.111   2.062  0.00  0.00    +0.000 A 
ATOM     16  C   UNL     1      -5.427   8.512   0.465  0.00  0.00    +0.000 A 
ATOM     17  C   UNL     1      -4.590   9.575   0.779  0.00  0.00    +0.000 A 
BRANCH  15  18
ATOM     18  O   UNL     1      -3.826  11.208   2.355  0.00  0.00    +0.000 OA
ATOM     19  H   UNL     1      -3.874  11.803   1.583  0.00  0.00    +0.000 HD
ENDBRANCH  15  18
BRANCH  17  20
ATOM     20  O   UNL     1      -3.760  10.071  -0.183  0.00  0.00    +0.000 OA
ATOM     21  H   UNL     1      -2.878  10.153   0.226  0.00  0.00    +0.000 HD
ENDBRANCH  17  20
ENDBRANCH   5  12
BRANCH   6  22
ATOM     22  O   UNL     1      -5.544   8.390   5.648  0.00  0.00    +0.000 OA
ATOM     23  H   UNL     1      -4.941   8.664   4.939  0.00  0.00    +0.000 HD
ENDBRANCH   6  22
BRANCH   8  24
ATOM     24  O   UNL     1      -9.586   5.717   7.673  0.00  0.00    +0.000 OA
ATOM     25  H   UNL     1      -9.911   4.821   7.922  0.00  0.00    +0.000 HD
ENDBRANCH   8  24
BRANCH  10  26
ATOM     26  O   UNL     1     -12.247   4.932   3.824  0.00  0.00    +0.000 OA
ATOM     27  H   UNL     1     -12.533   4.170   4.358  0.00  0.00    +0.000 HD
ENDBRANCH  10  26
TORSDOF 6
ENDMDL
