MODEL 1
REMARK VINA RESULT:      -4.9      0.000      0.000
REMARK  Name = 
REMARK  14 active torsions:
REMARK  status: ('A' for Active; 'I' for Inactive)
REMARK    1  A    between atoms: O_1  and  C_24
REMARK    2  A    between atoms: O_1  and  C_36
REMARK    3  A    between atoms: O_4  and  C_30
REMARK    4  A    between atoms: O_4  and  C_37
REMARK    5  A    between atoms: O_7  and  C_33
REMARK    6  A    between atoms: O_7  and  C_38
REMARK    7  A    between atoms: N_10  and  C_23
REMARK    8  A    between atoms: C_15  and  C_26
REMARK    9  A    between atoms: C_16  and  C_24
REMARK   10  A    between atoms: C_31  and  C_34
REMARK   11  A    between atoms: C_32  and  C_35
REMARK   12  A    between atoms: C_36  and  C_39
REMARK   13  A    between atoms: C_39  and  C_40
REMARK   14  A    between atoms: C_41  and  C_42
REMARK                            x       y       z     vdW  Elec       q    Type
REMARK                         _______ _______ _______ _____ _____    ______ ____
ROOT
ATOM      1  O   UNL     1     -10.706  -4.355  28.742  0.00  0.00    +0.000 OA
ATOM      2  O   UNL     1      -7.372  -5.952  24.921  0.00  0.00    +0.000 OA
ATOM      3  O   UNL     1      -9.425  -5.218  33.142  0.00  0.00    +0.000 OA
ATOM      4  O   UNL     1      -6.460  -9.620  32.814  0.00  0.00    +0.000 OA
ATOM      5  N   UNL     1      -8.510  -8.392  29.287  0.00  0.00    +0.000 NA
ATOM      6  N   UNL     1     -10.897  -8.333  27.576  0.00  0.00    +0.000 NA
ATOM      7  C   UNL     1      -9.749  -7.667  29.671  0.00  0.00    +0.000 C 
ATOM      8  C   UNL     1     -10.540  -7.140  28.398  0.00  0.00    +0.000 C 
ATOM      9  C   UNL     1      -9.647  -8.959  27.076  0.00  0.00    +0.000 C 
ATOM     10  C   UNL     1      -8.789  -9.476  28.291  0.00  0.00    +0.000 C 
ATOM     11  C   UNL     1      -7.627  -8.823  30.406  0.00  0.00    +0.000 C 
ATOM     12  C   UNL     1      -9.432  -6.516  30.649  0.00  0.00    +0.000 C 
ATOM     13  C   UNL     1      -8.819  -7.989  26.187  0.00  0.00    +0.000 C 
ATOM     14  C   UNL     1      -9.711  -6.144  27.599  0.00  0.00    +0.000 C 
ATOM     15  C   UNL     1      -8.907  -6.542  26.602  0.00  0.00    +0.000 C 
ATOM     16  C   UNL     1      -7.810  -8.050  31.702  0.00  0.00    +0.000 C 
ATOM     17  C   UNL     1      -8.612  -6.983  31.812  0.00  0.00    +0.000 C 
ATOM     18  C   UNL     1     -11.881  -8.052  26.535  0.00  0.00    +0.000 C 
ATOM     19  C   UNL     1      -9.867  -4.707  27.919  0.00  0.00    +0.000 C 
ATOM     20  C   UNL     1      -8.095  -5.574  25.836  0.00  0.00    +0.000 C 
ATOM     21  C   UNL     1      -8.726  -6.223  33.076  0.00  0.00    +0.000 C 
ATOM     22  C   UNL     1      -7.085  -8.567  32.892  0.00  0.00    +0.000 C 
ATOM     23  C   UNL     1      -8.977  -3.728  27.211  0.00  0.00    +0.000 C 
ATOM     24  C   UNL     1      -8.169  -4.141  26.222  0.00  0.00    +0.000 C 
ATOM     25  C   UNL     1      -7.944  -6.692  34.247  0.00  0.00    +0.000 C 
ATOM     26  C   UNL     1      -7.157  -7.776  34.165  0.00  0.00    +0.000 C 
ATOM     27  C   UNL     1      -7.286  -3.226  25.423  0.00  0.00    +0.000 C 
ATOM     28  C   UNL     1      -8.108  -5.864  35.489  0.00  0.00    +0.000 C 
ENDROOT
BRANCH  23  29
ATOM     29  O   UNL     1      -9.020  -2.373  27.522  0.00  0.00    +0.000 OA
ATOM     30  C   UNL     1     -10.020  -1.619  26.840  0.00  0.00    +0.000 C 
ENDBRANCH  23  29
BRANCH  26  31
ATOM     31  O   UNL     1      -6.461  -8.191  35.296  0.00  0.00    +0.000 OA
ATOM     32  C   UNL     1      -5.091  -7.798  35.339  0.00  0.00    +0.000 C 
ENDBRANCH  26  31
BRANCH  10  34
ATOM     33  N   UNL     1      -9.975 -11.605  29.339  0.00  0.00    +0.000 NA
ATOM     34  C   UNL     1      -9.453 -10.684  28.862  0.00  0.00    +0.000 C 
ENDBRANCH  10  34
BRANCH  11  35
ATOM     35  C   UNL     1      -6.154  -8.694  29.914  0.00  0.00    +0.000 C 
BRANCH  35  36
ATOM     36  O   UNL     1      -6.048  -7.561  29.026  0.00  0.00    +0.000 OA
BRANCH  36  38
ATOM     37  O   UNL     1      -3.930  -6.713  28.828  0.00  0.00    +0.000 OA
ATOM     38  C   UNL     1      -5.046  -6.700  29.321  0.00  0.00    +0.000 C 
BRANCH  38  39
ATOM     39  C   UNL     1      -5.526  -5.630  30.241  0.00  0.00    +0.000 C 
ATOM     40  C   UNL     1      -6.512  -4.694  29.600  0.00  0.00    +0.000 C 
ATOM     41  C   UNL     1      -5.129  -5.476  31.520  0.00  0.00    +0.000 C 
ATOM     42  C   UNL     1      -4.092  -6.251  32.269  0.00  0.00    +0.000 C 
ENDBRANCH  38  39
ENDBRANCH  36  38
ENDBRANCH  35  36
ENDBRANCH  11  35
TORSDOF 7
ENDMDL
MODEL 2
REMARK VINA RESULT:      -4.6      3.010      6.438
REMARK  Name = 
REMARK  14 active torsions:
REMARK  status: ('A' for Active; 'I' for Inactive)
REMARK    1  A    between atoms: O_1  and  C_24
REMARK    2  A    between atoms: O_1  and  C_36
REMARK    3  A    between atoms: O_4  and  C_30
REMARK    4  A    between atoms: O_4  and  C_37
REMARK    5  A    between atoms: O_7  and  C_33
REMARK    6  A    between atoms: O_7  and  C_38
REMARK    7  A    between atoms: N_10  and  C_23
REMARK    8  A    between atoms: C_15  and  C_26
REMARK    9  A    between atoms: C_16  and  C_24
REMARK   10  A    between atoms: C_31  and  C_34
REMARK   11  A    between atoms: C_32  and  C_35
REMARK   12  A    between atoms: C_36  and  C_39
REMARK   13  A    between atoms: C_39  and  C_40
REMARK   14  A    between atoms: C_41  and  C_42
REMARK                            x       y       z     vdW  Elec       q    Type
REMARK                         _______ _______ _______ _____ _____    ______ ____
ROOT
ATOM      1  O   UNL     1     -11.175  -2.074  30.536  0.00  0.00    +0.000 OA
ATOM      2  O   UNL     1      -5.974  -1.869  31.619  0.00  0.00    +0.000 OA
ATOM      3  O   UNL     1     -12.786  -6.053  28.717  0.00  0.00    +0.000 OA
ATOM      4  O   UNL     1      -8.654  -8.042  26.025  0.00  0.00    +0.000 OA
ATOM      5  N   UNL     1      -8.236  -4.102  27.594  0.00  0.00    +0.000 NA
ATOM      6  N   UNL     1      -8.601  -1.195  27.402  0.00  0.00    +0.000 NA
ATOM      7  C   UNL     1      -9.574  -3.460  27.662  0.00  0.00    +0.000 C 
ATOM      8  C   UNL     1      -9.494  -2.001  28.283  0.00  0.00    +0.000 C 
ATOM      9  C   UNL     1      -7.230  -1.763  27.463  0.00  0.00    +0.000 C 
ATOM     10  C   UNL     1      -7.238  -3.231  26.894  0.00  0.00    +0.000 C 
ATOM     11  C   UNL     1      -8.209  -5.521  27.141  0.00  0.00    +0.000 C 
ATOM     12  C   UNL     1     -10.570  -4.347  28.440  0.00  0.00    +0.000 C 
ATOM     13  C   UNL     1      -6.646  -1.731  28.903  0.00  0.00    +0.000 C 
ATOM     14  C   UNL     1      -8.979  -2.032  29.715  0.00  0.00    +0.000 C 
ATOM     15  C   UNL     1      -7.670  -1.930  29.992  0.00  0.00    +0.000 C 
ATOM     16  C   UNL     1      -9.521  -6.272  27.305  0.00  0.00    +0.000 C 
ATOM     17  C   UNL     1     -10.591  -5.751  27.918  0.00  0.00    +0.000 C 
ATOM     18  C   UNL     1      -8.664   0.241  27.661  0.00  0.00    +0.000 C 
ATOM     19  C   UNL     1      -9.979  -2.117  30.804  0.00  0.00    +0.000 C 
ATOM     20  C   UNL     1      -7.173  -1.972  31.382  0.00  0.00    +0.000 C 
ATOM     21  C   UNL     1     -11.835  -6.529  28.106  0.00  0.00    +0.000 C 
ATOM     22  C   UNL     1      -9.592  -7.627  26.698  0.00  0.00    +0.000 C 
ATOM     23  C   UNL     1      -9.477  -2.255  32.211  0.00  0.00    +0.000 C 
ATOM     24  C   UNL     1      -8.163  -2.162  32.473  0.00  0.00    +0.000 C 
ATOM     25  C   UNL     1     -11.884  -7.911  27.567  0.00  0.00    +0.000 C 
ATOM     26  C   UNL     1     -10.831  -8.441  26.924  0.00  0.00    +0.000 C 
ATOM     27  C   UNL     1      -7.576  -2.233  33.853  0.00  0.00    +0.000 C 
ATOM     28  C   UNL     1     -13.176  -8.638  27.805  0.00  0.00    +0.000 C 
ENDROOT
BRANCH  23  29
ATOM     29  O   UNL     1     -10.363  -2.416  33.271  0.00  0.00    +0.000 OA
ATOM     30  C   UNL     1     -10.777  -3.755  33.526  0.00  0.00    +0.000 C 
ENDBRANCH  23  29
BRANCH  26  31
ATOM     31  O   UNL     1     -10.932  -9.732  26.417  0.00  0.00    +0.000 OA
ATOM     32  C   UNL     1     -10.328 -10.745  27.219  0.00  0.00    +0.000 C 
ENDBRANCH  26  31
BRANCH  10  34
ATOM     33  N   UNL     1      -7.571  -3.095  24.265  0.00  0.00    +0.000 NA
ATOM     34  C   UNL     1      -7.407  -3.165  25.412  0.00  0.00    +0.000 C 
ENDBRANCH  10  34
BRANCH  11  35
ATOM     35  C   UNL     1      -7.080  -6.244  27.935  0.00  0.00    +0.000 C 
BRANCH  35  36
ATOM     36  O   UNL     1      -7.319  -6.083  29.350  0.00  0.00    +0.000 OA
BRANCH  36  38
ATOM     37  O   UNL     1      -5.981  -7.330  30.729  0.00  0.00    +0.000 OA
ATOM     38  C   UNL     1      -7.016  -7.165  30.104  0.00  0.00    +0.000 C 
BRANCH  38  39
ATOM     39  C   UNL     1      -8.182  -8.091  30.187  0.00  0.00    +0.000 C 
ATOM     40  C   UNL     1      -7.941  -9.412  29.512  0.00  0.00    +0.000 C 
ATOM     41  C   UNL     1      -9.356  -7.802  30.784  0.00  0.00    +0.000 C 
ATOM     42  C   UNL     1      -9.788  -6.512  31.404  0.00  0.00    +0.000 C 
ENDBRANCH  38  39
ENDBRANCH  36  38
ENDBRANCH  35  36
ENDBRANCH  11  35
TORSDOF 7
ENDMDL
MODEL 3
REMARK VINA RESULT:      -4.4     31.078     35.629
REMARK  Name = 
REMARK  14 active torsions:
REMARK  status: ('A' for Active; 'I' for Inactive)
REMARK    1  A    between atoms: O_1  and  C_24
REMARK    2  A    between atoms: O_1  and  C_36
REMARK    3  A    between atoms: O_4  and  C_30
REMARK    4  A    between atoms: O_4  and  C_37
REMARK    5  A    between atoms: O_7  and  C_33
REMARK    6  A    between atoms: O_7  and  C_38
REMARK    7  A    between atoms: N_10  and  C_23
REMARK    8  A    between atoms: C_15  and  C_26
REMARK    9  A    between atoms: C_16  and  C_24
REMARK   10  A    between atoms: C_31  and  C_34
REMARK   11  A    between atoms: C_32  and  C_35
REMARK   12  A    between atoms: C_36  and  C_39
REMARK   13  A    between atoms: C_39  and  C_40
REMARK   14  A    between atoms: C_41  and  C_42
REMARK                            x       y       z     vdW  Elec       q    Type
REMARK                         _______ _______ _______ _____ _____    ______ ____
ROOT
ATOM      1  O   UNL     1      -4.097  -8.793  -4.309  0.00  0.00    +0.000 OA
ATOM      2  O   UNL     1      -0.081  -5.842  -2.458  0.00  0.00    +0.000 OA
ATOM      3  O   UNL     1      -6.814  -6.840  -7.558  0.00  0.00    +0.000 OA
ATOM      4  O   UNL     1      -6.603  -1.634  -6.499  0.00  0.00    +0.000 OA
ATOM      5  N   UNL     1      -4.809  -4.265  -3.669  0.00  0.00    +0.000 NA
ATOM      6  N   UNL     1      -4.963  -6.036  -1.331  0.00  0.00    +0.000 NA
ATOM      7  C   UNL     1      -5.515  -5.573  -3.703  0.00  0.00    +0.000 C 
ATOM      8  C   UNL     1      -4.864  -6.618  -2.700  0.00  0.00    +0.000 C 
ATOM      9  C   UNL     1      -4.129  -4.808  -1.272  0.00  0.00    +0.000 C 
ATOM     10  C   UNL     1      -4.696  -3.733  -2.273  0.00  0.00    +0.000 C 
ATOM     11  C   UNL     1      -5.259  -3.248  -4.660  0.00  0.00    +0.000 C 
ATOM     12  C   UNL     1      -5.566  -6.132  -5.141  0.00  0.00    +0.000 C 
ATOM     13  C   UNL     1      -2.632  -5.102  -1.566  0.00  0.00    +0.000 C 
ATOM     14  C   UNL     1      -3.419  -6.921  -3.071  0.00  0.00    +0.000 C 
ATOM     15  C   UNL     1      -2.401  -6.208  -2.565  0.00  0.00    +0.000 C 
ATOM     16  C   UNL     1      -5.977  -3.812  -5.876  0.00  0.00    +0.000 C 
ATOM     17  C   UNL     1      -6.099  -5.124  -6.112  0.00  0.00    +0.000 C 
ATOM     18  C   UNL     1      -4.686  -6.996  -0.266  0.00  0.00    +0.000 C 
ATOM     19  C   UNL     1      -3.165  -8.073  -3.966  0.00  0.00    +0.000 C 
ATOM     20  C   UNL     1      -1.000  -6.497  -2.936  0.00  0.00    +0.000 C 
ATOM     21  C   UNL     1      -6.759  -5.636  -7.333  0.00  0.00    +0.000 C 
ATOM     22  C   UNL     1      -6.604  -2.825  -6.793  0.00  0.00    +0.000 C 
ATOM     23  C   UNL     1      -1.756  -8.314  -4.420  0.00  0.00    +0.000 C 
ATOM     24  C   UNL     1      -0.747  -7.586  -3.915  0.00  0.00    +0.000 C 
ATOM     25  C   UNL     1      -7.320  -4.651  -8.290  0.00  0.00    +0.000 C 
ATOM     26  C   UNL     1      -7.234  -3.332  -8.057  0.00  0.00    +0.000 C 
ATOM     27  C   UNL     1       0.696  -7.792  -4.269  0.00  0.00    +0.000 C 
ATOM     28  C   UNL     1      -7.968  -5.248  -9.506  0.00  0.00    +0.000 C 
ENDROOT
BRANCH  23  29
ATOM     29  O   UNL     1      -1.463  -9.332  -5.321  0.00  0.00    +0.000 OA
ATOM     30  C   UNL     1      -1.657  -9.010  -6.696  0.00  0.00    +0.000 C 
ENDBRANCH  23  29
BRANCH  26  31
ATOM     31  O   UNL     1      -7.796  -2.448  -8.972  0.00  0.00    +0.000 OA
ATOM     32  C   UNL     1      -6.870  -1.845  -9.874  0.00  0.00    +0.000 C 
ENDBRANCH  26  31
BRANCH  10  34
ATOM     33  N   UNL     1      -6.976  -2.778  -1.310  0.00  0.00    +0.000 NA
ATOM     34  C   UNL     1      -5.968  -3.188  -1.714  0.00  0.00    +0.000 C 
ENDBRANCH  10  34
BRANCH  11  35
ATOM     35  C   UNL     1      -4.001  -2.447  -5.110  0.00  0.00    +0.000 C 
BRANCH  35  36
ATOM     36  O   UNL     1      -2.893  -3.356  -5.273  0.00  0.00    +0.000 OA
BRANCH  36  38
ATOM     37  O   UNL     1      -2.217  -2.393  -7.238  0.00  0.00    +0.000 OA
ATOM     38  C   UNL     1      -2.339  -3.363  -6.508  0.00  0.00    +0.000 C 
BRANCH  38  39
ATOM     39  C   UNL     1      -1.763  -4.702  -6.818  0.00  0.00    +0.000 C 
ATOM     40  C   UNL     1      -2.735  -5.624  -7.499  0.00  0.00    +0.000 C 
ATOM     41  C   UNL     1      -0.506  -5.090  -6.521  0.00  0.00    +0.000 C 
ATOM     42  C   UNL     1       0.542  -4.338  -5.763  0.00  0.00    +0.000 C 
ENDBRANCH  38  39
ENDBRANCH  36  38
ENDBRANCH  35  36
ENDBRANCH  11  35
TORSDOF 7
ENDMDL
MODEL 4
REMARK VINA RESULT:      -4.4     14.477     19.066
REMARK  Name = 
REMARK  14 active torsions:
REMARK  status: ('A' for Active; 'I' for Inactive)
REMARK    1  A    between atoms: O_1  and  C_24
REMARK    2  A    between atoms: O_1  and  C_36
REMARK    3  A    between atoms: O_4  and  C_30
REMARK    4  A    between atoms: O_4  and  C_37
REMARK    5  A    between atoms: O_7  and  C_33
REMARK    6  A    between atoms: O_7  and  C_38
REMARK    7  A    between atoms: N_10  and  C_23
REMARK    8  A    between atoms: C_15  and  C_26
REMARK    9  A    between atoms: C_16  and  C_24
REMARK   10  A    between atoms: C_31  and  C_34
REMARK   11  A    between atoms: C_32  and  C_35
REMARK   12  A    between atoms: C_36  and  C_39
REMARK   13  A    between atoms: C_39  and  C_40
REMARK   14  A    between atoms: C_41  and  C_42
REMARK                            x       y       z     vdW  Elec       q    Type
REMARK                         _______ _______ _______ _____ _____    ______ ____
ROOT
ATOM      1  O   UNL     1     -16.033   9.607  16.954  0.00  0.00    +0.000 OA
ATOM      2  O   UNL     1     -14.063   6.508  13.109  0.00  0.00    +0.000 OA
ATOM      3  O   UNL     1     -15.768   7.971  21.312  0.00  0.00    +0.000 OA
ATOM      4  O   UNL     1     -15.953   2.686  20.752  0.00  0.00    +0.000 OA
ATOM      5  N   UNL     1     -16.675   5.035  17.271  0.00  0.00    +0.000 NA
ATOM      6  N   UNL     1     -18.463   6.566  15.515  0.00  0.00    +0.000 NA
ATOM      7  C   UNL     1     -17.268   6.336  17.675  0.00  0.00    +0.000 C 
ATOM      8  C   UNL     1     -17.521   7.280  16.423  0.00  0.00    +0.000 C 
ATOM      9  C   UNL     1     -17.795   5.343  15.001  0.00  0.00    +0.000 C 
ATOM     10  C   UNL     1     -17.479   4.368  16.198  0.00  0.00    +0.000 C 
ATOM     11  C   UNL     1     -16.282   4.118  18.378  0.00  0.00    +0.000 C 
ATOM     12  C   UNL     1     -16.392   7.034  18.737  0.00  0.00    +0.000 C 
ATOM     13  C   UNL     1     -16.505   5.671  14.200  0.00  0.00    +0.000 C 
ATOM     14  C   UNL     1     -16.219   7.625  15.714  0.00  0.00    +0.000 C 
ATOM     15  C   UNL     1     -15.747   6.871  14.710  0.00  0.00    +0.000 C 
ATOM     16  C   UNL     1     -16.050   4.795  19.720  0.00  0.00    +0.000 C 
ATOM     17  C   UNL     1     -16.075   6.124  19.884  0.00  0.00    +0.000 C 
ATOM     18  C   UNL     1     -19.030   7.417  14.473  0.00  0.00    +0.000 C 
ATOM     19  C   UNL     1     -15.517   8.861  16.128  0.00  0.00    +0.000 C 
ATOM     20  C   UNL     1     -14.477   7.202  14.031  0.00  0.00    +0.000 C 
ATOM     21  C   UNL     1     -15.793   6.751  21.194  0.00  0.00    +0.000 C 
ATOM     22  C   UNL     1     -15.841   3.901  20.887  0.00  0.00    +0.000 C 
ATOM     23  C   UNL     1     -14.182   9.153  15.509  0.00  0.00    +0.000 C 
ATOM     24  C   UNL     1     -13.715   8.383  14.512  0.00  0.00    +0.000 C 
ATOM     25  C   UNL     1     -15.508   5.862  22.347  0.00  0.00    +0.000 C 
ATOM     26  C   UNL     1     -15.508   4.526  22.209  0.00  0.00    +0.000 C 
ATOM     27  C   UNL     1     -12.418   8.631  13.798  0.00  0.00    +0.000 C 
ATOM     28  C   UNL     1     -15.225   6.573  23.639  0.00  0.00    +0.000 C 
ENDROOT
BRANCH  23  29
ATOM     29  O   UNL     1     -13.436  10.256  15.910  0.00  0.00    +0.000 OA
ATOM     30  C   UNL     1     -13.819  11.499  15.328  0.00  0.00    +0.000 C 
ENDBRANCH  23  29
BRANCH  26  31
ATOM     31  O   UNL     1     -15.258   3.734  23.325  0.00  0.00    +0.000 OA
ATOM     32  C   UNL     1     -13.901   3.323  23.481  0.00  0.00    +0.000 C 
ENDBRANCH  26  31
BRANCH  10  34
ATOM     33  N   UNL     1     -19.767   3.291  17.000  0.00  0.00    +0.000 NA
ATOM     34  C   UNL     1     -18.760   3.765  16.670  0.00  0.00    +0.000 C 
ENDBRANCH  10  34
BRANCH  11  35
ATOM     35  C   UNL     1     -14.991   3.371  17.929  0.00  0.00    +0.000 C 
BRANCH  35  36
ATOM     36  O   UNL     1     -14.197   4.250  17.105  0.00  0.00    +0.000 OA
BRANCH  36  38
ATOM     37  O   UNL     1     -11.987   3.658  16.998  0.00  0.00    +0.000 OA
ATOM     38  C   UNL     1     -12.893   4.335  17.456  0.00  0.00    +0.000 C 
BRANCH  38  39
ATOM     39  C   UNL     1     -12.675   5.474  18.394  0.00  0.00    +0.000 C 
ATOM     40  C   UNL     1     -12.826   6.819  17.740  0.00  0.00    +0.000 C 
ATOM     41  C   UNL     1     -12.358   5.349  19.698  0.00  0.00    +0.000 C 
ATOM     42  C   UNL     1     -12.074   4.099  20.469  0.00  0.00    +0.000 C 
ENDBRANCH  38  39
ENDBRANCH  36  38
ENDBRANCH  35  36
ENDBRANCH  11  35
TORSDOF 7
ENDMDL
MODEL 5
REMARK VINA RESULT:      -4.3     26.431     30.404
REMARK  Name = 
REMARK  14 active torsions:
REMARK  status: ('A' for Active; 'I' for Inactive)
REMARK    1  A    between atoms: O_1  and  C_24
REMARK    2  A    between atoms: O_1  and  C_36
REMARK    3  A    between atoms: O_4  and  C_30
REMARK    4  A    between atoms: O_4  and  C_37
REMARK    5  A    between atoms: O_7  and  C_33
REMARK    6  A    between atoms: O_7  and  C_38
REMARK    7  A    between atoms: N_10  and  C_23
REMARK    8  A    between atoms: C_15  and  C_26
REMARK    9  A    between atoms: C_16  and  C_24
REMARK   10  A    between atoms: C_31  and  C_34
REMARK   11  A    between atoms: C_32  and  C_35
REMARK   12  A    between atoms: C_36  and  C_39
REMARK   13  A    between atoms: C_39  and  C_40
REMARK   14  A    between atoms: C_41  and  C_42
REMARK                            x       y       z     vdW  Elec       q    Type
REMARK                         _______ _______ _______ _____ _____    ______ ____
ROOT
ATOM      1  O   UNL     1     -11.459 -15.985   1.307  0.00  0.00    +0.000 OA
ATOM      2  O   UNL     1      -9.349 -15.363   6.148  0.00  0.00    +0.000 OA
ATOM      3  O   UNL     1      -8.574 -17.390  -2.076  0.00  0.00    +0.000 OA
ATOM      4  O   UNL     1      -3.824 -15.480  -0.639  0.00  0.00    +0.000 OA
ATOM      5  N   UNL     1      -7.197 -14.212   1.636  0.00  0.00    +0.000 NA
ATOM      6  N   UNL     1      -9.480 -12.421   2.089  0.00  0.00    +0.000 NA
ATOM      7  C   UNL     1      -8.402 -14.221   0.767  0.00  0.00    +0.000 C 
ATOM      8  C   UNL     1      -9.707 -13.800   1.568  0.00  0.00    +0.000 C 
ATOM      9  C   UNL     1      -8.366 -12.459   3.071  0.00  0.00    +0.000 C 
ATOM     10  C   UNL     1      -7.038 -12.906   2.351  0.00  0.00    +0.000 C 
ATOM     11  C   UNL     1      -5.936 -14.709   1.018  0.00  0.00    +0.000 C 
ATOM     12  C   UNL     1      -8.580 -15.596   0.088  0.00  0.00    +0.000 C 
ATOM     13  C   UNL     1      -8.680 -13.386   4.278  0.00  0.00    +0.000 C 
ATOM     14  C   UNL     1     -10.007 -14.777   2.697  0.00  0.00    +0.000 C 
ATOM     15  C   UNL     1      -9.515 -14.593   3.931  0.00  0.00    +0.000 C 
ATOM     16  C   UNL     1      -6.127 -15.617  -0.187  0.00  0.00    +0.000 C 
ATOM     17  C   UNL     1      -7.326 -16.043  -0.601  0.00  0.00    +0.000 C 
ATOM     18  C   UNL     1     -10.692 -11.777   2.586  0.00  0.00    +0.000 C 
ATOM     19  C   UNL     1     -10.914 -15.910   2.404  0.00  0.00    +0.000 C 
ATOM     20  C   UNL     1      -9.798 -15.549   5.022  0.00  0.00    +0.000 C 
ATOM     21  C   UNL     1      -7.471 -16.968  -1.746  0.00  0.00    +0.000 C 
ATOM     22  C   UNL     1      -4.901 -15.983  -0.944  0.00  0.00    +0.000 C 
ATOM     23  C   UNL     1     -11.130 -16.934   3.478  0.00  0.00    +0.000 C 
ATOM     24  C   UNL     1     -10.623 -16.744   4.707  0.00  0.00    +0.000 C 
ATOM     25  C   UNL     1      -6.242 -17.397  -2.458  0.00  0.00    +0.000 C 
ATOM     26  C   UNL     1      -5.031 -16.957  -2.077  0.00  0.00    +0.000 C 
ATOM     27  C   UNL     1     -10.834 -17.686   5.857  0.00  0.00    +0.000 C 
ATOM     28  C   UNL     1      -6.470 -18.340  -3.604  0.00  0.00    +0.000 C 
ENDROOT
BRANCH  23  29
ATOM     29  O   UNL     1     -11.909 -18.062   3.241  0.00  0.00    +0.000 OA
ATOM     30  C   UNL     1     -13.317 -17.867   3.343  0.00  0.00    +0.000 C 
ENDBRANCH  23  29
BRANCH  26  31
ATOM     31  O   UNL     1      -3.910 -17.368  -2.790  0.00  0.00    +0.000 OA
ATOM     32  C   UNL     1      -3.506 -16.489  -3.838  0.00  0.00    +0.000 C 
ENDBRANCH  26  31
BRANCH  10  34
ATOM     33  N   UNL     1      -6.231 -10.894   0.822  0.00  0.00    +0.000 NA
ATOM     34  C   UNL     1      -6.564 -11.783   1.490  0.00  0.00    +0.000 C 
ENDBRANCH  10  34
BRANCH  11  35
ATOM     35  C   UNL     1      -5.136 -15.458   2.125  0.00  0.00    +0.000 C 
BRANCH  35  36
ATOM     36  O   UNL     1      -6.052 -16.228   2.932  0.00  0.00    +0.000 OA
BRANCH  36  38
ATOM     37  O   UNL     1      -4.892 -17.945   3.910  0.00  0.00    +0.000 OA
ATOM     38  C   UNL     1      -5.706 -17.526   3.103  0.00  0.00    +0.000 C 
BRANCH  38  39
ATOM     39  C   UNL     1      -6.558 -18.411   2.259  0.00  0.00    +0.000 C 
ATOM     40  C   UNL     1      -7.999 -18.430   2.685  0.00  0.00    +0.000 C 
ATOM     41  C   UNL     1      -6.115 -19.148   1.221  0.00  0.00    +0.000 C 
ATOM     42  C   UNL     1      -4.710 -19.318   0.737  0.00  0.00    +0.000 C 
ENDBRANCH  38  39
ENDBRANCH  36  38
ENDBRANCH  35  36
ENDBRANCH  11  35
TORSDOF 7
ENDMDL
MODEL 6
REMARK VINA RESULT:      -4.2      2.736      6.862
REMARK  Name = 
REMARK  14 active torsions:
REMARK  status: ('A' for Active; 'I' for Inactive)
REMARK    1  A    between atoms: O_1  and  C_24
REMARK    2  A    between atoms: O_1  and  C_36
REMARK    3  A    between atoms: O_4  and  C_30
REMARK    4  A    between atoms: O_4  and  C_37
REMARK    5  A    between atoms: O_7  and  C_33
REMARK    6  A    between atoms: O_7  and  C_38
REMARK    7  A    between atoms: N_10  and  C_23
REMARK    8  A    between atoms: C_15  and  C_26
REMARK    9  A    between atoms: C_16  and  C_24
REMARK   10  A    between atoms: C_31  and  C_34
REMARK   11  A    between atoms: C_32  and  C_35
REMARK   12  A    between atoms: C_36  and  C_39
REMARK   13  A    between atoms: C_39  and  C_40
REMARK   14  A    between atoms: C_41  and  C_42
REMARK                            x       y       z     vdW  Elec       q    Type
REMARK                         _______ _______ _______ _____ _____    ______ ____
ROOT
ATOM      1  O   UNL     1     -11.310  -3.384  31.452  0.00  0.00    +0.000 OA
ATOM      2  O   UNL     1      -6.351  -4.860  32.676  0.00  0.00    +0.000 OA
ATOM      3  O   UNL     1     -13.759  -6.291  28.750  0.00  0.00    +0.000 OA
ATOM      4  O   UNL     1     -10.091  -8.739  25.780  0.00  0.00    +0.000 OA
ATOM      5  N   UNL     1      -8.777  -5.488  28.200  0.00  0.00    +0.000 NA
ATOM      6  N   UNL     1      -8.341  -2.619  28.656  0.00  0.00    +0.000 NA
ATOM      7  C   UNL     1      -9.898  -4.529  28.379  0.00  0.00    +0.000 C 
ATOM      8  C   UNL     1      -9.486  -3.312  29.313  0.00  0.00    +0.000 C 
ATOM      9  C   UNL     1      -7.180  -3.545  28.620  0.00  0.00    +0.000 C 
ATOM     10  C   UNL     1      -7.529  -4.801  27.737  0.00  0.00    +0.000 C 
ATOM     11  C   UNL     1      -9.089  -6.732  27.443  0.00  0.00    +0.000 C 
ATOM     12  C   UNL     1     -11.155  -5.247  28.915  0.00  0.00    +0.000 C 
ATOM     13  C   UNL     1      -6.732  -3.978  30.044  0.00  0.00    +0.000 C 
ATOM     14  C   UNL     1      -9.120  -3.783  30.713  0.00  0.00    +0.000 C 
ATOM     15  C   UNL     1      -7.860  -4.107  31.036  0.00  0.00    +0.000 C 
ATOM     16  C   UNL     1     -10.562  -7.107  27.404  0.00  0.00    +0.000 C 
ATOM     17  C   UNL     1     -11.504  -6.449  28.092  0.00  0.00    +0.000 C 
ATOM     18  C   UNL     1      -8.042  -1.310  29.228  0.00  0.00    +0.000 C 
ATOM     19  C   UNL     1     -10.195  -3.813  31.732  0.00  0.00    +0.000 C 
ATOM     20  C   UNL     1      -7.510  -4.575  32.394  0.00  0.00    +0.000 C 
ATOM     21  C   UNL     1     -12.921  -6.873  28.071  0.00  0.00    +0.000 C 
ATOM     22  C   UNL     1     -10.938  -8.231  26.507  0.00  0.00    +0.000 C 
ATOM     23  C   UNL     1      -9.868  -4.374  33.084  0.00  0.00    +0.000 C 
ATOM     24  C   UNL     1      -8.604  -4.707  33.391  0.00  0.00    +0.000 C 
ATOM     25  C   UNL     1     -13.288  -8.044  27.236  0.00  0.00    +0.000 C 
ATOM     26  C   UNL     1     -12.363  -8.699  26.516  0.00  0.00    +0.000 C 
ATOM     27  C   UNL     1      -8.175  -5.224  34.733  0.00  0.00    +0.000 C 
ATOM     28  C   UNL     1     -14.742  -8.416  27.274  0.00  0.00    +0.000 C 
ENDROOT
BRANCH  23  29
ATOM     29  O   UNL     1     -10.851  -4.501  34.059  0.00  0.00    +0.000 OA
ATOM     30  C   UNL     1     -11.665  -5.667  33.962  0.00  0.00    +0.000 C 
ENDBRANCH  23  29
BRANCH  26  31
ATOM     31  O   UNL     1     -12.760  -9.775  25.730  0.00  0.00    +0.000 OA
ATOM     32  C   UNL     1     -12.759 -11.038  26.393  0.00  0.00    +0.000 C 
ENDBRANCH  26  31
BRANCH  10  34
ATOM     33  N   UNL     1      -7.530  -4.040  25.196  0.00  0.00    +0.000 NA
ATOM     34  C   UNL     1      -7.548  -4.383  26.304  0.00  0.00    +0.000 C 
ENDBRANCH  10  34
BRANCH  11  35
ATOM     35  C   UNL     1      -8.263  -7.888  28.082  0.00  0.00    +0.000 C 
BRANCH  35  36
ATOM     36  O   UNL     1      -8.812  -8.202  29.379  0.00  0.00    +0.000 OA
BRANCH  36  38
ATOM     37  O   UNL     1      -7.817  -9.943  30.484  0.00  0.00    +0.000 OA
ATOM     38  C   UNL     1      -8.685  -9.496  29.753  0.00  0.00    +0.000 C 
BRANCH  38  39
ATOM     39  C   UNL     1      -9.838 -10.301  29.258  0.00  0.00    +0.000 C 
ATOM     40  C   UNL     1      -9.460 -11.286  28.188  0.00  0.00    +0.000 C 
ATOM     41  C   UNL     1     -11.109 -10.177  29.692  0.00  0.00    +0.000 C 
ATOM     42  C   UNL     1     -11.664  -9.187  30.667  0.00  0.00    +0.000 C 
ENDBRANCH  38  39
ENDBRANCH  36  38
ENDBRANCH  35  36
ENDBRANCH  11  35
TORSDOF 7
ENDMDL
MODEL 7
REMARK VINA RESULT:      -4.2     30.640     35.256
REMARK  Name = 
REMARK  14 active torsions:
REMARK  status: ('A' for Active; 'I' for Inactive)
REMARK    1  A    between atoms: O_1  and  C_24
REMARK    2  A    between atoms: O_1  and  C_36
REMARK    3  A    between atoms: O_4  and  C_30
REMARK    4  A    between atoms: O_4  and  C_37
REMARK    5  A    between atoms: O_7  and  C_33
REMARK    6  A    between atoms: O_7  and  C_38
REMARK    7  A    between atoms: N_10  and  C_23
REMARK    8  A    between atoms: C_15  and  C_26
REMARK    9  A    between atoms: C_16  and  C_24
REMARK   10  A    between atoms: C_31  and  C_34
REMARK   11  A    between atoms: C_32  and  C_35
REMARK   12  A    between atoms: C_36  and  C_39
REMARK   13  A    between atoms: C_39  and  C_40
REMARK   14  A    between atoms: C_41  and  C_42
REMARK                            x       y       z     vdW  Elec       q    Type
REMARK                         _______ _______ _______ _____ _____    ______ ____
ROOT
ATOM      1  O   UNL     1       0.793  -6.988  -6.437  0.00  0.00    +0.000 OA
ATOM      2  O   UNL     1      -1.609  -8.814  -2.060  0.00  0.00    +0.000 OA
ATOM      3  O   UNL     1       1.231  -2.361  -6.817  0.00  0.00    +0.000 OA
ATOM      4  O   UNL     1      -2.932  -0.417  -4.141  0.00  0.00    +0.000 OA
ATOM      5  N   UNL     1      -2.822  -4.630  -4.768  0.00  0.00    +0.000 NA
ATOM      6  N   UNL     1      -3.356  -7.012  -6.401  0.00  0.00    +0.000 NA
ATOM      7  C   UNL     1      -2.085  -4.916  -6.026  0.00  0.00    +0.000 C 
ATOM      8  C   UNL     1      -1.968  -6.477  -6.296  0.00  0.00    +0.000 C 
ATOM      9  C   UNL     1      -4.029  -6.853  -5.086  0.00  0.00    +0.000 C 
ATOM     10  C   UNL     1      -4.150  -5.323  -4.733  0.00  0.00    +0.000 C 
ATOM     11  C   UNL     1      -2.884  -3.201  -4.353  0.00  0.00    +0.000 C 
ATOM     12  C   UNL     1      -0.696  -4.243  -6.015  0.00  0.00    +0.000 C 
ATOM     13  C   UNL     1      -3.297  -7.626  -3.955  0.00  0.00    +0.000 C 
ATOM     14  C   UNL     1      -1.186  -7.176  -5.193  0.00  0.00    +0.000 C 
ATOM     15  C   UNL     1      -1.798  -7.681  -4.112  0.00  0.00    +0.000 C 
ATOM     16  C   UNL     1      -1.797  -2.314  -4.940  0.00  0.00    +0.000 C 
ATOM     17  C   UNL     1      -0.785  -2.786  -5.677  0.00  0.00    +0.000 C 
ATOM     18  C   UNL     1      -3.423  -8.365  -6.944  0.00  0.00    +0.000 C 
ATOM     19  C   UNL     1       0.274  -7.337  -5.381  0.00  0.00    +0.000 C 
ATOM     20  C   UNL     1      -1.034  -8.349  -3.038  0.00  0.00    +0.000 C 
ATOM     21  C   UNL     1       0.284  -1.901  -6.189  0.00  0.00    +0.000 C 
ATOM     22  C   UNL     1      -1.932  -0.853  -4.702  0.00  0.00    +0.000 C 
ATOM     23  C   UNL     1       1.068  -7.929  -4.255  0.00  0.00    +0.000 C 
ATOM     24  C   UNL     1       0.444  -8.421  -3.172  0.00  0.00    +0.000 C 
ATOM     25  C   UNL     1       0.194  -0.451  -5.889  0.00  0.00    +0.000 C 
ATOM     26  C   UNL     1      -0.829   0.047  -5.176  0.00  0.00    +0.000 C 
ATOM     27  C   UNL     1       1.151  -9.079  -2.023  0.00  0.00    +0.000 C 
ATOM     28  C   UNL     1       1.319   0.379  -6.436  0.00  0.00    +0.000 C 
ENDROOT
BRANCH  23  29
ATOM     29  O   UNL     1       2.452  -8.036  -4.338  0.00  0.00    +0.000 OA
ATOM     30  C   UNL     1       2.937  -9.161  -5.066  0.00  0.00    +0.000 C 
ENDBRANCH  23  29
BRANCH  26  31
ATOM     31  O   UNL     1      -0.882   1.417  -4.940  0.00  0.00    +0.000 OA
ATOM     32  C   UNL     1      -1.602   2.169  -5.915  0.00  0.00    +0.000 C 
ENDBRANCH  26  31
BRANCH  10  34
ATOM     33  N   UNL     1      -5.977  -4.248  -6.328  0.00  0.00    +0.000 NA
ATOM     34  C   UNL     1      -5.189  -4.712  -5.613  0.00  0.00    +0.000 C 
ENDBRANCH  10  34
BRANCH  11  35
ATOM     35  C   UNL     1      -2.818  -3.163  -2.796  0.00  0.00    +0.000 C 
BRANCH  35  36
ATOM     36  O   UNL     1      -4.137  -2.898  -2.273  0.00  0.00    +0.000 OA
BRANCH  36  38
ATOM     37  O   UNL     1      -3.560  -1.375  -0.662  0.00  0.00    +0.000 OA
ATOM     38  C   UNL     1      -4.158  -2.375  -1.025  0.00  0.00    +0.000 C 
BRANCH  38  39
ATOM     39  C   UNL     1      -5.130  -3.109  -0.164  0.00  0.00    +0.000 C 
ATOM     40  C   UNL     1      -4.825  -4.576  -0.043  0.00  0.00    +0.000 C 
ATOM     41  C   UNL     1      -6.194  -2.551   0.447  0.00  0.00    +0.000 C 
ATOM     42  C   UNL     1      -6.689  -1.143   0.347  0.00  0.00    +0.000 C 
ENDBRANCH  38  39
ENDBRANCH  36  38
ENDBRANCH  35  36
ENDBRANCH  11  35
TORSDOF 7
ENDMDL
MODEL 8
REMARK VINA RESULT:      -4.2     12.134     14.929
REMARK  Name = 
REMARK  14 active torsions:
REMARK  status: ('A' for Active; 'I' for Inactive)
REMARK    1  A    between atoms: O_1  and  C_24
REMARK    2  A    between atoms: O_1  and  C_36
REMARK    3  A    between atoms: O_4  and  C_30
REMARK    4  A    between atoms: O_4  and  C_37
REMARK    5  A    between atoms: O_7  and  C_33
REMARK    6  A    between atoms: O_7  and  C_38
REMARK    7  A    between atoms: N_10  and  C_23
REMARK    8  A    between atoms: C_15  and  C_26
REMARK    9  A    between atoms: C_16  and  C_24
REMARK   10  A    between atoms: C_31  and  C_34
REMARK   11  A    between atoms: C_32  and  C_35
REMARK   12  A    between atoms: C_36  and  C_39
REMARK   13  A    between atoms: C_39  and  C_40
REMARK   14  A    between atoms: C_41  and  C_42
REMARK                            x       y       z     vdW  Elec       q    Type
REMARK                         _______ _______ _______ _____ _____    ______ ____
ROOT
ATOM      1  O   UNL     1      -2.974 -16.406  20.279  0.00  0.00    +0.000 OA
ATOM      2  O   UNL     1      -4.732 -20.877  18.002  0.00  0.00    +0.000 OA
ATOM      3  O   UNL     1      -3.803 -15.906  24.840  0.00  0.00    +0.000 OA
ATOM      4  O   UNL     1      -8.297 -18.625  25.671  0.00  0.00    +0.000 OA
ATOM      5  N   UNL     1      -7.066 -18.097  21.626  0.00  0.00    +0.000 NA
ATOM      6  N   UNL     1      -6.963 -16.533  19.142  0.00  0.00    +0.000 NA
ATOM      7  C   UNL     1      -6.297 -16.830  21.512  0.00  0.00    +0.000 C 
ATOM      8  C   UNL     1      -5.769 -16.595  20.033  0.00  0.00    +0.000 C 
ATOM      9  C   UNL     1      -7.635 -17.858  19.152  0.00  0.00    +0.000 C 
ATOM     10  C   UNL     1      -8.157 -18.177  20.603  0.00  0.00    +0.000 C 
ATOM     11  C   UNL     1      -7.505 -18.479  22.997  0.00  0.00    +0.000 C 
ATOM     12  C   UNL     1      -5.141 -16.795  22.533  0.00  0.00    +0.000 C 
ATOM     13  C   UNL     1      -6.705 -18.991  18.637  0.00  0.00    +0.000 C 
ATOM     14  C   UNL     1      -4.811 -17.697  19.602  0.00  0.00    +0.000 C 
ATOM     15  C   UNL     1      -5.249 -18.803  18.982  0.00  0.00    +0.000 C 
ATOM     16  C   UNL     1      -6.705 -17.848  24.126  0.00  0.00    +0.000 C 
ATOM     17  C   UNL     1      -5.614 -17.100  23.922  0.00  0.00    +0.000 C 
ATOM     18  C   UNL     1      -6.670 -16.024  17.805  0.00  0.00    +0.000 C 
ATOM     19  C   UNL     1      -3.364 -17.481  19.834  0.00  0.00    +0.000 C 
ATOM     20  C   UNL     1      -4.318 -19.876  18.575  0.00  0.00    +0.000 C 
ATOM     21  C   UNL     1      -4.830 -16.544  25.047  0.00  0.00    +0.000 C 
ATOM     22  C   UNL     1      -7.224 -18.053  25.503  0.00  0.00    +0.000 C 
ATOM     23  C   UNL     1      -2.424 -18.604  19.510  0.00  0.00    +0.000 C 
ATOM     24  C   UNL     1      -2.877 -19.711  18.900  0.00  0.00    +0.000 C 
ATOM     25  C   UNL     1      -5.303 -16.811  26.428  0.00  0.00    +0.000 C 
ATOM     26  C   UNL     1      -6.412 -17.534  26.652  0.00  0.00    +0.000 C 
ATOM     27  C   UNL     1      -2.002 -20.860  18.489  0.00  0.00    +0.000 C 
ATOM     28  C   UNL     1      -4.451 -16.220  27.513  0.00  0.00    +0.000 C 
ENDROOT
BRANCH  23  29
ATOM     29  O   UNL     1      -1.064 -18.493  19.776  0.00  0.00    +0.000 OA
ATOM     30  C   UNL     1      -0.307 -17.769  18.810  0.00  0.00    +0.000 C 
ENDBRANCH  23  29
BRANCH  26  31
ATOM     31  O   UNL     1      -6.828 -17.738  27.964  0.00  0.00    +0.000 OA
ATOM     32  C   UNL     1      -6.481 -19.007  28.516  0.00  0.00    +0.000 C 
ENDBRANCH  26  31
BRANCH  10  34
ATOM     33  N   UNL     1     -10.230 -16.597  21.099  0.00  0.00    +0.000 NA
ATOM     34  C   UNL     1      -9.335 -17.306  20.886  0.00  0.00    +0.000 C 
ENDBRANCH  10  34
BRANCH  11  35
ATOM     35  C   UNL     1      -7.428 -20.032  23.096  0.00  0.00    +0.000 C 
BRANCH  35  36
ATOM     36  O   UNL     1      -6.044 -20.435  23.160  0.00  0.00    +0.000 OA
BRANCH  36  38
ATOM     37  O   UNL     1      -6.271 -21.448  21.118  0.00  0.00    +0.000 OA
ATOM     38  C   UNL     1      -5.589 -21.083  22.062  0.00  0.00    +0.000 C 
BRANCH  38  39
ATOM     39  C   UNL     1      -4.102 -21.179  22.087  0.00  0.00    +0.000 C 
ATOM     40  C   UNL     1      -3.440 -19.988  22.721  0.00  0.00    +0.000 C 
ATOM     41  C   UNL     1      -3.387 -22.207  21.588  0.00  0.00    +0.000 C 
ATOM     42  C   UNL     1      -3.881 -23.407  20.844  0.00  0.00    +0.000 C 
ENDBRANCH  38  39
ENDBRANCH  36  38
ENDBRANCH  35  36
ENDBRANCH  11  35
TORSDOF 7
ENDMDL
MODEL 9
REMARK VINA RESULT:      -4.1     17.600     20.538
REMARK  Name = 
REMARK  14 active torsions:
REMARK  status: ('A' for Active; 'I' for Inactive)
REMARK    1  A    between atoms: O_1  and  C_24
REMARK    2  A    between atoms: O_1  and  C_36
REMARK    3  A    between atoms: O_4  and  C_30
REMARK    4  A    between atoms: O_4  and  C_37
REMARK    5  A    between atoms: O_7  and  C_33
REMARK    6  A    between atoms: O_7  and  C_38
REMARK    7  A    between atoms: N_10  and  C_23
REMARK    8  A    between atoms: C_15  and  C_26
REMARK    9  A    between atoms: C_16  and  C_24
REMARK   10  A    between atoms: C_31  and  C_34
REMARK   11  A    between atoms: C_32  and  C_35
REMARK   12  A    between atoms: C_36  and  C_39
REMARK   13  A    between atoms: C_39  and  C_40
REMARK   14  A    between atoms: C_41  and  C_42
REMARK                            x       y       z     vdW  Elec       q    Type
REMARK                         _______ _______ _______ _____ _____    ______ ____
ROOT
ATOM      1  O   UNL     1       5.344 -14.983  19.625  0.00  0.00    +0.000 OA
ATOM      2  O   UNL     1       0.075 -14.874  18.922  0.00  0.00    +0.000 OA
ATOM      3  O   UNL     1       7.951 -13.080  16.259  0.00  0.00    +0.000 OA
ATOM      4  O   UNL     1       5.080 -13.741  11.833  0.00  0.00    +0.000 OA
ATOM      5  N   UNL     1       3.680 -15.674  15.362  0.00  0.00    +0.000 NA
ATOM      6  N   UNL     1       3.670 -17.936  17.236  0.00  0.00    +0.000 NA
ATOM      7  C   UNL     1       4.839 -15.990  16.237  0.00  0.00    +0.000 C 
ATOM      8  C   UNL     1       4.380 -16.674  17.595  0.00  0.00    +0.000 C 
ATOM      9  C   UNL     1       2.434 -17.592  16.490  0.00  0.00    +0.000 C 
ATOM     10  C   UNL     1       2.810 -16.874  15.140  0.00  0.00    +0.000 C 
ATOM     11  C   UNL     1       3.984 -14.919  14.115  0.00  0.00    +0.000 C 
ATOM     12  C   UNL     1       5.687 -14.728  16.503  0.00  0.00    +0.000 C 
ATOM     13  C   UNL     1       1.466 -16.714  17.331  0.00  0.00    +0.000 C 
ATOM     14  C   UNL     1       3.489 -15.749  18.412  0.00  0.00    +0.000 C 
ATOM     15  C   UNL     1       2.155 -15.757  18.270  0.00  0.00    +0.000 C 
ATOM     16  C   UNL     1       5.287 -14.136  14.140  0.00  0.00    +0.000 C 
ATOM     17  C   UNL     1       6.054 -14.026  15.232  0.00  0.00    +0.000 C 
ATOM     18  C   UNL     1       3.453 -18.828  18.371  0.00  0.00    +0.000 C 
ATOM     19  C   UNL     1       4.139 -14.878  19.417  0.00  0.00    +0.000 C 
ATOM     20  C   UNL     1       1.293 -14.849  19.056  0.00  0.00    +0.000 C 
ATOM     21  C   UNL     1       7.290 -13.213  15.235  0.00  0.00    +0.000 C 
ATOM     22  C   UNL     1       5.719 -13.522  12.857  0.00  0.00    +0.000 C 
ATOM     23  C   UNL     1       3.282 -13.889  20.151  0.00  0.00    +0.000 C 
ATOM     24  C   UNL     1       1.949 -13.899  19.992  0.00  0.00    +0.000 C 
ATOM     25  C   UNL     1       7.685 -12.535  13.975  0.00  0.00    +0.000 C 
ATOM     26  C   UNL     1       6.944 -12.658  12.861  0.00  0.00    +0.000 C 
ATOM     27  C   UNL     1       1.010 -12.985  20.724  0.00  0.00    +0.000 C 
ATOM     28  C   UNL     1       8.945 -11.724  14.060  0.00  0.00    +0.000 C 
ENDROOT
BRANCH  23  29
ATOM     29  O   UNL     1       3.844 -12.991  21.052  0.00  0.00    +0.000 OA
ATOM     30  C   UNL     1       4.094 -13.506  22.356  0.00  0.00    +0.000 C 
ENDBRANCH  23  29
BRANCH  26  31
ATOM     31  O   UNL     1       7.367 -12.023  11.698  0.00  0.00    +0.000 OA
ATOM     32  C   UNL     1       6.744 -10.767  11.436  0.00  0.00    +0.000 C 
ENDBRANCH  26  31
BRANCH  10  34
ATOM     33  N   UNL     1       3.793 -18.695  13.479  0.00  0.00    +0.000 NA
ATOM     34  C   UNL     1       3.382 -17.888  14.206  0.00  0.00    +0.000 C 
ENDBRANCH  10  34
BRANCH  11  35
ATOM     35  C   UNL     1       2.789 -13.954  13.850  0.00  0.00    +0.000 C 
BRANCH  35  36
ATOM     36  O   UNL     1       2.319 -13.427  15.109  0.00  0.00    +0.000 OA
BRANCH  36  38
ATOM     37  O   UNL     1       2.657 -11.286  14.370  0.00  0.00    +0.000 OA
ATOM     38  C   UNL     1       2.494 -12.095  15.269  0.00  0.00    +0.000 C 
BRANCH  38  39
ATOM     39  C   UNL     1       2.327 -11.711  16.700  0.00  0.00    +0.000 C 
ATOM     40  C   UNL     1       0.894 -11.719  17.153  0.00  0.00    +0.000 C 
ATOM     41  C   UNL     1       3.333 -11.370  17.529  0.00  0.00    +0.000 C 
ATOM     42  C   UNL     1       4.786 -11.214  17.211  0.00  0.00    +0.000 C 
ENDBRANCH  38  39
ENDBRANCH  36  38
ENDBRANCH  35  36
ENDBRANCH  11  35
TORSDOF 7
ENDMDL
