MODEL 1
REMARK VINA RESULT:      -5.3      0.000      0.000
REMARK  Name = Resveratrol.pdbqt.pdb
REMARK  5 active torsions:
REMARK  status: ('A' for Active; 'I' for Inactive)
REMARK    1  A    between atoms: C_1  and  C_11
REMARK    2  A    between atoms: C_4  and  O_7
REMARK    3  A    between atoms: C_5  and  O_9
REMARK    4  A    between atoms: C_12  and  C_13
REMARK    5  A    between atoms: C_18  and  O_19
REMARK                            x       y       z     vdW  Elec       q    Type
REMARK                         _______ _______ _______ _____ _____    ______ ____
ROOT
ATOM      1  C   UNL     1       7.270 -10.216  10.862  0.00  0.00    +0.000 A 
ATOM      2  C   UNL     1       8.628 -10.489  11.021  0.00  0.00    +0.000 A 
ATOM      3  C   UNL     1       6.335 -11.249  10.923  0.00  0.00    +0.000 A 
ATOM      4  C   UNL     1       6.769 -12.553  11.145  0.00  0.00    +0.000 A 
ATOM      5  C   UNL     1       9.041 -11.799  11.241  0.00  0.00    +0.000 A 
ATOM      6  C   UNL     1       8.121 -12.840  11.306  0.00  0.00    +0.000 A 
ENDROOT
BRANCH   4   7
ATOM      7  O   UNL     1       5.877 -13.584  11.210  0.00  0.00    +0.000 OA
ATOM      8  H   UNL     1       6.160 -14.271  10.581  0.00  0.00    +0.000 HD
ENDBRANCH   4   7
BRANCH   5   9
ATOM      9  O   UNL     1      10.376 -12.042  11.394  0.00  0.00    +0.000 OA
ATOM     10  H   UNL     1      10.558 -12.940  11.063  0.00  0.00    +0.000 HD
ENDBRANCH   5   9
BRANCH   1  11
ATOM     11  C   UNL     1       6.834  -8.878  10.634  0.00  0.00    +0.000 C 
ATOM     12  C   UNL     1       6.466  -7.750  10.442  0.00  0.00    +0.000 C 
BRANCH  12  13
ATOM     13  C   UNL     1       6.030  -6.412  10.216  0.00  0.00    +0.000 A 
ATOM     14  C   UNL     1       6.017  -5.497  11.268  0.00  0.00    +0.000 A 
ATOM     15  C   UNL     1       5.615  -6.021   8.943  0.00  0.00    +0.000 A 
ATOM     16  C   UNL     1       5.592  -4.190  11.050  0.00  0.00    +0.000 A 
ATOM     17  C   UNL     1       5.189  -4.715   8.720  0.00  0.00    +0.000 A 
ATOM     18  C   UNL     1       5.180  -3.809   9.776  0.00  0.00    +0.000 A 
BRANCH  18  19
ATOM     19  O   UNL     1       4.758  -2.535   9.533  0.00  0.00    +0.000 OA
ATOM     20  H   UNL     1       4.120  -2.559   8.798  0.00  0.00    +0.000 HD
ENDBRANCH  18  19
ENDBRANCH  12  13
ENDBRANCH   1  11
TORSDOF 5
ENDMDL
MODEL 2
REMARK VINA RESULT:      -5.2      3.509      7.677
REMARK  Name = Resveratrol.pdbqt.pdb
REMARK  5 active torsions:
REMARK  status: ('A' for Active; 'I' for Inactive)
REMARK    1  A    between atoms: C_1  and  C_11
REMARK    2  A    between atoms: C_4  and  O_7
REMARK    3  A    between atoms: C_5  and  O_9
REMARK    4  A    between atoms: C_12  and  C_13
REMARK    5  A    between atoms: C_18  and  O_19
REMARK                            x       y       z     vdW  Elec       q    Type
REMARK                         _______ _______ _______ _____ _____    ______ ____
ROOT
ATOM      1  C   UNL     1       5.281  -8.492  11.001  0.00  0.00    +0.000 A 
ATOM      2  C   UNL     1       5.170  -8.405   9.614  0.00  0.00    +0.000 A 
ATOM      3  C   UNL     1       5.890  -7.466  11.722  0.00  0.00    +0.000 A 
ATOM      4  C   UNL     1       6.386  -6.354  11.046  0.00  0.00    +0.000 A 
ATOM      5  C   UNL     1       5.672  -7.286   8.957  0.00  0.00    +0.000 A 
ATOM      6  C   UNL     1       6.282  -6.254   9.662  0.00  0.00    +0.000 A 
ENDROOT
BRANCH   4   7
ATOM      7  O   UNL     1       6.987  -5.335  11.726  0.00  0.00    +0.000 OA
ATOM      8  H   UNL     1       7.881  -5.626  11.981  0.00  0.00    +0.000 HD
ENDBRANCH   4   7
BRANCH   5   9
ATOM      9  O   UNL     1       5.552  -7.222   7.598  0.00  0.00    +0.000 OA
ATOM     10  H   UNL     1       4.640  -6.952   7.390  0.00  0.00    +0.000 HD
ENDBRANCH   5   9
BRANCH   1  11
ATOM     11  C   UNL     1       4.771  -9.634  11.686  0.00  0.00    +0.000 C 
ATOM     12  C   UNL     1       4.341 -10.596  12.263  0.00  0.00    +0.000 C 
BRANCH  12  13
ATOM     13  C   UNL     1       3.830 -11.738  12.948  0.00  0.00    +0.000 A 
ATOM     14  C   UNL     1       3.076 -11.571  14.110  0.00  0.00    +0.000 A 
ATOM     15  C   UNL     1       4.086 -13.017  12.455  0.00  0.00    +0.000 A 
ATOM     16  C   UNL     1       2.576 -12.684  14.780  0.00  0.00    +0.000 A 
ATOM     17  C   UNL     1       3.588 -14.132  13.123  0.00  0.00    +0.000 A 
ATOM     18  C   UNL     1       2.837 -13.957  14.280  0.00  0.00    +0.000 A 
BRANCH  18  19
ATOM     19  O   UNL     1       2.359 -15.065  14.917  0.00  0.00    +0.000 OA
ATOM     20  H   UNL     1       3.037 -15.762  14.866  0.00  0.00    +0.000 HD
ENDBRANCH  18  19
ENDBRANCH  12  13
ENDBRANCH   1  11
TORSDOF 5
ENDMDL
MODEL 3
REMARK VINA RESULT:      -4.9      1.711      2.485
REMARK  Name = Resveratrol.pdbqt.pdb
REMARK  5 active torsions:
REMARK  status: ('A' for Active; 'I' for Inactive)
REMARK    1  A    between atoms: C_1  and  C_11
REMARK    2  A    between atoms: C_4  and  O_7
REMARK    3  A    between atoms: C_5  and  O_9
REMARK    4  A    between atoms: C_12  and  C_13
REMARK    5  A    between atoms: C_18  and  O_19
REMARK                            x       y       z     vdW  Elec       q    Type
REMARK                         _______ _______ _______ _____ _____    ______ ____
ROOT
ATOM      1  C   UNL     1       6.143 -11.013  11.773  0.00  0.00    +0.000 A 
ATOM      2  C   UNL     1       6.360 -12.089  10.913  0.00  0.00    +0.000 A 
ATOM      3  C   UNL     1       6.054 -11.222  13.149  0.00  0.00    +0.000 A 
ATOM      4  C   UNL     1       6.183 -12.512  13.655  0.00  0.00    +0.000 A 
ATOM      5  C   UNL     1       6.486 -13.370  11.439  0.00  0.00    +0.000 A 
ATOM      6  C   UNL     1       6.400 -13.595  12.809  0.00  0.00    +0.000 A 
ENDROOT
BRANCH   4   7
ATOM      7  O   UNL     1       6.101 -12.746  14.997  0.00  0.00    +0.000 OA
ATOM      8  H   UNL     1       6.780 -13.402  15.234  0.00  0.00    +0.000 HD
ENDBRANCH   4   7
BRANCH   5   9
ATOM      9  O   UNL     1       6.698 -14.409  10.578  0.00  0.00    +0.000 OA
ATOM     10  H   UNL     1       6.649 -14.060   9.670  0.00  0.00    +0.000 HD
ENDBRANCH   5   9
BRANCH   1  11
ATOM     11  C   UNL     1       6.011  -9.695  11.245  0.00  0.00    +0.000 C 
ATOM     12  C   UNL     1       5.900  -8.584  10.802  0.00  0.00    +0.000 C 
BRANCH  12  13
ATOM     13  C   UNL     1       5.768  -7.265  10.275  0.00  0.00    +0.000 A 
ATOM     14  C   UNL     1       5.310  -7.080   8.971  0.00  0.00    +0.000 A 
ATOM     15  C   UNL     1       6.099  -6.164  11.065  0.00  0.00    +0.000 A 
ATOM     16  C   UNL     1       5.180  -5.794   8.455  0.00  0.00    +0.000 A 
ATOM     17  C   UNL     1       5.971  -4.876  10.552  0.00  0.00    +0.000 A 
ATOM     18  C   UNL     1       5.513  -4.701   9.250  0.00  0.00    +0.000 A 
BRANCH  18  19
ATOM     19  O   UNL     1       5.396  -3.430   8.770  0.00  0.00    +0.000 OA
ATOM     20  H   UNL     1       4.472  -3.146   8.880  0.00  0.00    +0.000 HD
ENDBRANCH  18  19
ENDBRANCH  12  13
ENDBRANCH   1  11
TORSDOF 5
ENDMDL
MODEL 4
REMARK VINA RESULT:      -4.9     22.337     23.476
REMARK  Name = Resveratrol.pdbqt.pdb
REMARK  5 active torsions:
REMARK  status: ('A' for Active; 'I' for Inactive)
REMARK    1  A    between atoms: C_1  and  C_11
REMARK    2  A    between atoms: C_4  and  O_7
REMARK    3  A    between atoms: C_5  and  O_9
REMARK    4  A    between atoms: C_12  and  C_13
REMARK    5  A    between atoms: C_18  and  O_19
REMARK                            x       y       z     vdW  Elec       q    Type
REMARK                         _______ _______ _______ _____ _____    ______ ____
ROOT
ATOM      1  C   UNL     1     -10.689  -7.794  26.734  0.00  0.00    +0.000 A 
ATOM      2  C   UNL     1     -12.060  -7.682  26.502  0.00  0.00    +0.000 A 
ATOM      3  C   UNL     1     -10.107  -9.049  26.908  0.00  0.00    +0.000 A 
ATOM      4  C   UNL     1     -10.906 -10.188  26.847  0.00  0.00    +0.000 A 
ATOM      5  C   UNL     1     -12.840  -8.832  26.446  0.00  0.00    +0.000 A 
ATOM      6  C   UNL     1     -12.274 -10.092  26.616  0.00  0.00    +0.000 A 
ENDROOT
BRANCH   4   7
ATOM      7  O   UNL     1     -10.363 -11.429  27.013  0.00  0.00    +0.000 OA
ATOM      8  H   UNL     1     -11.091 -12.070  27.097  0.00  0.00    +0.000 HD
ENDBRANCH   4   7
BRANCH   5   9
ATOM      9  O   UNL     1     -14.179  -8.698  26.217  0.00  0.00    +0.000 OA
ATOM     10  H   UNL     1     -14.562  -8.197  26.959  0.00  0.00    +0.000 HD
ENDBRANCH   5   9
BRANCH   1  11
ATOM     11  C   UNL     1      -9.879  -6.622  26.795  0.00  0.00    +0.000 C 
ATOM     12  C   UNL     1      -9.197  -5.634  26.846  0.00  0.00    +0.000 C 
BRANCH  12  13
ATOM     13  C   UNL     1      -8.387  -4.462  26.907  0.00  0.00    +0.000 A 
ATOM     14  C   UNL     1      -8.115  -3.869  28.140  0.00  0.00    +0.000 A 
ATOM     15  C   UNL     1      -7.869  -3.911  25.735  0.00  0.00    +0.000 A 
ATOM     16  C   UNL     1      -7.325  -2.725  28.203  0.00  0.00    +0.000 A 
ATOM     17  C   UNL     1      -7.079  -2.767  25.793  0.00  0.00    +0.000 A 
ATOM     18  C   UNL     1      -6.813  -2.182  27.027  0.00  0.00    +0.000 A 
BRANCH  18  19
ATOM     19  O   UNL     1      -6.036  -1.062  27.059  0.00  0.00    +0.000 OA
ATOM     20  H   UNL     1      -5.960  -0.716  26.153  0.00  0.00    +0.000 HD
ENDBRANCH  18  19
ENDBRANCH  12  13
ENDBRANCH   1  11
TORSDOF 5
ENDMDL
MODEL 5
REMARK VINA RESULT:      -4.8      1.919      7.663
REMARK  Name = Resveratrol.pdbqt.pdb
REMARK  5 active torsions:
REMARK  status: ('A' for Active; 'I' for Inactive)
REMARK    1  A    between atoms: C_1  and  C_11
REMARK    2  A    between atoms: C_4  and  O_7
REMARK    3  A    between atoms: C_5  and  O_9
REMARK    4  A    between atoms: C_12  and  C_13
REMARK    5  A    between atoms: C_18  and  O_19
REMARK                            x       y       z     vdW  Elec       q    Type
REMARK                         _______ _______ _______ _____ _____    ______ ____
ROOT
ATOM      1  C   UNL     1       5.938  -7.305  10.743  0.00  0.00    +0.000 A 
ATOM      2  C   UNL     1       5.498  -6.799   9.520  0.00  0.00    +0.000 A 
ATOM      3  C   UNL     1       6.375  -6.439  11.745  0.00  0.00    +0.000 A 
ATOM      4  C   UNL     1       6.366  -5.066  11.515  0.00  0.00    +0.000 A 
ATOM      5  C   UNL     1       5.498  -5.423   9.310  0.00  0.00    +0.000 A 
ATOM      6  C   UNL     1       5.930  -4.547  10.301  0.00  0.00    +0.000 A 
ENDROOT
BRANCH   4   7
ATOM      7  O   UNL     1       6.788  -4.195  12.477  0.00  0.00    +0.000 OA
ATOM      8  H   UNL     1       6.042  -3.612  12.706  0.00  0.00    +0.000 HD
ENDBRANCH   4   7
BRANCH   5   9
ATOM      9  O   UNL     1       5.062  -4.950   8.106  0.00  0.00    +0.000 OA
ATOM     10  H   UNL     1       5.393  -4.040   8.003  0.00  0.00    +0.000 HD
ENDBRANCH   5   9
BRANCH   1  11
ATOM     11  C   UNL     1       5.943  -8.713  10.970  0.00  0.00    +0.000 C 
ATOM     12  C   UNL     1       5.947  -9.899  11.161  0.00  0.00    +0.000 C 
BRANCH  12  13
ATOM     13  C   UNL     1       5.953 -11.307  11.387  0.00  0.00    +0.000 A 
ATOM     14  C   UNL     1       4.875 -11.911  12.035  0.00  0.00    +0.000 A 
ATOM     15  C   UNL     1       7.035 -12.076  10.961  0.00  0.00    +0.000 A 
ATOM     16  C   UNL     1       4.878 -13.285  12.256  0.00  0.00    +0.000 A 
ATOM     17  C   UNL     1       7.042 -13.451  11.181  0.00  0.00    +0.000 A 
ATOM     18  C   UNL     1       5.963 -14.044  11.828  0.00  0.00    +0.000 A 
BRANCH  18  19
ATOM     19  O   UNL     1       5.992 -15.393  12.032  0.00  0.00    +0.000 OA
ATOM     20  H   UNL     1       5.753 -15.834  11.198  0.00  0.00    +0.000 HD
ENDBRANCH  18  19
ENDBRANCH  12  13
ENDBRANCH   1  11
TORSDOF 5
ENDMDL
MODEL 6
REMARK VINA RESULT:      -4.7     20.787     22.938
REMARK  Name = Resveratrol.pdbqt.pdb
REMARK  5 active torsions:
REMARK  status: ('A' for Active; 'I' for Inactive)
REMARK    1  A    between atoms: C_1  and  C_11
REMARK    2  A    between atoms: C_4  and  O_7
REMARK    3  A    between atoms: C_5  and  O_9
REMARK    4  A    between atoms: C_12  and  C_13
REMARK    5  A    between atoms: C_18  and  O_19
REMARK                            x       y       z     vdW  Elec       q    Type
REMARK                         _______ _______ _______ _____ _____    ______ ____
ROOT
ATOM      1  C   UNL     1      -7.023   7.590   4.428  0.00  0.00    +0.000 A 
ATOM      2  C   UNL     1      -7.903   8.399   5.147  0.00  0.00    +0.000 A 
ATOM      3  C   UNL     1      -6.781   6.280   4.839  0.00  0.00    +0.000 A 
ATOM      4  C   UNL     1      -7.425   5.786   5.971  0.00  0.00    +0.000 A 
ATOM      5  C   UNL     1      -8.535   7.887   6.275  0.00  0.00    +0.000 A 
ATOM      6  C   UNL     1      -8.305   6.582   6.697  0.00  0.00    +0.000 A 
ENDROOT
BRANCH   4   7
ATOM      7  O   UNL     1      -7.207   4.508   6.395  0.00  0.00    +0.000 OA
ATOM      8  H   UNL     1      -6.697   4.043   5.708  0.00  0.00    +0.000 HD
ENDBRANCH   4   7
BRANCH   5   9
ATOM      9  O   UNL     1      -9.393   8.698   6.963  0.00  0.00    +0.000 OA
ATOM     10  H   UNL     1     -10.126   8.933   6.367  0.00  0.00    +0.000 HD
ENDBRANCH   5   9
BRANCH   1  11
ATOM     11  C   UNL     1      -6.367   8.103   3.271  0.00  0.00    +0.000 C 
ATOM     12  C   UNL     1      -5.814   8.536   2.296  0.00  0.00    +0.000 C 
BRANCH  12  13
ATOM     13  C   UNL     1      -5.158   9.048   1.138  0.00  0.00    +0.000 A 
ATOM     14  C   UNL     1      -4.348  10.179   1.242  0.00  0.00    +0.000 A 
ATOM     15  C   UNL     1      -5.328   8.418  -0.094  0.00  0.00    +0.000 A 
ATOM     16  C   UNL     1      -3.706  10.681   0.114  0.00  0.00    +0.000 A 
ATOM     17  C   UNL     1      -4.687   8.917  -1.225  0.00  0.00    +0.000 A 
ATOM     18  C   UNL     1      -3.881  10.045  -1.112  0.00  0.00    +0.000 A 
BRANCH  18  19
ATOM     19  O   UNL     1      -3.264  10.516  -2.235  0.00  0.00    +0.000 OA
ATOM     20  H   UNL     1      -3.902  11.062  -2.727  0.00  0.00    +0.000 HD
ENDBRANCH  18  19
ENDBRANCH  12  13
ENDBRANCH   1  11
TORSDOF 5
ENDMDL
MODEL 7
REMARK VINA RESULT:      -4.7     12.010     14.484
REMARK  Name = Resveratrol.pdbqt.pdb
REMARK  5 active torsions:
REMARK  status: ('A' for Active; 'I' for Inactive)
REMARK    1  A    between atoms: C_1  and  C_11
REMARK    2  A    between atoms: C_4  and  O_7
REMARK    3  A    between atoms: C_5  and  O_9
REMARK    4  A    between atoms: C_12  and  C_13
REMARK    5  A    between atoms: C_18  and  O_19
REMARK                            x       y       z     vdW  Elec       q    Type
REMARK                         _______ _______ _______ _____ _____    ______ ____
ROOT
ATOM      1  C   UNL     1      -0.099 -12.671  19.349  0.00  0.00    +0.000 A 
ATOM      2  C   UNL     1       0.704 -12.284  18.277  0.00  0.00    +0.000 A 
ATOM      3  C   UNL     1       0.096 -12.110  20.610  0.00  0.00    +0.000 A 
ATOM      4  C   UNL     1       1.099 -11.161  20.790  0.00  0.00    +0.000 A 
ATOM      5  C   UNL     1       1.701 -11.334  18.478  0.00  0.00    +0.000 A 
ATOM      6  C   UNL     1       1.908 -10.765  19.730  0.00  0.00    +0.000 A 
ENDROOT
BRANCH   4   7
ATOM      7  O   UNL     1       1.312 -10.595  22.013  0.00  0.00    +0.000 OA
ATOM      8  H   UNL     1       2.240 -10.300  22.054  0.00  0.00    +0.000 HD
ENDBRANCH   4   7
BRANCH   5   9
ATOM      9  O   UNL     1       2.475 -10.970  17.413  0.00  0.00    +0.000 OA
ATOM     10  H   UNL     1       2.352 -10.016  17.264  0.00  0.00    +0.000 HD
ENDBRANCH   5   9
BRANCH   1  11
ATOM     11  C   UNL     1      -1.123 -13.644  19.156  0.00  0.00    +0.000 C 
ATOM     12  C   UNL     1      -1.987 -14.463  18.993  0.00  0.00    +0.000 C 
BRANCH  12  13
ATOM     13  C   UNL     1      -3.011 -15.437  18.800  0.00  0.00    +0.000 A 
ATOM     14  C   UNL     1      -3.722 -15.468  17.601  0.00  0.00    +0.000 A 
ATOM     15  C   UNL     1      -3.298 -16.354  19.810  0.00  0.00    +0.000 A 
ATOM     16  C   UNL     1      -4.722 -16.418  17.409  0.00  0.00    +0.000 A 
ATOM     17  C   UNL     1      -4.298 -17.305  19.623  0.00  0.00    +0.000 A 
ATOM     18  C   UNL     1      -5.002 -17.329  18.423  0.00  0.00    +0.000 A 
BRANCH  18  19
ATOM     19  O   UNL     1      -5.977 -18.270  18.263  0.00  0.00    +0.000 OA
ATOM     20  H   UNL     1      -6.731 -17.854  17.810  0.00  0.00    +0.000 HD
ENDBRANCH  18  19
ENDBRANCH  12  13
ENDBRANCH   1  11
TORSDOF 5
ENDMDL
MODEL 8
REMARK VINA RESULT:      -4.5     20.613     24.723
REMARK  Name = Resveratrol.pdbqt.pdb
REMARK  5 active torsions:
REMARK  status: ('A' for Active; 'I' for Inactive)
REMARK    1  A    between atoms: C_1  and  C_11
REMARK    2  A    between atoms: C_4  and  O_7
REMARK    3  A    between atoms: C_5  and  O_9
REMARK    4  A    between atoms: C_12  and  C_13
REMARK    5  A    between atoms: C_18  and  O_19
REMARK                            x       y       z     vdW  Elec       q    Type
REMARK                         _______ _______ _______ _____ _____    ______ ____
ROOT
ATOM      1  C   UNL     1     -10.254   5.967   6.097  0.00  0.00    +0.000 A 
ATOM      2  C   UNL     1      -9.671   5.578   4.892  0.00  0.00    +0.000 A 
ATOM      3  C   UNL     1      -9.573   5.778   7.300  0.00  0.00    +0.000 A 
ATOM      4  C   UNL     1      -8.307   5.198   7.286  0.00  0.00    +0.000 A 
ATOM      5  C   UNL     1      -8.406   5.000   4.900  0.00  0.00    +0.000 A 
ATOM      6  C   UNL     1      -7.714   4.805   6.091  0.00  0.00    +0.000 A 
ENDROOT
BRANCH   4   7
ATOM      7  O   UNL     1      -7.618   5.001   8.447  0.00  0.00    +0.000 OA
ATOM      8  H   UNL     1      -6.921   5.679   8.505  0.00  0.00    +0.000 HD
ENDBRANCH   4   7
BRANCH   5   9
ATOM      9  O   UNL     1      -7.855   4.627   3.708  0.00  0.00    +0.000 OA
ATOM     10  H   UNL     1      -7.416   5.406   3.323  0.00  0.00    +0.000 HD
ENDBRANCH   5   9
BRANCH   1  11
ATOM     11  C   UNL     1     -11.551   6.560   6.103  0.00  0.00    +0.000 C 
ATOM     12  C   UNL     1     -12.643   7.060   6.107  0.00  0.00    +0.000 C 
BRANCH  12  13
ATOM     13  C   UNL     1     -13.940   7.653   6.112  0.00  0.00    +0.000 A 
ATOM     14  C   UNL     1     -15.063   6.870   5.845  0.00  0.00    +0.000 A 
ATOM     15  C   UNL     1     -14.083   9.014   6.383  0.00  0.00    +0.000 A 
ATOM     16  C   UNL     1     -16.330   7.446   5.850  0.00  0.00    +0.000 A 
ATOM     17  C   UNL     1     -15.348   9.594   6.388  0.00  0.00    +0.000 A 
ATOM     18  C   UNL     1     -16.462   8.805   6.120  0.00  0.00    +0.000 A 
BRANCH  18  19
ATOM     19  O   UNL     1     -17.692   9.396   6.131  0.00  0.00    +0.000 OA
ATOM     20  H   UNL     1     -17.974   9.498   7.057  0.00  0.00    +0.000 HD
ENDBRANCH  18  19
ENDBRANCH  12  13
ENDBRANCH   1  11
TORSDOF 5
ENDMDL
MODEL 9
REMARK VINA RESULT:      -4.5     23.999     25.333
REMARK  Name = Resveratrol.pdbqt.pdb
REMARK  5 active torsions:
REMARK  status: ('A' for Active; 'I' for Inactive)
REMARK    1  A    between atoms: C_1  and  C_11
REMARK    2  A    between atoms: C_4  and  O_7
REMARK    3  A    between atoms: C_5  and  O_9
REMARK    4  A    between atoms: C_12  and  C_13
REMARK    5  A    between atoms: C_18  and  O_19
REMARK                            x       y       z     vdW  Elec       q    Type
REMARK                         _______ _______ _______ _____ _____    ______ ____
ROOT
ATOM      1  C   UNL     1      -9.831  -6.654  26.762  0.00  0.00    +0.000 A 
ATOM      2  C   UNL     1      -9.685  -5.313  27.115  0.00  0.00    +0.000 A 
ATOM      3  C   UNL     1      -8.815  -7.311  26.069  0.00  0.00    +0.000 A 
ATOM      4  C   UNL     1      -7.654  -6.618  25.735  0.00  0.00    +0.000 A 
ATOM      5  C   UNL     1      -8.518  -4.638  26.771  0.00  0.00    +0.000 A 
ATOM      6  C   UNL     1      -7.495  -5.280  26.082  0.00  0.00    +0.000 A 
ENDROOT
BRANCH   4   7
ATOM      7  O   UNL     1      -6.643  -7.236  25.058  0.00  0.00    +0.000 OA
ATOM      8  H   UNL     1      -6.502  -6.759  24.221  0.00  0.00    +0.000 HD
ENDBRANCH   4   7
BRANCH   5   9
ATOM      9  O   UNL     1      -8.398  -3.326  27.128  0.00  0.00    +0.000 OA
ATOM     10  H   UNL     1      -8.538  -2.784  26.332  0.00  0.00    +0.000 HD
ENDBRANCH   5   9
BRANCH   1  11
ATOM     11  C   UNL     1     -11.023  -7.356  27.108  0.00  0.00    +0.000 C 
ATOM     12  C   UNL     1     -12.026  -7.948  27.400  0.00  0.00    +0.000 C 
BRANCH  12  13
ATOM     13  C   UNL     1     -13.218  -8.650  27.746  0.00  0.00    +0.000 A 
ATOM     14  C   UNL     1     -14.456  -8.175  27.313  0.00  0.00    +0.000 A 
ATOM     15  C   UNL     1     -13.144  -9.810  28.517  0.00  0.00    +0.000 A 
ATOM     16  C   UNL     1     -15.620  -8.858  27.649  0.00  0.00    +0.000 A 
ATOM     17  C   UNL     1     -14.307 -10.496  28.856  0.00  0.00    +0.000 A 
ATOM     18  C   UNL     1     -15.536 -10.014  28.420  0.00  0.00    +0.000 A 
BRANCH  18  19
ATOM     19  O   UNL     1     -16.662 -10.704  28.765  0.00  0.00    +0.000 OA
ATOM     20  H   UNL     1     -16.804 -10.598  29.722  0.00  0.00    +0.000 HD
ENDBRANCH  18  19
ENDBRANCH  12  13
ENDBRANCH   1  11
TORSDOF 5
ENDMDL
