MODEL 1
REMARK VINA RESULT:      -5.8      0.000      0.000
REMARK  Name = RetinoicAcid.pdbqt.pdb
REMARK  6 active torsions:
REMARK  status: ('A' for Active; 'I' for Inactive)
REMARK    1  A    between atoms: C_1  and  C_3
REMARK    2  A    between atoms: C_1  and  C_5
REMARK    3  A    between atoms: C_3  and  C_15
REMARK    4  A    between atoms: C_4  and  C_9
REMARK    5  A    between atoms: C_16  and  C_17
REMARK    6  A    between atoms: C_21  and  O_22
REMARK                            x       y       z     vdW  Elec       q    Type
REMARK                         _______ _______ _______ _____ _____    ______ ____
ROOT
ATOM      1  C   UNL     1       9.192  -9.103  10.510  0.00  0.00    +0.000 C 
ATOM      2  C   UNL     1      10.685  -9.002  10.442  0.00  0.00    +0.000 C 
ENDROOT
BRANCH   1   4
ATOM      3  C   UNL     1       7.719  -6.946  10.310  0.00  0.00    +0.000 C 
ATOM      4  C   UNL     1       8.396  -7.936  10.408  0.00  0.00    +0.000 C 
BRANCH   3   8
ATOM      5  C   UNL     1       7.256  -4.490  11.030  0.00  0.00    +0.000 C 
ATOM      6  C   UNL     1       6.271  -3.431  10.704  0.00  0.00    +0.000 C 
ATOM      7  C   UNL     1       5.053  -3.165   9.842  0.00  0.00    +0.000 C 
ATOM      8  C   UNL     1       6.905  -5.761  10.186  0.00  0.00    +0.000 C 
ATOM      9  C   UNL     1       5.072  -4.554   9.243  0.00  0.00    +0.000 C 
ATOM     10  C   UNL     1       5.847  -5.745   9.339  0.00  0.00    +0.000 C 
ATOM     11  C   UNL     1       7.168  -4.845  12.539  0.00  0.00    +0.000 C 
ATOM     12  C   UNL     1       8.687  -4.016  10.647  0.00  0.00    +0.000 C 
ATOM     13  C   UNL     1       5.432  -6.904   8.475  0.00  0.00    +0.000 C 
ENDBRANCH   3   8
ENDBRANCH   1   4
BRANCH   1  14
ATOM     14  C   UNL     1       8.630 -10.254  10.710  0.00  0.00    +0.000 C 
BRANCH  14  15
ATOM     15  C   UNL     1       7.964 -11.615  10.948  0.00  0.00    +0.000 C 
ATOM     16  C   UNL     1       7.441 -12.680  11.133  0.00  0.00    +0.000 C 
BRANCH  16  17
ATOM     17  C   UNL     1       6.825 -13.937  11.346  0.00  0.00    +0.000 C 
ATOM     18  C   UNL     1       7.585 -15.196  11.062  0.00  0.00    +0.000 C 
ATOM     19  C   UNL     1       5.602 -13.997  11.753  0.00  0.00    +0.000 C 
ATOM     20  O   UNL     1       3.950 -13.937  13.385  0.00  0.00    +0.000 OA
ATOM     21  C   UNL     1       4.260 -14.050  12.214  0.00  0.00    +0.000 C 
BRANCH  21  22
ATOM     22  O   UNL     1       3.353 -14.215  11.237  0.00  0.00    +0.000 OA
ATOM     23  H   UNL     1       2.582 -13.689  11.535  0.00  0.00    +0.000 HD
ENDBRANCH  21  22
ENDBRANCH  16  17
ENDBRANCH  14  15
ENDBRANCH   1  14
TORSDOF 6
ENDMDL
MODEL 2
REMARK VINA RESULT:      -5.5      0.959      2.023
REMARK  Name = RetinoicAcid.pdbqt.pdb
REMARK  6 active torsions:
REMARK  status: ('A' for Active; 'I' for Inactive)
REMARK    1  A    between atoms: C_1  and  C_3
REMARK    2  A    between atoms: C_1  and  C_5
REMARK    3  A    between atoms: C_3  and  C_15
REMARK    4  A    between atoms: C_4  and  C_9
REMARK    5  A    between atoms: C_16  and  C_17
REMARK    6  A    between atoms: C_21  and  O_22
REMARK                            x       y       z     vdW  Elec       q    Type
REMARK                         _______ _______ _______ _____ _____    ______ ____
ROOT
ATOM      1  C   UNL     1       9.207  -9.654  10.817  0.00  0.00    +0.000 C 
ATOM      2  C   UNL     1      10.701  -9.558  10.757  0.00  0.00    +0.000 C 
ENDROOT
BRANCH   1   4
ATOM      3  C   UNL     1       7.740  -7.486  10.735  0.00  0.00    +0.000 C 
ATOM      4  C   UNL     1       8.418  -8.479  10.770  0.00  0.00    +0.000 C 
BRANCH   3   8
ATOM      5  C   UNL     1       6.516  -5.680   9.318  0.00  0.00    +0.000 C 
ATOM      6  C   UNL     1       5.679  -4.484   9.574  0.00  0.00    +0.000 C 
ATOM      7  C   UNL     1       5.091  -3.664  10.706  0.00  0.00    +0.000 C 
ATOM      8  C   UNL     1       6.921  -6.298  10.698  0.00  0.00    +0.000 C 
ATOM      9  C   UNL     1       5.691  -4.555  11.772  0.00  0.00    +0.000 C 
ATOM     10  C   UNL     1       6.501  -5.723  11.852  0.00  0.00    +0.000 C 
ATOM     11  C   UNL     1       7.801  -5.270   8.550  0.00  0.00    +0.000 C 
ATOM     12  C   UNL     1       5.698  -6.736   8.521  0.00  0.00    +0.000 C 
ATOM     13  C   UNL     1       6.822  -6.242  13.227  0.00  0.00    +0.000 C 
ENDBRANCH   3   8
ENDBRANCH   1   4
BRANCH   1  14
ATOM     14  C   UNL     1       8.639 -10.810  10.961  0.00  0.00    +0.000 C 
BRANCH  14  15
ATOM     15  C   UNL     1       7.968 -12.179  11.132  0.00  0.00    +0.000 C 
ATOM     16  C   UNL     1       7.445 -13.251  11.265  0.00  0.00    +0.000 C 
BRANCH  16  17
ATOM     17  C   UNL     1       6.833 -14.518  11.425  0.00  0.00    +0.000 C 
ATOM     18  C   UNL     1       7.609 -15.763  11.125  0.00  0.00    +0.000 C 
ATOM     19  C   UNL     1       5.599 -14.597  11.797  0.00  0.00    +0.000 C 
ATOM     20  O   UNL     1       3.904 -14.595  13.385  0.00  0.00    +0.000 OA
ATOM     21  C   UNL     1       4.246 -14.673  12.219  0.00  0.00    +0.000 C 
BRANCH  21  22
ATOM     22  O   UNL     1       3.366 -14.814  11.214  0.00  0.00    +0.000 OA
ATOM     23  H   UNL     1       2.939 -13.935  11.144  0.00  0.00    +0.000 HD
ENDBRANCH  21  22
ENDBRANCH  16  17
ENDBRANCH  14  15
ENDBRANCH   1  14
TORSDOF 6
ENDMDL
MODEL 3
REMARK VINA RESULT:      -5.2      5.234      8.342
REMARK  Name = RetinoicAcid.pdbqt.pdb
REMARK  6 active torsions:
REMARK  status: ('A' for Active; 'I' for Inactive)
REMARK    1  A    between atoms: C_1  and  C_3
REMARK    2  A    between atoms: C_1  and  C_5
REMARK    3  A    between atoms: C_3  and  C_15
REMARK    4  A    between atoms: C_4  and  C_9
REMARK    5  A    between atoms: C_16  and  C_17
REMARK    6  A    between atoms: C_21  and  O_22
REMARK                            x       y       z     vdW  Elec       q    Type
REMARK                         _______ _______ _______ _____ _____    ______ ____
ROOT
ATOM      1  C   UNL     1       8.458  -5.228  14.246  0.00  0.00    +0.000 C 
ATOM      2  C   UNL     1       9.955  -5.186  14.221  0.00  0.00    +0.000 C 
ENDROOT
BRANCH   1   4
ATOM      3  C   UNL     1       7.136  -6.118  12.168  0.00  0.00    +0.000 C 
ATOM      4  C   UNL     1       7.743  -5.715  13.125  0.00  0.00    +0.000 C 
BRANCH   3   8
ATOM      5  C   UNL     1       6.108  -8.125  10.871  0.00  0.00    +0.000 C 
ATOM      6  C   UNL     1       5.350  -8.331   9.614  0.00  0.00    +0.000 C 
ATOM      7  C   UNL     1       4.773  -7.571   8.435  0.00  0.00    +0.000 C 
ATOM      8  C   UNL     1       6.408  -6.596  11.017  0.00  0.00    +0.000 C 
ATOM      9  C   UNL     1       5.261  -6.236   8.953  0.00  0.00    +0.000 C 
ATOM     10  C   UNL     1       5.980  -5.724  10.070  0.00  0.00    +0.000 C 
ATOM     11  C   UNL     1       7.452  -8.900  10.809  0.00  0.00    +0.000 C 
ATOM     12  C   UNL     1       5.251  -8.583  12.085  0.00  0.00    +0.000 C 
ATOM     13  C   UNL     1       6.203  -4.238  10.121  0.00  0.00    +0.000 C 
ENDBRANCH   3   8
ENDBRANCH   1   4
BRANCH   1  14
ATOM     14  C   UNL     1       7.816  -4.774  15.276  0.00  0.00    +0.000 C 
BRANCH  14  15
ATOM     15  C   UNL     1       7.054  -4.235  16.494  0.00  0.00    +0.000 C 
ATOM     16  C   UNL     1       6.458  -3.815  17.447  0.00  0.00    +0.000 C 
BRANCH  16  17
ATOM     17  C   UNL     1       5.761  -3.320  18.575  0.00  0.00    +0.000 C 
ATOM     18  C   UNL     1       6.476  -3.160  19.882  0.00  0.00    +0.000 C 
ATOM     19  C   UNL     1       4.505  -3.037  18.486  0.00  0.00    +0.000 C 
ATOM     20  O   UNL     1       2.719  -1.662  17.921  0.00  0.00    +0.000 OA
ATOM     21  C   UNL     1       3.126  -2.717  18.372  0.00  0.00    +0.000 C 
BRANCH  21  22
ATOM     22  O   UNL     1       2.302  -3.694  18.786  0.00  0.00    +0.000 OA
ATOM     23  H   UNL     1       1.550  -3.216  19.194  0.00  0.00    +0.000 HD
ENDBRANCH  21  22
ENDBRANCH  16  17
ENDBRANCH  14  15
ENDBRANCH   1  14
TORSDOF 6
ENDMDL
MODEL 4
REMARK VINA RESULT:      -5.1     16.970     21.606
REMARK  Name = RetinoicAcid.pdbqt.pdb
REMARK  6 active torsions:
REMARK  status: ('A' for Active; 'I' for Inactive)
REMARK    1  A    between atoms: C_1  and  C_3
REMARK    2  A    between atoms: C_1  and  C_5
REMARK    3  A    between atoms: C_3  and  C_15
REMARK    4  A    between atoms: C_4  and  C_9
REMARK    5  A    between atoms: C_16  and  C_17
REMARK    6  A    between atoms: C_21  and  O_22
REMARK                            x       y       z     vdW  Elec       q    Type
REMARK                         _______ _______ _______ _____ _____    ______ ____
ROOT
ATOM      1  C   UNL     1     -11.655 -19.500  17.274  0.00  0.00    +0.000 C 
ATOM      2  C   UNL     1     -12.024 -20.952  17.309  0.00  0.00    +0.000 C 
ENDROOT
BRANCH   1   4
ATOM      3  C   UNL     1     -13.134 -17.798  15.942  0.00  0.00    +0.000 C 
ATOM      4  C   UNL     1     -12.454 -18.583  16.549  0.00  0.00    +0.000 C 
BRANCH   3   8
ATOM      5  C   UNL     1     -15.271 -16.315  15.867  0.00  0.00    +0.000 C 
ATOM      6  C   UNL     1     -15.897 -15.362  14.920  0.00  0.00    +0.000 C 
ATOM      7  C   UNL     1     -15.695 -14.739  13.553  0.00  0.00    +0.000 C 
ATOM      8  C   UNL     1     -13.950 -16.850  15.220  0.00  0.00    +0.000 C 
ATOM      9  C   UNL     1     -14.400 -15.484  13.314  0.00  0.00    +0.000 C 
ATOM     10  C   UNL     1     -13.570 -16.422  13.991  0.00  0.00    +0.000 C 
ATOM     11  C   UNL     1     -16.229 -17.509  16.124  0.00  0.00    +0.000 C 
ATOM     12  C   UNL     1     -14.916 -15.584  17.193  0.00  0.00    +0.000 C 
ATOM     13  C   UNL     1     -12.317 -16.862  13.286  0.00  0.00    +0.000 C 
ENDBRANCH   3   8
ENDBRANCH   1   4
BRANCH   1  14
ATOM     14  C   UNL     1     -10.578 -19.092  17.867  0.00  0.00    +0.000 C 
BRANCH  14  15
ATOM     15  C   UNL     1      -9.301 -18.609  18.568  0.00  0.00    +0.000 C 
ATOM     16  C   UNL     1      -8.302 -18.233  19.115  0.00  0.00    +0.000 C 
BRANCH  16  17
ATOM     17  C   UNL     1      -7.120 -17.791  19.757  0.00  0.00    +0.000 C 
ATOM     18  C   UNL     1      -7.041 -17.791  21.253  0.00  0.00    +0.000 C 
ATOM     19  C   UNL     1      -6.126 -17.359  19.056  0.00  0.00    +0.000 C 
ATOM     20  O   UNL     1      -4.222 -17.641  17.755  0.00  0.00    +0.000 OA
ATOM     21  C   UNL     1      -5.034 -16.897  18.274  0.00  0.00    +0.000 C 
BRANCH  21  22
ATOM     22  O   UNL     1      -4.986 -15.562  18.135  0.00  0.00    +0.000 OA
ATOM     23  H   UNL     1      -5.401 -15.221  18.956  0.00  0.00    +0.000 HD
ENDBRANCH  21  22
ENDBRANCH  16  17
ENDBRANCH  14  15
ENDBRANCH   1  14
TORSDOF 6
ENDMDL
MODEL 5
REMARK VINA RESULT:      -4.9     18.258     22.088
REMARK  Name = RetinoicAcid.pdbqt.pdb
REMARK  6 active torsions:
REMARK  status: ('A' for Active; 'I' for Inactive)
REMARK    1  A    between atoms: C_1  and  C_3
REMARK    2  A    between atoms: C_1  and  C_5
REMARK    3  A    between atoms: C_3  and  C_15
REMARK    4  A    between atoms: C_4  and  C_9
REMARK    5  A    between atoms: C_16  and  C_17
REMARK    6  A    between atoms: C_21  and  O_22
REMARK                            x       y       z     vdW  Elec       q    Type
REMARK                         _______ _______ _______ _____ _____    ______ ____
ROOT
ATOM      1  C   UNL     1     -13.002 -19.486  16.456  0.00  0.00    +0.000 C 
ATOM      2  C   UNL     1     -13.753 -20.770  16.628  0.00  0.00    +0.000 C 
ENDROOT
BRANCH   1   4
ATOM      3  C   UNL     1     -13.853 -17.679  14.761  0.00  0.00    +0.000 C 
ATOM      4  C   UNL     1     -13.463 -18.513  15.535  0.00  0.00    +0.000 C 
BRANCH   3   8
ATOM      5  C   UNL     1     -15.765 -16.096  13.982  0.00  0.00    +0.000 C 
ATOM      6  C   UNL     1     -15.972 -15.087  12.917  0.00  0.00    +0.000 C 
ATOM      7  C   UNL     1     -15.266 -14.432  11.746  0.00  0.00    +0.000 C 
ATOM      8  C   UNL     1     -14.317 -16.673  13.835  0.00  0.00    +0.000 C 
ATOM      9  C   UNL     1     -13.998 -15.229  11.960  0.00  0.00    +0.000 C 
ATOM     10  C   UNL     1     -13.502 -16.225  12.848  0.00  0.00    +0.000 C 
ATOM     11  C   UNL     1     -16.789 -17.252  13.820  0.00  0.00    +0.000 C 
ATOM     12  C   UNL     1     -15.894 -15.424  15.379  0.00  0.00    +0.000 C 
ATOM     13  C   UNL     1     -12.093 -16.702  12.628  0.00  0.00    +0.000 C 
ENDBRANCH   3   8
ENDBRANCH   1   4
BRANCH   1  14
ATOM     14  C   UNL     1     -11.904 -19.285  17.114  0.00  0.00    +0.000 C 
BRANCH  14  15
ATOM     15  C   UNL     1     -10.605 -19.049  17.895  0.00  0.00    +0.000 C 
ATOM     16  C   UNL     1      -9.588 -18.866  18.505  0.00  0.00    +0.000 C 
BRANCH  16  17
ATOM     17  C   UNL     1      -8.385 -18.649  19.220  0.00  0.00    +0.000 C 
ATOM     18  C   UNL     1      -7.842 -19.727  20.107  0.00  0.00    +0.000 C 
ATOM     19  C   UNL     1      -7.777 -17.514  19.133  0.00  0.00    +0.000 C 
ATOM     20  O   UNL     1      -6.364 -15.988  18.097  0.00  0.00    +0.000 OA
ATOM     21  C   UNL     1      -7.109 -16.266  19.018  0.00  0.00    +0.000 C 
BRANCH  21  22
ATOM     22  O   UNL     1      -7.390 -15.403  20.009  0.00  0.00    +0.000 OA
ATOM     23  H   UNL     1      -6.718 -14.697  19.910  0.00  0.00    +0.000 HD
ENDBRANCH  21  22
ENDBRANCH  16  17
ENDBRANCH  14  15
ENDBRANCH   1  14
TORSDOF 6
ENDMDL
MODEL 6
REMARK VINA RESULT:      -4.7     26.728     29.341
REMARK  Name = RetinoicAcid.pdbqt.pdb
REMARK  6 active torsions:
REMARK  status: ('A' for Active; 'I' for Inactive)
REMARK    1  A    between atoms: C_1  and  C_3
REMARK    2  A    between atoms: C_1  and  C_5
REMARK    3  A    between atoms: C_3  and  C_15
REMARK    4  A    between atoms: C_4  and  C_9
REMARK    5  A    between atoms: C_16  and  C_17
REMARK    6  A    between atoms: C_21  and  O_22
REMARK                            x       y       z     vdW  Elec       q    Type
REMARK                         _______ _______ _______ _____ _____    ______ ____
ROOT
ATOM      1  C   UNL     1     -18.388   0.737  21.136  0.00  0.00    +0.000 C 
ATOM      2  C   UNL     1     -18.851   1.817  20.207  0.00  0.00    +0.000 C 
ENDROOT
BRANCH   1   4
ATOM      3  C   UNL     1     -19.557  -1.607  21.121  0.00  0.00    +0.000 C 
ATOM      4  C   UNL     1     -19.025  -0.528  21.128  0.00  0.00    +0.000 C 
BRANCH   3   8
ATOM      5  C   UNL     1     -20.844  -3.440  19.797  0.00  0.00    +0.000 C 
ATOM      6  C   UNL     1     -21.404  -4.784  20.072  0.00  0.00    +0.000 C 
ATOM      7  C   UNL     1     -21.558  -5.804  21.183  0.00  0.00    +0.000 C 
ATOM      8  C   UNL     1     -20.188  -2.905  21.114  0.00  0.00    +0.000 C 
ATOM      9  C   UNL     1     -20.836  -4.936  22.190  0.00  0.00    +0.000 C 
ATOM     10  C   UNL     1     -20.208  -3.660  22.240  0.00  0.00    +0.000 C 
ATOM     11  C   UNL     1     -21.979  -2.472  19.368  0.00  0.00    +0.000 C 
ATOM     12  C   UNL     1     -19.747  -3.540  18.699  0.00  0.00    +0.000 C 
ATOM     13  C   UNL     1     -19.597  -3.247  23.551  0.00  0.00    +0.000 C 
ENDBRANCH   3   8
ENDBRANCH   1   4
BRANCH   1  14
ATOM     14  C   UNL     1     -17.436   0.976  21.982  0.00  0.00    +0.000 C 
BRANCH  14  15
ATOM     15  C   UNL     1     -16.308   1.257  22.983  0.00  0.00    +0.000 C 
ATOM     16  C   UNL     1     -15.426   1.476  23.768  0.00  0.00    +0.000 C 
BRANCH  16  17
ATOM     17  C   UNL     1     -14.387   1.730  24.695  0.00  0.00    +0.000 C 
ATOM     18  C   UNL     1     -13.963   3.140  24.970  0.00  0.00    +0.000 C 
ATOM     19  C   UNL     1     -13.786   0.748  25.278  0.00  0.00    +0.000 C 
ATOM     20  O   UNL     1     -13.593  -0.901  26.903  0.00  0.00    +0.000 OA
ATOM     21  C   UNL     1     -13.140  -0.341  25.922  0.00  0.00    +0.000 C 
BRANCH  21  22
ATOM     22  O   UNL     1     -11.991  -0.718  25.338  0.00  0.00    +0.000 OA
ATOM     23  H   UNL     1     -12.030  -0.311  24.447  0.00  0.00    +0.000 HD
ENDBRANCH  21  22
ENDBRANCH  16  17
ENDBRANCH  14  15
ENDBRANCH   1  14
TORSDOF 6
ENDMDL
MODEL 7
REMARK VINA RESULT:      -4.6     23.930     27.151
REMARK  Name = RetinoicAcid.pdbqt.pdb
REMARK  6 active torsions:
REMARK  status: ('A' for Active; 'I' for Inactive)
REMARK    1  A    between atoms: C_1  and  C_3
REMARK    2  A    between atoms: C_1  and  C_5
REMARK    3  A    between atoms: C_3  and  C_15
REMARK    4  A    between atoms: C_4  and  C_9
REMARK    5  A    between atoms: C_16  and  C_17
REMARK    6  A    between atoms: C_21  and  O_22
REMARK                            x       y       z     vdW  Elec       q    Type
REMARK                         _______ _______ _______ _____ _____    ______ ____
ROOT
ATOM      1  C   UNL     1     -17.256 -12.947  24.936  0.00  0.00    +0.000 C 
ATOM      2  C   UNL     1     -18.199 -13.583  25.910  0.00  0.00    +0.000 C 
ENDROOT
BRANCH   1   4
ATOM      3  C   UNL     1     -17.380 -13.554  22.391  0.00  0.00    +0.000 C 
ATOM      4  C   UNL     1     -17.329 -13.274  23.560  0.00  0.00    +0.000 C 
BRANCH   3   8
ATOM      5  C   UNL     1     -18.396 -15.029  20.503  0.00  0.00    +0.000 C 
ATOM      6  C   UNL     1     -18.256 -15.158  19.034  0.00  0.00    +0.000 C 
ATOM      7  C   UNL     1     -17.505 -14.571  17.855  0.00  0.00    +0.000 C 
ATOM      8  C   UNL     1     -17.435 -13.892  20.988  0.00  0.00    +0.000 C 
ATOM      9  C   UNL     1     -16.751 -13.586  18.720  0.00  0.00    +0.000 C 
ATOM     10  C   UNL     1     -16.664 -13.225  20.095  0.00  0.00    +0.000 C 
ATOM     11  C   UNL     1     -17.992 -16.360  21.192  0.00  0.00    +0.000 C 
ATOM     12  C   UNL     1     -19.857 -14.633  20.862  0.00  0.00    +0.000 C 
ATOM     13  C   UNL     1     -15.719 -12.111  20.453  0.00  0.00    +0.000 C 
ENDBRANCH   3   8
ENDBRANCH   1   4
BRANCH   1  14
ATOM     14  C   UNL     1     -16.340 -12.133  25.359  0.00  0.00    +0.000 C 
BRANCH  14  15
ATOM     15  C   UNL     1     -15.258 -11.170  25.863  0.00  0.00    +0.000 C 
ATOM     16  C   UNL     1     -14.412 -10.415  26.259  0.00  0.00    +0.000 C 
BRANCH  16  17
ATOM     17  C   UNL     1     -13.417  -9.526  26.729  0.00  0.00    +0.000 C 
ATOM     18  C   UNL     1     -13.817  -8.227  27.359  0.00  0.00    +0.000 C 
ATOM     19  C   UNL     1     -12.168  -9.818  26.587  0.00  0.00    +0.000 C 
ATOM     20  O   UNL     1     -10.202 -10.893  27.202  0.00  0.00    +0.000 OA
ATOM     21  C   UNL     1     -10.797 -10.157  26.436  0.00  0.00    +0.000 C 
BRANCH  21  22
ATOM     22  O   UNL     1     -10.215  -9.610  25.356  0.00  0.00    +0.000 OA
ATOM     23  H   UNL     1     -10.923  -9.068  24.951  0.00  0.00    +0.000 HD
ENDBRANCH  21  22
ENDBRANCH  16  17
ENDBRANCH  14  15
ENDBRANCH   1  14
TORSDOF 6
ENDMDL
MODEL 8
REMARK VINA RESULT:      -4.5     17.279     20.120
REMARK  Name = RetinoicAcid.pdbqt.pdb
REMARK  6 active torsions:
REMARK  status: ('A' for Active; 'I' for Inactive)
REMARK    1  A    between atoms: C_1  and  C_3
REMARK    2  A    between atoms: C_1  and  C_5
REMARK    3  A    between atoms: C_3  and  C_15
REMARK    4  A    between atoms: C_4  and  C_9
REMARK    5  A    between atoms: C_16  and  C_17
REMARK    6  A    between atoms: C_21  and  O_22
REMARK                            x       y       z     vdW  Elec       q    Type
REMARK                         _______ _______ _______ _____ _____    ______ ____
ROOT
ATOM      1  C   UNL     1      -9.122 -16.622   5.203  0.00  0.00    +0.000 C 
ATOM      2  C   UNL     1      -8.640 -18.000   4.865  0.00  0.00    +0.000 C 
ENDROOT
BRANCH   1   4
ATOM      3  C   UNL     1     -10.672 -16.258   7.283  0.00  0.00    +0.000 C 
ATOM      4  C   UNL     1      -9.960 -16.419   6.327  0.00  0.00    +0.000 C 
BRANCH   3   8
ATOM      5  C   UNL     1     -10.974 -16.379   9.865  0.00  0.00    +0.000 C 
ATOM      6  C   UNL     1     -12.048 -16.097  10.845  0.00  0.00    +0.000 C 
ATOM      7  C   UNL     1     -13.483 -15.617  10.931  0.00  0.00    +0.000 C 
ATOM      8  C   UNL     1     -11.525 -16.071   8.432  0.00  0.00    +0.000 C 
ATOM      9  C   UNL     1     -13.603 -15.449   9.432  0.00  0.00    +0.000 C 
ATOM     10  C   UNL     1     -12.796 -15.625   8.273  0.00  0.00    +0.000 C 
ATOM     11  C   UNL     1     -10.571 -17.877   9.940  0.00  0.00    +0.000 C 
ATOM     12  C   UNL     1      -9.753 -15.456  10.137  0.00  0.00    +0.000 C 
ATOM     13  C   UNL     1     -13.418 -15.287   6.946  0.00  0.00    +0.000 C 
ENDBRANCH   3   8
ENDBRANCH   1   4
BRANCH   1  14
ATOM     14  C   UNL     1      -8.812 -15.623   4.438  0.00  0.00    +0.000 C 
BRANCH  14  15
ATOM     15  C   UNL     1      -8.448 -14.440   3.532  0.00  0.00    +0.000 C 
ATOM     16  C   UNL     1      -8.162 -13.513   2.824  0.00  0.00    +0.000 C 
BRANCH  16  17
ATOM     17  C   UNL     1      -7.821 -12.419   1.993  0.00  0.00    +0.000 C 
ATOM     18  C   UNL     1      -6.416 -12.273   1.494  0.00  0.00    +0.000 C 
ATOM     19  C   UNL     1      -8.710 -11.533   1.693  0.00  0.00    +0.000 C 
ATOM     20  O   UNL     1     -10.509 -10.728   0.463  0.00  0.00    +0.000 OA
ATOM     21  C   UNL     1      -9.700 -10.571   1.359  0.00  0.00    +0.000 C 
BRANCH  21  22
ATOM     22  O   UNL     1      -9.683  -9.476   2.137  0.00  0.00    +0.000 OA
ATOM     23  H   UNL     1     -10.259  -9.711   2.894  0.00  0.00    +0.000 HD
ENDBRANCH  21  22
ENDBRANCH  16  17
ENDBRANCH  14  15
ENDBRANCH   1  14
TORSDOF 6
ENDMDL
MODEL 9
REMARK VINA RESULT:      -4.5     24.793     27.166
REMARK  Name = RetinoicAcid.pdbqt.pdb
REMARK  6 active torsions:
REMARK  status: ('A' for Active; 'I' for Inactive)
REMARK    1  A    between atoms: C_1  and  C_3
REMARK    2  A    between atoms: C_1  and  C_5
REMARK    3  A    between atoms: C_3  and  C_15
REMARK    4  A    between atoms: C_4  and  C_9
REMARK    5  A    between atoms: C_16  and  C_17
REMARK    6  A    between atoms: C_21  and  O_22
REMARK                            x       y       z     vdW  Elec       q    Type
REMARK                         _______ _______ _______ _____ _____    ______ ____
ROOT
ATOM      1  C   UNL     1     -17.809 -12.985  24.082  0.00  0.00    +0.000 C 
ATOM      2  C   UNL     1     -19.063 -13.126  24.889  0.00  0.00    +0.000 C 
ENDROOT
BRANCH   1   4
ATOM      3  C   UNL     1     -17.669 -13.995  21.669  0.00  0.00    +0.000 C 
ATOM      4  C   UNL     1     -17.738 -13.534  22.778  0.00  0.00    +0.000 C 
BRANCH   3   8
ATOM      5  C   UNL     1     -17.071 -13.648  19.161  0.00  0.00    +0.000 C 
ATOM      6  C   UNL     1     -17.072 -14.463  17.923  0.00  0.00    +0.000 C 
ATOM      7  C   UNL     1     -17.396 -15.855  17.416  0.00  0.00    +0.000 C 
ATOM      8  C   UNL     1     -17.579 -14.547  20.339  0.00  0.00    +0.000 C 
ATOM      9  C   UNL     1     -17.817 -16.344  18.784  0.00  0.00    +0.000 C 
ATOM     10  C   UNL     1     -17.925 -15.838  20.110  0.00  0.00    +0.000 C 
ATOM     11  C   UNL     1     -18.031 -12.439  18.998  0.00  0.00    +0.000 C 
ATOM     12  C   UNL     1     -15.624 -13.178  19.482  0.00  0.00    +0.000 C 
ATOM     13  C   UNL     1     -18.411 -16.788  21.170  0.00  0.00    +0.000 C 
ENDBRANCH   3   8
ENDBRANCH   1   4
BRANCH   1  14
ATOM     14  C   UNL     1     -16.771 -12.403  24.597  0.00  0.00    +0.000 C 
BRANCH  14  15
ATOM     15  C   UNL     1     -15.541 -11.715  25.203  0.00  0.00    +0.000 C 
ATOM     16  C   UNL     1     -14.580 -11.175  25.676  0.00  0.00    +0.000 C 
BRANCH  16  17
ATOM     17  C   UNL     1     -13.447 -10.533  26.233  0.00  0.00    +0.000 C 
ATOM     18  C   UNL     1     -13.113  -9.130  25.828  0.00  0.00    +0.000 C 
ATOM     19  C   UNL     1     -12.688 -11.166  27.062  0.00  0.00    +0.000 C 
ATOM     20  O   UNL     1     -12.128 -11.972  29.168  0.00  0.00    +0.000 OA
ATOM     21  C   UNL     1     -11.867 -11.869  27.984  0.00  0.00    +0.000 C 
BRANCH  21  22
ATOM     22  O   UNL     1     -10.782 -12.433  27.429  0.00  0.00    +0.000 OA
ATOM     23  H   UNL     1     -10.454 -11.756  26.801  0.00  0.00    +0.000 HD
ENDBRANCH  21  22
ENDBRANCH  16  17
ENDBRANCH  14  15
ENDBRANCH   1  14
TORSDOF 6
ENDMDL
