MODEL 1
REMARK VINA RESULT:      -6.5      0.000      0.000
REMARK  Name = SB_202190.pdbqt.pdb
REMARK  4 active torsions:
REMARK  status: ('A' for Active; 'I' for Inactive)
REMARK    1  A    between atoms: C_4  and  C_7
REMARK    2  A    between atoms: C_5  and  C_19
REMARK    3  A    between atoms: C_6  and  C_8
REMARK    4  A    between atoms: C_15  and  O_26
REMARK                            x       y       z     vdW  Elec       q    Type
REMARK                         _______ _______ _______ _____ _____    ______ ____
ROOT
ATOM      1  N   UNL     1      -7.637   7.254   1.956  0.00  0.00    +0.000 N 
ATOM      2  N   UNL     1      -6.477   7.716   3.765  0.00  0.00    +0.000 NA
ATOM      3  C   UNL     1      -8.302   6.606   2.977  0.00  0.00    +0.000 A 
ATOM      4  C   UNL     1      -7.531   6.892   4.095  0.00  0.00    +0.000 A 
ATOM      5  C   UNL     1      -6.552   7.925   2.468  0.00  0.00    +0.000 A 
ATOM      6  H   UNL     1      -7.920   7.270   0.986  0.00  0.00    +0.000 HD
ENDROOT
BRANCH   4   7
ATOM      7  C   UNL     1      -7.718   6.423   5.452  0.00  0.00    +0.000 A 
ATOM      8  C   UNL     1      -8.294   7.237   6.429  0.00  0.00    +0.000 A 
ATOM      9  C   UNL     1      -8.509   6.754   7.718  0.00  0.00    +0.000 A 
ATOM     10  C   UNL     1      -8.159   5.443   8.019  0.00  0.00    +0.000 A 
ATOM     11  F   UNL     1      -8.360   4.976   9.258  0.00  0.00    +0.000 F 
ATOM     12  C   UNL     1      -7.601   4.610   7.056  0.00  0.00    +0.000 A 
ATOM     13  C   UNL     1      -7.389   5.102   5.770  0.00  0.00    +0.000 A 
ENDBRANCH   4   7
BRANCH   3  15
ATOM     14  N   UNL     1     -11.951   4.506   2.293  0.00  0.00    +0.000 NA
ATOM     15  C   UNL     1      -9.544   5.873   2.754  0.00  0.00    +0.000 A 
ATOM     16  C   UNL     1     -10.573   5.910   3.693  0.00  0.00    +0.000 A 
ATOM     17  C   UNL     1      -9.739   5.154   1.575  0.00  0.00    +0.000 A 
ATOM     18  C   UNL     1     -11.740   5.216   3.422  0.00  0.00    +0.000 A 
ATOM     19  C   UNL     1     -10.942   4.491   1.398  0.00  0.00    +0.000 A 
ENDBRANCH   3  15
BRANCH   5  20
ATOM     20  C   UNL     1      -5.640   8.737   1.670  0.00  0.00    +0.000 A 
ATOM     21  C   UNL     1      -4.942   9.789   2.270  0.00  0.00    +0.000 A 
ATOM     22  C   UNL     1      -5.446   8.486   0.308  0.00  0.00    +0.000 A 
ATOM     23  C   UNL     1      -4.066  10.578   1.528  0.00  0.00    +0.000 A 
ATOM     24  C   UNL     1      -4.573   9.270  -0.442  0.00  0.00    +0.000 A 
ATOM     25  C   UNL     1      -3.889  10.310   0.175  0.00  0.00    +0.000 A 
BRANCH  25  26
ATOM     26  O   UNL     1      -3.038  11.064  -0.579  0.00  0.00    +0.000 OA
ATOM     27  H   UNL     1      -3.512  11.350  -1.379  0.00  0.00    +0.000 HD
ENDBRANCH  25  26
ENDBRANCH   5  20
TORSDOF 4
ENDMDL
MODEL 2
REMARK VINA RESULT:      -6.4      4.651      6.540
REMARK  Name = SB_202190.pdbqt.pdb
REMARK  4 active torsions:
REMARK  status: ('A' for Active; 'I' for Inactive)
REMARK    1  A    between atoms: C_4  and  C_7
REMARK    2  A    between atoms: C_5  and  C_19
REMARK    3  A    between atoms: C_6  and  C_8
REMARK    4  A    between atoms: C_15  and  O_26
REMARK                            x       y       z     vdW  Elec       q    Type
REMARK                         _______ _______ _______ _____ _____    ______ ____
ROOT
ATOM      1  N   UNL     1     -12.599   5.812   3.436  0.00  0.00    +0.000 N 
ATOM      2  N   UNL     1     -10.587   4.945   3.246  0.00  0.00    +0.000 NA
ATOM      3  C   UNL     1     -11.950   6.165   4.602  0.00  0.00    +0.000 A 
ATOM      4  C   UNL     1     -10.699   5.579   4.464  0.00  0.00    +0.000 A 
ATOM      5  C   UNL     1     -11.744   5.091   2.636  0.00  0.00    +0.000 A 
ATOM      6  H   UNL     1     -13.542   6.072   3.185  0.00  0.00    +0.000 HD
ENDROOT
BRANCH   4   7
ATOM      7  C   UNL     1      -9.609   5.569   5.417  0.00  0.00    +0.000 A 
ATOM      8  C   UNL     1      -9.846   5.517   6.792  0.00  0.00    +0.000 A 
ATOM      9  C   UNL     1      -8.785   5.461   7.693  0.00  0.00    +0.000 A 
ATOM     10  C   UNL     1      -7.482   5.440   7.207  0.00  0.00    +0.000 A 
ATOM     11  F   UNL     1      -6.459   5.391   8.070  0.00  0.00    +0.000 F 
ATOM     12  C   UNL     1      -7.225   5.472   5.842  0.00  0.00    +0.000 A 
ATOM     13  C   UNL     1      -8.293   5.529   4.949  0.00  0.00    +0.000 A 
ENDBRANCH   4   7
BRANCH   3  15
ATOM     14  N   UNL     1     -13.831   8.625   7.536  0.00  0.00    +0.000 NA
ATOM     15  C   UNL     1     -12.578   7.005   5.617  0.00  0.00    +0.000 A 
ATOM     16  C   UNL     1     -12.325   8.375   5.664  0.00  0.00    +0.000 A 
ATOM     17  C   UNL     1     -13.474   6.457   6.534  0.00  0.00    +0.000 A 
ATOM     18  C   UNL     1     -12.965   9.131   6.632  0.00  0.00    +0.000 A 
ATOM     19  C   UNL     1     -14.062   7.298   7.465  0.00  0.00    +0.000 A 
ENDBRANCH   3  15
BRANCH   5  20
ATOM     20  C   UNL     1     -12.095   4.580   1.315  0.00  0.00    +0.000 A 
ATOM     21  C   UNL     1     -12.708   3.330   1.196  0.00  0.00    +0.000 A 
ATOM     22  C   UNL     1     -11.831   5.317   0.157  0.00  0.00    +0.000 A 
ATOM     23  C   UNL     1     -13.052   2.821  -0.054  0.00  0.00    +0.000 A 
ATOM     24  C   UNL     1     -12.171   4.817  -1.098  0.00  0.00    +0.000 A 
ATOM     25  C   UNL     1     -12.780   3.572  -1.193  0.00  0.00    +0.000 A 
BRANCH  25  26
ATOM     26  O   UNL     1     -13.105   3.101  -2.431  0.00  0.00    +0.000 OA
ATOM     27  H   UNL     1     -12.974   3.820  -3.074  0.00  0.00    +0.000 HD
ENDBRANCH  25  26
ENDBRANCH   5  20
TORSDOF 4
ENDMDL
MODEL 3
REMARK VINA RESULT:      -6.3      2.177      4.404
REMARK  Name = SB_202190.pdbqt.pdb
REMARK  4 active torsions:
REMARK  status: ('A' for Active; 'I' for Inactive)
REMARK    1  A    between atoms: C_4  and  C_7
REMARK    2  A    between atoms: C_5  and  C_19
REMARK    3  A    between atoms: C_6  and  C_8
REMARK    4  A    between atoms: C_15  and  O_26
REMARK                            x       y       z     vdW  Elec       q    Type
REMARK                         _______ _______ _______ _____ _____    ______ ____
ROOT
ATOM      1  N   UNL     1      -6.833   7.596   3.698  0.00  0.00    +0.000 N 
ATOM      2  N   UNL     1      -7.812   7.240   1.762  0.00  0.00    +0.000 NA
ATOM      3  C   UNL     1      -7.889   6.754   3.984  0.00  0.00    +0.000 A 
ATOM      4  C   UNL     1      -8.501   6.575   2.752  0.00  0.00    +0.000 A 
ATOM      5  C   UNL     1      -6.807   7.855   2.348  0.00  0.00    +0.000 A 
ATOM      6  H   UNL     1      -6.156   7.939   4.364  0.00  0.00    +0.000 HD
ENDROOT
BRANCH   4   7
ATOM      7  C   UNL     1      -9.704   5.827   2.453  0.00  0.00    +0.000 A 
ATOM      8  C   UNL     1     -10.908   6.095   3.108  0.00  0.00    +0.000 A 
ATOM      9  C   UNL     1     -12.067   5.397   2.775  0.00  0.00    +0.000 A 
ATOM     10  C   UNL     1     -12.017   4.438   1.770  0.00  0.00    +0.000 A 
ATOM     11  F   UNL     1     -13.128   3.761   1.451  0.00  0.00    +0.000 F 
ATOM     12  C   UNL     1     -10.833   4.168   1.094  0.00  0.00    +0.000 A 
ATOM     13  C   UNL     1      -9.680   4.871   1.434  0.00  0.00    +0.000 A 
ENDBRANCH   4   7
BRANCH   3  15
ATOM     14  N   UNL     1      -8.553   5.280   7.932  0.00  0.00    +0.000 NA
ATOM     15  C   UNL     1      -8.127   6.235   5.328  0.00  0.00    +0.000 A 
ATOM     16  C   UNL     1      -7.367   5.181   5.830  0.00  0.00    +0.000 A 
ATOM     17  C   UNL     1      -9.095   6.815   6.148  0.00  0.00    +0.000 A 
ATOM     18  C   UNL     1      -7.618   4.743   7.120  0.00  0.00    +0.000 A 
ATOM     19  C   UNL     1      -9.271   6.302   7.423  0.00  0.00    +0.000 A 
ENDBRANCH   3  15
BRANCH   5  20
ATOM     20  C   UNL     1      -5.804   8.690   1.695  0.00  0.00    +0.000 A 
ATOM     21  C   UNL     1      -5.501   8.482   0.346  0.00  0.00    +0.000 A 
ATOM     22  C   UNL     1      -5.136   9.701   2.390  0.00  0.00    +0.000 A 
ATOM     23  C   UNL     1      -4.548   9.266  -0.299  0.00  0.00    +0.000 A 
ATOM     24  C   UNL     1      -4.181  10.491   1.754  0.00  0.00    +0.000 A 
ATOM     25  C   UNL     1      -3.895  10.267   0.413  0.00  0.00    +0.000 A 
BRANCH  25  26
ATOM     26  O   UNL     1      -2.957  11.052  -0.191  0.00  0.00    +0.000 OA
ATOM     27  H   UNL     1      -3.280  11.970  -0.187  0.00  0.00    +0.000 HD
ENDBRANCH  25  26
ENDBRANCH   5  20
TORSDOF 4
ENDMDL
MODEL 4
REMARK VINA RESULT:      -6.1     24.147     26.805
REMARK  Name = SB_202190.pdbqt.pdb
REMARK  4 active torsions:
REMARK  status: ('A' for Active; 'I' for Inactive)
REMARK    1  A    between atoms: C_4  and  C_7
REMARK    2  A    between atoms: C_5  and  C_19
REMARK    3  A    between atoms: C_6  and  C_8
REMARK    4  A    between atoms: C_15  and  O_26
REMARK                            x       y       z     vdW  Elec       q    Type
REMARK                         _______ _______ _______ _____ _____    ______ ____
ROOT
ATOM      1  N   UNL     1     -12.108 -17.276  13.076  0.00  0.00    +0.000 N 
ATOM      2  N   UNL     1     -14.041 -16.231  13.155  0.00  0.00    +0.000 NA
ATOM      3  C   UNL     1     -12.240 -16.680  11.837  0.00  0.00    +0.000 A 
ATOM      4  C   UNL     1     -13.479 -16.058  11.910  0.00  0.00    +0.000 A 
ATOM      5  C   UNL     1     -13.203 -16.972  13.850  0.00  0.00    +0.000 A 
ATOM      6  H   UNL     1     -11.315 -17.819  13.386  0.00  0.00    +0.000 HD
ENDROOT
BRANCH   4   7
ATOM      7  C   UNL     1     -14.170 -15.322  10.872  0.00  0.00    +0.000 A 
ATOM      8  C   UNL     1     -13.966 -15.607   9.520  0.00  0.00    +0.000 A 
ATOM      9  C   UNL     1     -14.673 -14.920   8.537  0.00  0.00    +0.000 A 
ATOM     10  C   UNL     1     -15.601 -13.956   8.915  0.00  0.00    +0.000 A 
ATOM     11  F   UNL     1     -16.280 -13.290   7.972  0.00  0.00    +0.000 F 
ATOM     12  C   UNL     1     -15.832 -13.670  10.256  0.00  0.00    +0.000 A 
ATOM     13  C   UNL     1     -15.119 -14.361  11.232  0.00  0.00    +0.000 A 
ENDBRANCH   4   7
BRANCH   3  15
ATOM     14  N   UNL     1      -9.147 -16.927   8.910  0.00  0.00    +0.000 NA
ATOM     15  C   UNL     1     -11.194 -16.757  10.822  0.00  0.00    +0.000 A 
ATOM     16  C   UNL     1     -10.385 -15.656  10.548  0.00  0.00    +0.000 A 
ATOM     17  C   UNL     1     -10.959 -17.949  10.138  0.00  0.00    +0.000 A 
ATOM     18  C   UNL     1      -9.391 -15.789   9.592  0.00  0.00    +0.000 A 
ATOM     19  C   UNL     1      -9.941 -17.980   9.198  0.00  0.00    +0.000 A 
ENDBRANCH   3  15
BRANCH   5  20
ATOM     20  C   UNL     1     -13.380 -17.418  15.227  0.00  0.00    +0.000 A 
ATOM     21  C   UNL     1     -12.529 -18.391  15.756  0.00  0.00    +0.000 A 
ATOM     22  C   UNL     1     -14.389 -16.889  16.038  0.00  0.00    +0.000 A 
ATOM     23  C   UNL     1     -12.679 -18.832  17.069  0.00  0.00    +0.000 A 
ATOM     24  C   UNL     1     -14.548 -17.323  17.351  0.00  0.00    +0.000 A 
ATOM     25  C   UNL     1     -13.690 -18.292  17.857  0.00  0.00    +0.000 A 
BRANCH  25  26
ATOM     26  O   UNL     1     -13.863 -18.702  19.147  0.00  0.00    +0.000 OA
ATOM     27  H   UNL     1     -14.751 -19.093  19.226  0.00  0.00    +0.000 HD
ENDBRANCH  25  26
ENDBRANCH   5  20
TORSDOF 4
ENDMDL
MODEL 5
REMARK VINA RESULT:      -6.0     16.066     17.224
REMARK  Name = SB_202190.pdbqt.pdb
REMARK  4 active torsions:
REMARK  status: ('A' for Active; 'I' for Inactive)
REMARK    1  A    between atoms: C_4  and  C_7
REMARK    2  A    between atoms: C_5  and  C_19
REMARK    3  A    between atoms: C_6  and  C_8
REMARK    4  A    between atoms: C_15  and  O_26
REMARK                            x       y       z     vdW  Elec       q    Type
REMARK                         _______ _______ _______ _____ _____    ______ ____
ROOT
ATOM      1  N   UNL     1     -10.897  -9.255   3.122  0.00  0.00    +0.000 N 
ATOM      2  N   UNL     1     -11.457  -8.649   1.085  0.00  0.00    +0.000 NA
ATOM      3  C   UNL     1     -12.224  -8.887   3.215  0.00  0.00    +0.000 A 
ATOM      4  C   UNL     1     -12.536  -8.483   1.924  0.00  0.00    +0.000 A 
ATOM      5  C   UNL     1     -10.471  -9.114   1.823  0.00  0.00    +0.000 A 
ATOM      6  H   UNL     1     -10.331  -9.611   3.879  0.00  0.00    +0.000 HD
ENDROOT
BRANCH   4   7
ATOM      7  C   UNL     1     -13.786  -7.936   1.438  0.00  0.00    +0.000 A 
ATOM      8  C   UNL     1     -14.478  -6.957   2.153  0.00  0.00    +0.000 A 
ATOM      9  C   UNL     1     -15.655  -6.410   1.649  0.00  0.00    +0.000 A 
ATOM     10  C   UNL     1     -16.127  -6.836   0.413  0.00  0.00    +0.000 A 
ATOM     11  F   UNL     1     -17.261  -6.315  -0.074  0.00  0.00    +0.000 F 
ATOM     12  C   UNL     1     -15.444  -7.796  -0.324  0.00  0.00    +0.000 A 
ATOM     13  C   UNL     1     -14.268  -8.339   0.190  0.00  0.00    +0.000 A 
ENDBRANCH   4   7
BRANCH   3  15
ATOM     14  N   UNL     1     -14.466  -9.193   6.831  0.00  0.00    +0.000 NA
ATOM     15  C   UNL     1     -12.979  -9.006   4.459  0.00  0.00    +0.000 A 
ATOM     16  C   UNL     1     -12.562  -8.344   5.611  0.00  0.00    +0.000 A 
ATOM     17  C   UNL     1     -14.156  -9.753   4.503  0.00  0.00    +0.000 A 
ATOM     18  C   UNL     1     -13.328  -8.470   6.759  0.00  0.00    +0.000 A 
ATOM     19  C   UNL     1     -14.850  -9.819   5.700  0.00  0.00    +0.000 A 
ENDBRANCH   3  15
BRANCH   5  20
ATOM     20  C   UNL     1      -9.126  -9.439   1.363  0.00  0.00    +0.000 A 
ATOM     21  C   UNL     1      -8.774 -10.772   1.134  0.00  0.00    +0.000 A 
ATOM     22  C   UNL     1      -8.172  -8.441   1.142  0.00  0.00    +0.000 A 
ATOM     23  C   UNL     1      -7.496 -11.106   0.694  0.00  0.00    +0.000 A 
ATOM     24  C   UNL     1      -6.891  -8.764   0.703  0.00  0.00    +0.000 A 
ATOM     25  C   UNL     1      -6.563 -10.096   0.482  0.00  0.00    +0.000 A 
BRANCH  25  26
ATOM     26  O   UNL     1      -5.303 -10.391   0.050  0.00  0.00    +0.000 OA
ATOM     27  H   UNL     1      -4.730  -9.627   0.237  0.00  0.00    +0.000 HD
ENDBRANCH  25  26
ENDBRANCH   5  20
TORSDOF 4
ENDMDL
MODEL 6
REMARK VINA RESULT:      -5.8      1.863      2.499
REMARK  Name = SB_202190.pdbqt.pdb
REMARK  4 active torsions:
REMARK  status: ('A' for Active; 'I' for Inactive)
REMARK    1  A    between atoms: C_4  and  C_7
REMARK    2  A    between atoms: C_5  and  C_19
REMARK    3  A    between atoms: C_6  and  C_8
REMARK    4  A    between atoms: C_15  and  O_26
REMARK                            x       y       z     vdW  Elec       q    Type
REMARK                         _______ _______ _______ _____ _____    ______ ____
ROOT
ATOM      1  N   UNL     1      -8.491   8.307   3.350  0.00  0.00    +0.000 N 
ATOM      2  N   UNL     1      -6.780   7.776   4.625  0.00  0.00    +0.000 NA
ATOM      3  C   UNL     1      -9.053   7.850   4.526  0.00  0.00    +0.000 A 
ATOM      4  C   UNL     1      -7.951   7.497   5.293  0.00  0.00    +0.000 A 
ATOM      5  C   UNL     1      -7.121   8.263   3.450  0.00  0.00    +0.000 A 
ATOM      6  H   UNL     1      -9.000   8.657   2.552  0.00  0.00    +0.000 HD
ENDROOT
BRANCH   4   7
ATOM      7  C   UNL     1      -7.937   6.899   6.612  0.00  0.00    +0.000 A 
ATOM      8  C   UNL     1      -8.395   5.597   6.824  0.00  0.00    +0.000 A 
ATOM      9  C   UNL     1      -8.332   5.021   8.090  0.00  0.00    +0.000 A 
ATOM     10  C   UNL     1      -7.790   5.751   9.142  0.00  0.00    +0.000 A 
ATOM     11  F   UNL     1      -7.731   5.202  10.362  0.00  0.00    +0.000 F 
ATOM     12  C   UNL     1      -7.311   7.041   8.948  0.00  0.00    +0.000 A 
ATOM     13  C   UNL     1      -7.380   7.609   7.678  0.00  0.00    +0.000 A 
ENDBRANCH   4   7
BRANCH   3  15
ATOM     14  N   UNL     1     -13.259   7.844   5.237  0.00  0.00    +0.000 NA
ATOM     15  C   UNL     1     -10.495   7.853   4.751  0.00  0.00    +0.000 A 
ATOM     16  C   UNL     1     -11.269   6.741   4.427  0.00  0.00    +0.000 A 
ATOM     17  C   UNL     1     -11.118   8.957   5.332  0.00  0.00    +0.000 A 
ATOM     18  C   UNL     1     -12.630   6.786   4.682  0.00  0.00    +0.000 A 
ATOM     19  C   UNL     1     -12.486   8.905   5.546  0.00  0.00    +0.000 A 
ENDBRANCH   3  15
BRANCH   5  20
ATOM     20  C   UNL     1      -6.209   8.698   2.397  0.00  0.00    +0.000 A 
ATOM     21  C   UNL     1      -5.304   9.733   2.647  0.00  0.00    +0.000 A 
ATOM     22  C   UNL     1      -6.219   8.098   1.135  0.00  0.00    +0.000 A 
ATOM     23  C   UNL     1      -4.424  10.165   1.658  0.00  0.00    +0.000 A 
ATOM     24  C   UNL     1      -5.343   8.523   0.138  0.00  0.00    +0.000 A 
ATOM     25  C   UNL     1      -4.452   9.553   0.409  0.00  0.00    +0.000 A 
BRANCH  25  26
ATOM     26  O   UNL     1      -3.602   9.953  -0.581  0.00  0.00    +0.000 OA
ATOM     27  H   UNL     1      -3.480  10.916  -0.507  0.00  0.00    +0.000 HD
ENDBRANCH  25  26
ENDBRANCH   5  20
TORSDOF 4
ENDMDL
MODEL 7
REMARK VINA RESULT:      -5.6      2.214      4.331
REMARK  Name = SB_202190.pdbqt.pdb
REMARK  4 active torsions:
REMARK  status: ('A' for Active; 'I' for Inactive)
REMARK    1  A    between atoms: C_4  and  C_7
REMARK    2  A    between atoms: C_5  and  C_19
REMARK    3  A    between atoms: C_6  and  C_8
REMARK    4  A    between atoms: C_15  and  O_26
REMARK                            x       y       z     vdW  Elec       q    Type
REMARK                         _______ _______ _______ _____ _____    ______ ____
ROOT
ATOM      1  N   UNL     1      -6.362   7.891   4.044  0.00  0.00    +0.000 N 
ATOM      2  N   UNL     1      -8.050   8.257   2.684  0.00  0.00    +0.000 NA
ATOM      3  C   UNL     1      -7.474   7.452   4.734  0.00  0.00    +0.000 A 
ATOM      4  C   UNL     1      -8.521   7.724   3.864  0.00  0.00    +0.000 A 
ATOM      5  C   UNL     1      -6.743   8.355   2.807  0.00  0.00    +0.000 A 
ATOM      6  H   UNL     1      -5.409   7.846   4.374  0.00  0.00    +0.000 HD
ENDROOT
BRANCH   4   7
ATOM      7  C   UNL     1      -9.938   7.525   4.083  0.00  0.00    +0.000 A 
ATOM      8  C   UNL     1     -10.497   6.246   4.113  0.00  0.00    +0.000 A 
ATOM      9  C   UNL     1     -11.854   6.070   4.371  0.00  0.00    +0.000 A 
ATOM     10  C   UNL     1     -12.648   7.185   4.615  0.00  0.00    +0.000 A 
ATOM     11  F   UNL     1     -13.955   7.021   4.859  0.00  0.00    +0.000 F 
ATOM     12  C   UNL     1     -12.109   8.466   4.608  0.00  0.00    +0.000 A 
ATOM     13  C   UNL     1     -10.750   8.631   4.348  0.00  0.00    +0.000 A 
ENDBRANCH   4   7
BRANCH   3  15
ATOM     14  N   UNL     1      -7.238   5.605   8.572  0.00  0.00    +0.000 NA
ATOM     15  C   UNL     1      -7.377   6.829   6.051  0.00  0.00    +0.000 A 
ATOM     16  C   UNL     1      -7.823   7.497   7.190  0.00  0.00    +0.000 A 
ATOM     17  C   UNL     1      -6.871   5.537   6.186  0.00  0.00    +0.000 A 
ATOM     18  C   UNL     1      -7.730   6.851   8.412  0.00  0.00    +0.000 A 
ATOM     19  C   UNL     1      -6.818   4.979   7.453  0.00  0.00    +0.000 A 
ENDBRANCH   3  15
BRANCH   5  20
ATOM     20  C   UNL     1      -5.817   8.871   1.806  0.00  0.00    +0.000 A 
ATOM     21  C   UNL     1      -5.789   8.304   0.529  0.00  0.00    +0.000 A 
ATOM     22  C   UNL     1      -4.950   9.929   2.094  0.00  0.00    +0.000 A 
ATOM     23  C   UNL     1      -4.914   8.780  -0.444  0.00  0.00    +0.000 A 
ATOM     24  C   UNL     1      -4.071  10.413   1.129  0.00  0.00    +0.000 A 
ATOM     25  C   UNL     1      -4.060   9.834  -0.134  0.00  0.00    +0.000 A 
BRANCH  25  26
ATOM     26  O   UNL     1      -3.191  10.323  -1.065  0.00  0.00    +0.000 OA
ATOM     27  H   UNL     1      -2.286  10.208  -0.726  0.00  0.00    +0.000 HD
ENDBRANCH  25  26
ENDBRANCH   5  20
TORSDOF 4
ENDMDL
MODEL 8
REMARK VINA RESULT:      -5.6     21.066     23.867
REMARK  Name = SB_202190.pdbqt.pdb
REMARK  4 active torsions:
REMARK  status: ('A' for Active; 'I' for Inactive)
REMARK    1  A    between atoms: C_4  and  C_7
REMARK    2  A    between atoms: C_5  and  C_19
REMARK    3  A    between atoms: C_6  and  C_8
REMARK    4  A    between atoms: C_15  and  O_26
REMARK                            x       y       z     vdW  Elec       q    Type
REMARK                         _______ _______ _______ _____ _____    ______ ____
ROOT
ATOM      1  N   UNL     1      -9.855 -14.345   6.250  0.00  0.00    +0.000 N 
ATOM      2  N   UNL     1      -9.683 -16.532   6.114  0.00  0.00    +0.000 NA
ATOM      3  C   UNL     1      -9.343 -14.582   4.990  0.00  0.00    +0.000 A 
ATOM      4  C   UNL     1      -9.219 -15.964   4.948  0.00  0.00    +0.000 A 
ATOM      5  C   UNL     1     -10.062 -15.542   6.894  0.00  0.00    +0.000 A 
ATOM      6  H   UNL     1     -10.081 -13.438   6.632  0.00  0.00    +0.000 HD
ENDROOT
BRANCH   4   7
ATOM      7  C   UNL     1      -8.676 -16.779   3.882  0.00  0.00    +0.000 A 
ATOM      8  C   UNL     1      -7.443 -17.421   4.013  0.00  0.00    +0.000 A 
ATOM      9  C   UNL     1      -6.957 -18.238   2.996  0.00  0.00    +0.000 A 
ATOM     10  C   UNL     1      -7.723 -18.424   1.850  0.00  0.00    +0.000 A 
ATOM     11  F   UNL     1      -7.257 -19.206   0.867  0.00  0.00    +0.000 F 
ATOM     12  C   UNL     1      -8.961 -17.809   1.707  0.00  0.00    +0.000 A 
ATOM     13  C   UNL     1      -9.438 -16.993   2.730  0.00  0.00    +0.000 A 
ENDBRANCH   4   7
BRANCH   3  15
ATOM     14  N   UNL     1      -8.628 -11.470   2.162  0.00  0.00    +0.000 NA
ATOM     15  C   UNL     1      -9.093 -13.505   4.037  0.00  0.00    +0.000 A 
ATOM     16  C   UNL     1      -7.805 -13.251   3.570  0.00  0.00    +0.000 A 
ATOM     17  C   UNL     1     -10.149 -12.737   3.546  0.00  0.00    +0.000 A 
ATOM     18  C   UNL     1      -7.626 -12.233   2.648  0.00  0.00    +0.000 A 
ATOM     19  C   UNL     1      -9.866 -11.740   2.626  0.00  0.00    +0.000 A 
ENDBRANCH   3  15
BRANCH   5  20
ATOM     20  C   UNL     1     -10.619 -15.663   8.236  0.00  0.00    +0.000 A 
ATOM     21  C   UNL     1     -12.005 -15.717   8.410  0.00  0.00    +0.000 A 
ATOM     22  C   UNL     1      -9.793 -15.729   9.362  0.00  0.00    +0.000 A 
ATOM     23  C   UNL     1     -12.560 -15.833   9.682  0.00  0.00    +0.000 A 
ATOM     24  C   UNL     1     -10.338 -15.845  10.639  0.00  0.00    +0.000 A 
ATOM     25  C   UNL     1     -11.718 -15.897  10.788  0.00  0.00    +0.000 A 
BRANCH  25  26
ATOM     26  O   UNL     1     -12.231 -16.011  12.048  0.00  0.00    +0.000 OA
ATOM     27  H   UNL     1     -12.961 -16.654  12.022  0.00  0.00    +0.000 HD
ENDBRANCH  25  26
ENDBRANCH   5  20
TORSDOF 4
ENDMDL
MODEL 9
REMARK VINA RESULT:      -5.5     16.386     18.099
REMARK  Name = SB_202190.pdbqt.pdb
REMARK  4 active torsions:
REMARK  status: ('A' for Active; 'I' for Inactive)
REMARK    1  A    between atoms: C_4  and  C_7
REMARK    2  A    between atoms: C_5  and  C_19
REMARK    3  A    between atoms: C_6  and  C_8
REMARK    4  A    between atoms: C_15  and  O_26
REMARK                            x       y       z     vdW  Elec       q    Type
REMARK                         _______ _______ _______ _____ _____    ______ ____
ROOT
ATOM      1  N   UNL     1     -11.899  -9.508   4.205  0.00  0.00    +0.000 N 
ATOM      2  N   UNL     1     -12.713  -9.762   2.178  0.00  0.00    +0.000 NA
ATOM      3  C   UNL     1     -13.088  -8.807   4.210  0.00  0.00    +0.000 A 
ATOM      4  C   UNL     1     -13.559  -8.961   2.914  0.00  0.00    +0.000 A 
ATOM      5  C   UNL     1     -11.712 -10.084   2.971  0.00  0.00    +0.000 A 
ATOM      6  H   UNL     1     -11.277  -9.620   4.993  0.00  0.00    +0.000 HD
ENDROOT
BRANCH   4   7
ATOM      7  C   UNL     1     -14.750  -8.387   2.323  0.00  0.00    +0.000 A 
ATOM      8  C   UNL     1     -15.964  -9.076   2.320  0.00  0.00    +0.000 A 
ATOM      9  C   UNL     1     -17.110  -8.491   1.789  0.00  0.00    +0.000 A 
ATOM     10  C   UNL     1     -17.037  -7.202   1.274  0.00  0.00    +0.000 A 
ATOM     11  F   UNL     1     -18.137  -6.636   0.757  0.00  0.00    +0.000 F 
ATOM     12  C   UNL     1     -15.843  -6.491   1.283  0.00  0.00    +0.000 A 
ATOM     13  C   UNL     1     -14.702  -7.086   1.816  0.00  0.00    +0.000 A 
ENDBRANCH   4   7
BRANCH   3  15
ATOM     14  N   UNL     1     -14.535  -6.855   7.717  0.00  0.00    +0.000 NA
ATOM     15  C   UNL     1     -13.598  -8.151   5.411  0.00  0.00    +0.000 A 
ATOM     16  C   UNL     1     -13.301  -8.652   6.677  0.00  0.00    +0.000 A 
ATOM     17  C   UNL     1     -14.359  -6.987   5.312  0.00  0.00    +0.000 A 
ATOM     18  C   UNL     1     -13.790  -7.978   7.785  0.00  0.00    +0.000 A 
ATOM     19  C   UNL     1     -14.803  -6.389   6.480  0.00  0.00    +0.000 A 
ENDBRANCH   3  15
BRANCH   5  20
ATOM     20  C   UNL     1     -10.568 -10.919   2.622  0.00  0.00    +0.000 A 
ATOM     21  C   UNL     1     -10.301 -12.073   3.363  0.00  0.00    +0.000 A 
ATOM     22  C   UNL     1      -9.727 -10.591   1.554  0.00  0.00    +0.000 A 
ATOM     23  C   UNL     1      -9.215 -12.887   3.048  0.00  0.00    +0.000 A 
ATOM     24  C   UNL     1      -8.639 -11.397   1.232  0.00  0.00    +0.000 A 
ATOM     25  C   UNL     1      -8.392 -12.540   1.982  0.00  0.00    +0.000 A 
BRANCH  25  26
ATOM     26  O   UNL     1      -7.320 -13.316   1.648  0.00  0.00    +0.000 OA
ATOM     27  H   UNL     1      -6.661 -12.752   1.207  0.00  0.00    +0.000 HD
ENDBRANCH  25  26
ENDBRANCH   5  20
TORSDOF 4
ENDMDL
