MODEL 1
REMARK VINA RESULT:      -6.5      0.000      0.000
REMARK  Name = Simvastatin.pdbqt.pdb
REMARK  7 active torsions:
REMARK  status: ('A' for Active; 'I' for Inactive)
REMARK    1  A    between atoms: C_2  and  C_13
REMARK    2  A    between atoms: C_3  and  O_24
REMARK    3  A    between atoms: C_14  and  C_15
REMARK    4  A    between atoms: C_20  and  O_22
REMARK    5  A    between atoms: O_24  and  C_25
REMARK    6  A    between atoms: C_25  and  C_27
REMARK    7  A    between atoms: C_27  and  C_30
REMARK                            x       y       z     vdW  Elec       q    Type
REMARK                         _______ _______ _______ _____ _____    ______ ____
ROOT
ATOM      1  C   UNL     1       6.051 -12.503  11.617  0.00  0.00    +0.000 A 
ATOM      2  C   UNL     1       5.223 -11.267  11.896  0.00  0.00    +0.000 A 
ATOM      3  C   UNL     1       7.516 -12.511  11.269  0.00  0.00    +0.000 A 
ATOM      4  C   UNL     1       3.875 -11.403  12.511  0.00  0.00    +0.000 A 
ATOM      5  C   UNL     1       5.344 -13.865  11.785  0.00  0.00    +0.000 A 
ATOM      6  C   UNL     1       8.032 -13.849  11.169  0.00  0.00    +0.000 A 
ATOM      7  C   UNL     1       7.465 -15.148  11.366  0.00  0.00    +0.000 A 
ATOM      8  C   UNL     1       6.091 -14.924  11.679  0.00  0.00    +0.000 A 
ATOM      9  C   UNL     1       3.492 -12.766  12.677  0.00  0.00    +0.000 A 
ATOM     10  C   UNL     1       4.071 -13.775  12.390  0.00  0.00    +0.000 A 
ATOM     11  C   UNL     1       2.944 -10.288  12.879  0.00  0.00    +0.000 C 
ATOM     12  C   UNL     1       8.244 -16.197  12.093  0.00  0.00    +0.000 C 
ENDROOT
BRANCH   2  13
ATOM     13  C   UNL     1       5.649 -10.013  11.369  0.00  0.00    +0.000 C 
ATOM     14  C   UNL     1       6.079  -8.631  10.862  0.00  0.00    +0.000 C 
BRANCH  14  15
ATOM     15  C   UNL     1       6.470  -7.333  10.453  0.00  0.00    +0.000 C 
ATOM     16  O   UNL     1       7.439  -7.226   9.389  0.00  0.00    +0.000 OA
ATOM     17  C   UNL     1       7.904  -5.973   8.978  0.00  0.00    +0.000 C 
ATOM     18  O   UNL     1       8.722  -5.805   8.087  0.00  0.00    +0.000 OA
ATOM     19  C   UNL     1       7.337  -4.867   9.710  0.00  0.00    +0.000 C 
ATOM     20  C   UNL     1       6.406  -4.779  10.766  0.00  0.00    +0.000 C 
ATOM     21  C   UNL     1       6.045  -6.116  11.047  0.00  0.00    +0.000 C 
BRANCH  20  22
ATOM     22  O   UNL     1       6.513  -3.821  11.732  0.00  0.00    +0.000 OA
ATOM     23  H   UNL     1       5.804  -3.153  11.676  0.00  0.00    +0.000 HD
ENDBRANCH  20  22
ENDBRANCH  14  15
ENDBRANCH   2  13
BRANCH   3  24
ATOM     24  O   UNL     1       8.288 -11.553  11.933  0.00  0.00    +0.000 OA
BRANCH  24  25
ATOM     25  C   UNL     1       9.146 -10.882  11.081  0.00  0.00    +0.000 C 
ATOM     26  O   UNL     1       8.814 -10.467   9.969  0.00  0.00    +0.000 OA
BRANCH  25  27
ATOM     27  C   UNL     1      10.575 -10.750  11.714  0.00  0.00    +0.000 C 
ATOM     28  C   UNL     1      10.463 -10.032  13.111  0.00  0.00    +0.000 C 
ATOM     29  C   UNL     1      11.531  -9.900  10.783  0.00  0.00    +0.000 C 
BRANCH  27  30
ATOM     30  C   UNL     1      11.121 -12.128  11.861  0.00  0.00    +0.000 C 
ATOM     31  C   UNL     1      11.699 -13.560  12.062  0.00  0.00    +0.000 C 
ENDBRANCH  27  30
ENDBRANCH  25  27
ENDBRANCH  24  25
ENDBRANCH   3  24
TORSDOF 7
ENDMDL
MODEL 2
REMARK VINA RESULT:      -6.2      1.243      1.602
REMARK  Name = Simvastatin.pdbqt.pdb
REMARK  7 active torsions:
REMARK  status: ('A' for Active; 'I' for Inactive)
REMARK    1  A    between atoms: C_2  and  C_13
REMARK    2  A    between atoms: C_3  and  O_24
REMARK    3  A    between atoms: C_14  and  C_15
REMARK    4  A    between atoms: C_20  and  O_22
REMARK    5  A    between atoms: O_24  and  C_25
REMARK    6  A    between atoms: C_25  and  C_27
REMARK    7  A    between atoms: C_27  and  C_30
REMARK                            x       y       z     vdW  Elec       q    Type
REMARK                         _______ _______ _______ _____ _____    ______ ____
ROOT
ATOM      1  C   UNL     1       6.332 -12.588  11.577  0.00  0.00    +0.000 A 
ATOM      2  C   UNL     1       5.219 -11.611  11.889  0.00  0.00    +0.000 A 
ATOM      3  C   UNL     1       7.771 -12.220  11.331  0.00  0.00    +0.000 A 
ATOM      4  C   UNL     1       3.914 -12.114  12.398  0.00  0.00    +0.000 A 
ATOM      5  C   UNL     1       5.965 -14.087  11.593  0.00  0.00    +0.000 A 
ATOM      6  C   UNL     1       8.597 -13.386  11.168  0.00  0.00    +0.000 A 
ATOM      7  C   UNL     1       8.350 -14.794  11.228  0.00  0.00    +0.000 A 
ATOM      8  C   UNL     1       6.948 -14.928  11.461  0.00  0.00    +0.000 A 
ATOM      9  C   UNL     1       3.861 -13.537  12.435  0.00  0.00    +0.000 A 
ATOM     10  C   UNL     1       4.680 -14.353  12.114  0.00  0.00    +0.000 A 
ATOM     11  C   UNL     1       2.726 -11.286  12.782  0.00  0.00    +0.000 C 
ATOM     12  C   UNL     1       9.321 -15.691  11.927  0.00  0.00    +0.000 C 
ENDROOT
BRANCH   2  13
ATOM     13  C   UNL     1       5.357 -10.250  11.488  0.00  0.00    +0.000 C 
ATOM     14  C   UNL     1       5.578  -8.795  11.057  0.00  0.00    +0.000 C 
BRANCH  14  15
ATOM     15  C   UNL     1       5.842  -7.468  10.640  0.00  0.00    +0.000 C 
ATOM     16  O   UNL     1       6.464  -6.576  11.587  0.00  0.00    +0.000 OA
ATOM     17  C   UNL     1       6.701  -5.239  11.251  0.00  0.00    +0.000 C 
ATOM     18  O   UNL     1       7.223  -4.427  12.001  0.00  0.00    +0.000 OA
ATOM     19  C   UNL     1       6.265  -4.880   9.924  0.00  0.00    +0.000 C 
ATOM     20  C   UNL     1       5.641  -5.598   8.882  0.00  0.00    +0.000 C 
ATOM     21  C   UNL     1       5.483  -6.909   9.385  0.00  0.00    +0.000 C 
BRANCH  20  22
ATOM     22  O   UNL     1       4.731  -5.005   8.057  0.00  0.00    +0.000 OA
ATOM     23  H   UNL     1       4.754  -4.031   8.113  0.00  0.00    +0.000 HD
ENDBRANCH  20  22
ENDBRANCH  14  15
ENDBRANCH   2  13
BRANCH   3  24
ATOM     24  O   UNL     1       8.257 -11.171  12.116  0.00  0.00    +0.000 OA
BRANCH  24  25
ATOM     25  C   UNL     1       9.072 -10.310  11.404  0.00  0.00    +0.000 C 
ATOM     26  O   UNL     1       8.788  -9.873  10.287  0.00  0.00    +0.000 OA
BRANCH  25  27
ATOM     27  C   UNL     1      10.389  -9.999  12.197  0.00  0.00    +0.000 C 
ATOM     28  C   UNL     1      10.048  -9.817  13.724  0.00  0.00    +0.000 C 
ATOM     29  C   UNL     1      11.068  -8.671  11.669  0.00  0.00    +0.000 C 
BRANCH  27  30
ATOM     30  C   UNL     1      11.313 -11.148  11.986  0.00  0.00    +0.000 C 
ATOM     31  C   UNL     1      12.254 -12.375  11.798  0.00  0.00    +0.000 C 
ENDBRANCH  27  30
ENDBRANCH  25  27
ENDBRANCH  24  25
ENDBRANCH   3  24
TORSDOF 7
ENDMDL
MODEL 3
REMARK VINA RESULT:      -6.2      3.214      8.347
REMARK  Name = Simvastatin.pdbqt.pdb
REMARK  7 active torsions:
REMARK  status: ('A' for Active; 'I' for Inactive)
REMARK    1  A    between atoms: C_2  and  C_13
REMARK    2  A    between atoms: C_3  and  O_24
REMARK    3  A    between atoms: C_14  and  C_15
REMARK    4  A    between atoms: C_20  and  O_22
REMARK    5  A    between atoms: O_24  and  C_25
REMARK    6  A    between atoms: C_25  and  C_27
REMARK    7  A    between atoms: C_27  and  C_30
REMARK                            x       y       z     vdW  Elec       q    Type
REMARK                         _______ _______ _______ _____ _____    ______ ____
ROOT
ATOM      1  C   UNL     1       7.028 -10.813  11.499  0.00  0.00    +0.000 A 
ATOM      2  C   UNL     1       7.698 -12.150  11.731  0.00  0.00    +0.000 A 
ATOM      3  C   UNL     1       5.619 -10.464  11.897  0.00  0.00    +0.000 A 
ATOM      4  C   UNL     1       9.171 -12.278  11.563  0.00  0.00    +0.000 A 
ATOM      5  C   UNL     1       7.897  -9.699  10.875  0.00  0.00    +0.000 A 
ATOM      6  C   UNL     1       5.319  -9.082  11.634  0.00  0.00    +0.000 A 
ATOM      7  C   UNL     1       6.077  -7.982  11.121  0.00  0.00    +0.000 A 
ATOM      8  C   UNL     1       7.362  -8.516  10.804  0.00  0.00    +0.000 A 
ATOM      9  C   UNL     1       9.767 -11.074  11.089  0.00  0.00    +0.000 A 
ATOM     10  C   UNL     1       9.270 -10.021  10.805  0.00  0.00    +0.000 A 
ATOM     11  C   UNL     1       9.991 -13.514  11.781  0.00  0.00    +0.000 C 
ATOM     12  C   UNL     1       5.954  -6.634  11.755  0.00  0.00    +0.000 C 
ENDROOT
BRANCH   2  13
ATOM     13  C   UNL     1       6.890 -13.313  11.892  0.00  0.00    +0.000 C 
ATOM     14  C   UNL     1       5.962 -14.525  12.045  0.00  0.00    +0.000 C 
BRANCH  14  15
ATOM     15  C   UNL     1       5.063 -15.614  12.146  0.00  0.00    +0.000 C 
ATOM     16  O   UNL     1       5.599 -16.894  12.541  0.00  0.00    +0.000 OA
ATOM     17  C   UNL     1       4.771 -18.019  12.607  0.00  0.00    +0.000 C 
ATOM     18  O   UNL     1       5.154 -19.132  12.932  0.00  0.00    +0.000 OA
ATOM     19  C   UNL     1       3.399 -17.760  12.247  0.00  0.00    +0.000 C 
ATOM     20  C   UNL     1       2.707 -16.602  11.833  0.00  0.00    +0.000 C 
ATOM     21  C   UNL     1       3.680 -15.578  11.826  0.00  0.00    +0.000 C 
BRANCH  20  22
ATOM     22  O   UNL     1       1.691 -16.666  10.925  0.00  0.00    +0.000 OA
ATOM     23  H   UNL     1       0.810 -16.654  11.348  0.00  0.00    +0.000 HD
ENDBRANCH  20  22
ENDBRANCH  14  15
ENDBRANCH   2  13
BRANCH   3  24
ATOM     24  O   UNL     1       5.192 -11.013  13.109  0.00  0.00    +0.000 OA
BRANCH  24  25
ATOM     25  C   UNL     1       3.971 -11.653  12.999  0.00  0.00    +0.000 C 
ATOM     26  O   UNL     1       3.299 -11.664  11.966  0.00  0.00    +0.000 OA
BRANCH  25  27
ATOM     27  C   UNL     1       3.566 -12.326  14.357  0.00  0.00    +0.000 C 
ATOM     28  C   UNL     1       2.620 -13.552  14.069  0.00  0.00    +0.000 C 
ATOM     29  C   UNL     1       2.800 -11.304  15.290  0.00  0.00    +0.000 C 
BRANCH  27  30
ATOM     30  C   UNL     1       4.824 -12.763  15.025  0.00  0.00    +0.000 C 
ATOM     31  C   UNL     1       6.143 -13.174  15.743  0.00  0.00    +0.000 C 
ENDBRANCH  27  30
ENDBRANCH  25  27
ENDBRANCH  24  25
ENDBRANCH   3  24
TORSDOF 7
ENDMDL
MODEL 4
REMARK VINA RESULT:      -6.1      1.424      2.154
REMARK  Name = Simvastatin.pdbqt.pdb
REMARK  7 active torsions:
REMARK  status: ('A' for Active; 'I' for Inactive)
REMARK    1  A    between atoms: C_2  and  C_13
REMARK    2  A    between atoms: C_3  and  O_24
REMARK    3  A    between atoms: C_14  and  C_15
REMARK    4  A    between atoms: C_20  and  O_22
REMARK    5  A    between atoms: O_24  and  C_25
REMARK    6  A    between atoms: C_25  and  C_27
REMARK    7  A    between atoms: C_27  and  C_30
REMARK                            x       y       z     vdW  Elec       q    Type
REMARK                         _______ _______ _______ _____ _____    ______ ____
ROOT
ATOM      1  C   UNL     1       5.982 -13.601  12.092  0.00  0.00    +0.000 A 
ATOM      2  C   UNL     1       5.031 -12.548  12.619  0.00  0.00    +0.000 A 
ATOM      3  C   UNL     1       7.320 -13.329  11.459  0.00  0.00    +0.000 A 
ATOM      4  C   UNL     1       3.886 -12.950  13.480  0.00  0.00    +0.000 A 
ATOM      5  C   UNL     1       5.570 -15.075  12.299  0.00  0.00    +0.000 A 
ATOM      6  C   UNL     1       8.026 -14.546  11.162  0.00  0.00    +0.000 A 
ATOM      7  C   UNL     1       7.745 -15.933  11.374  0.00  0.00    +0.000 A 
ATOM      8  C   UNL     1       6.448 -15.975  11.970  0.00  0.00    +0.000 A 
ATOM      9  C   UNL     1       3.785 -14.364  13.620  0.00  0.00    +0.000 A 
ATOM     10  C   UNL     1       4.456 -15.240  13.151  0.00  0.00    +0.000 A 
ATOM     11  C   UNL     1       2.875 -12.037  14.105  0.00  0.00    +0.000 C 
ATOM     12  C   UNL     1       8.826 -16.847  11.853  0.00  0.00    +0.000 C 
ENDROOT
BRANCH   2  13
ATOM     13  C   UNL     1       5.116 -11.219  12.110  0.00  0.00    +0.000 C 
ATOM     14  C   UNL     1       5.271  -9.808  11.531  0.00  0.00    +0.000 C 
BRANCH  14  15
ATOM     15  C   UNL     1       5.456  -8.528  10.954  0.00  0.00    +0.000 C 
ATOM     16  O   UNL     1       5.439  -8.430   9.514  0.00  0.00    +0.000 OA
ATOM     17  C   UNL     1       5.670  -7.203   8.885  0.00  0.00    +0.000 C 
ATOM     18  O   UNL     1       5.671  -7.045   7.674  0.00  0.00    +0.000 OA
ATOM     19  C   UNL     1       5.920  -6.113   9.796  0.00  0.00    +0.000 C 
ATOM     20  C   UNL     1       5.986  -6.021  11.203  0.00  0.00    +0.000 C 
ATOM     21  C   UNL     1       5.730  -7.331  11.666  0.00  0.00    +0.000 C 
BRANCH  20  22
ATOM     22  O   UNL     1       6.859  -5.173  11.819  0.00  0.00    +0.000 OA
ATOM     23  H   UNL     1       6.926  -4.311  11.366  0.00  0.00    +0.000 HD
ENDBRANCH  20  22
ENDBRANCH  14  15
ENDBRANCH   2  13
BRANCH   3  24
ATOM     24  O   UNL     1       8.038 -12.270  12.023  0.00  0.00    +0.000 OA
BRANCH  24  25
ATOM     25  C   UNL     1       8.380 -11.307  11.091  0.00  0.00    +0.000 C 
ATOM     26  O   UNL     1       7.846 -11.211   9.984  0.00  0.00    +0.000 OA
BRANCH  25  27
ATOM     27  C   UNL     1       9.536 -10.393  11.627  0.00  0.00    +0.000 C 
ATOM     28  C   UNL     1      10.924 -11.069  11.314  0.00  0.00    +0.000 C 
ATOM     29  C   UNL     1       9.416 -10.186  13.191  0.00  0.00    +0.000 C 
BRANCH  27  30
ATOM     30  C   UNL     1       9.413  -9.077  10.941  0.00  0.00    +0.000 C 
ATOM     31  C   UNL     1       9.298  -7.679  10.265  0.00  0.00    +0.000 C 
ENDBRANCH  27  30
ENDBRANCH  25  27
ENDBRANCH  24  25
ENDBRANCH   3  24
TORSDOF 7
ENDMDL
MODEL 5
REMARK VINA RESULT:      -6.0     22.144     25.996
REMARK  Name = Simvastatin.pdbqt.pdb
REMARK  7 active torsions:
REMARK  status: ('A' for Active; 'I' for Inactive)
REMARK    1  A    between atoms: C_2  and  C_13
REMARK    2  A    between atoms: C_3  and  O_24
REMARK    3  A    between atoms: C_14  and  C_15
REMARK    4  A    between atoms: C_20  and  O_22
REMARK    5  A    between atoms: O_24  and  C_25
REMARK    6  A    between atoms: C_25  and  C_27
REMARK    7  A    between atoms: C_27  and  C_30
REMARK                            x       y       z     vdW  Elec       q    Type
REMARK                         _______ _______ _______ _____ _____    ______ ____
ROOT
ATOM      1  C   UNL     1     -10.238   5.749   4.550  0.00  0.00    +0.000 A 
ATOM      2  C   UNL     1     -11.476   6.272   3.853  0.00  0.00    +0.000 A 
ATOM      3  C   UNL     1      -9.009   5.217   3.862  0.00  0.00    +0.000 A 
ATOM      4  C   UNL     1     -12.492   7.035   4.626  0.00  0.00    +0.000 A 
ATOM      5  C   UNL     1     -10.214   5.848   6.091  0.00  0.00    +0.000 A 
ATOM      6  C   UNL     1      -7.969   4.899   4.803  0.00  0.00    +0.000 A 
ATOM      7  C   UNL     1      -7.845   5.016   6.223  0.00  0.00    +0.000 A 
ATOM      8  C   UNL     1      -9.099   5.526   6.677  0.00  0.00    +0.000 A 
ATOM      9  C   UNL     1     -12.185   7.091   6.016  0.00  0.00    +0.000 A 
ATOM     10  C   UNL     1     -11.269   6.618   6.628  0.00  0.00    +0.000 A 
ATOM     11  C   UNL     1     -13.750   7.645   4.087  0.00  0.00    +0.000 C 
ATOM     12  C   UNL     1      -6.567   5.511   6.821  0.00  0.00    +0.000 C 
ENDROOT
BRANCH   2  13
ATOM     13  C   UNL     1     -11.757   5.843   2.523  0.00  0.00    +0.000 C 
ATOM     14  C   UNL     1     -12.002   5.336   1.097  0.00  0.00    +0.000 C 
BRANCH  14  15
ATOM     15  C   UNL     1     -12.192   4.817  -0.206  0.00  0.00    +0.000 C 
ATOM     16  O   UNL     1     -11.736   5.611  -1.321  0.00  0.00    +0.000 OA
ATOM     17  C   UNL     1     -11.944   5.175  -2.633  0.00  0.00    +0.000 C 
ATOM     18  O   UNL     1     -11.586   5.794  -3.624  0.00  0.00    +0.000 OA
ATOM     19  C   UNL     1     -12.637   3.914  -2.731  0.00  0.00    +0.000 C 
ATOM     20  C   UNL     1     -13.158   3.018  -1.774  0.00  0.00    +0.000 C 
ATOM     21  C   UNL     1     -12.860   3.605  -0.524  0.00  0.00    +0.000 C 
BRANCH  20  22
ATOM     22  O   UNL     1     -14.302   2.313  -2.009  0.00  0.00    +0.000 OA
ATOM     23  H   UNL     1     -14.835   2.183  -1.201  0.00  0.00    +0.000 HD
ENDBRANCH  20  22
ENDBRANCH  14  15
ENDBRANCH   2  13
BRANCH   3  24
ATOM     24  O   UNL     1      -8.654   5.882   2.685  0.00  0.00    +0.000 OA
BRANCH  24  25
ATOM     25  C   UNL     1      -7.383   6.424   2.746  0.00  0.00    +0.000 C 
ATOM     26  O   UNL     1      -6.352   5.750   2.697  0.00  0.00    +0.000 OA
BRANCH  25  27
ATOM     27  C   UNL     1      -7.445   7.983   2.908  0.00  0.00    +0.000 C 
ATOM     28  C   UNL     1      -7.225   8.360   4.421  0.00  0.00    +0.000 C 
ATOM     29  C   UNL     1      -8.850   8.545   2.445  0.00  0.00    +0.000 C 
BRANCH  27  30
ATOM     30  C   UNL     1      -6.373   8.559   2.049  0.00  0.00    +0.000 C 
ATOM     31  C   UNL     1      -5.274   9.142   1.112  0.00  0.00    +0.000 C 
ENDBRANCH  27  30
ENDBRANCH  25  27
ENDBRANCH  24  25
ENDBRANCH   3  24
TORSDOF 7
ENDMDL
MODEL 6
REMARK VINA RESULT:      -6.0      2.751      7.395
REMARK  Name = Simvastatin.pdbqt.pdb
REMARK  7 active torsions:
REMARK  status: ('A' for Active; 'I' for Inactive)
REMARK    1  A    between atoms: C_2  and  C_13
REMARK    2  A    between atoms: C_3  and  O_24
REMARK    3  A    between atoms: C_14  and  C_15
REMARK    4  A    between atoms: C_20  and  O_22
REMARK    5  A    between atoms: O_24  and  C_25
REMARK    6  A    between atoms: C_25  and  C_27
REMARK    7  A    between atoms: C_27  and  C_30
REMARK                            x       y       z     vdW  Elec       q    Type
REMARK                         _______ _______ _______ _____ _____    ______ ____
ROOT
ATOM      1  C   UNL     1       6.522  -6.474  11.612  0.00  0.00    +0.000 A 
ATOM      2  C   UNL     1       5.801  -7.414  10.670  0.00  0.00    +0.000 A 
ATOM      3  C   UNL     1       7.228  -6.880  12.878  0.00  0.00    +0.000 A 
ATOM      4  C   UNL     1       5.402  -6.942   9.317  0.00  0.00    +0.000 A 
ATOM      5  C   UNL     1       6.602  -4.991  11.188  0.00  0.00    +0.000 A 
ATOM      6  C   UNL     1       7.904  -5.769  13.490  0.00  0.00    +0.000 A 
ATOM      7  C   UNL     1       8.076  -4.393  13.135  0.00  0.00    +0.000 A 
ATOM      8  C   UNL     1       7.337  -4.214  11.927  0.00  0.00    +0.000 A 
ATOM      9  C   UNL     1       5.689  -5.561   9.119  0.00  0.00    +0.000 A 
ATOM     10  C   UNL     1       6.174  -4.755   9.863  0.00  0.00    +0.000 A 
ATOM     11  C   UNL     1       4.713  -7.748   8.257  0.00  0.00    +0.000 C 
ATOM     12  C   UNL     1       9.410  -3.741  13.308  0.00  0.00    +0.000 C 
ENDROOT
BRANCH   2  13
ATOM     13  C   UNL     1       5.323  -8.661  11.166  0.00  0.00    +0.000 C 
ATOM     14  C   UNL     1       4.791  -9.970  11.763  0.00  0.00    +0.000 C 
BRANCH  14  15
ATOM     15  C   UNL     1       4.268 -11.143  12.357  0.00  0.00    +0.000 C 
ATOM     16  O   UNL     1       3.356 -10.988  13.465  0.00  0.00    +0.000 OA
ATOM     17  C   UNL     1       2.848 -12.110  14.127  0.00  0.00    +0.000 C 
ATOM     18  O   UNL     1       2.074 -12.055  15.071  0.00  0.00    +0.000 OA
ATOM     19  C   UNL     1       3.324 -13.367  13.604  0.00  0.00    +0.000 C 
ATOM     20  C   UNL     1       4.206 -13.709  12.557  0.00  0.00    +0.000 C 
ATOM     21  C   UNL     1       4.614 -12.475  12.005  0.00  0.00    +0.000 C 
BRANCH  20  22
ATOM     22  O   UNL     1       5.032 -14.791  12.649  0.00  0.00    +0.000 OA
ATOM     23  H   UNL     1       5.966 -14.538  12.780  0.00  0.00    +0.000 HD
ENDBRANCH  20  22
ENDBRANCH  14  15
ENDBRANCH   2  13
BRANCH   3  24
ATOM     24  O   UNL     1       7.896  -8.107  12.817  0.00  0.00    +0.000 OA
BRANCH  24  25
ATOM     25  C   UNL     1       7.527  -8.962  13.839  0.00  0.00    +0.000 C 
ATOM     26  O   UNL     1       6.772  -8.638  14.758  0.00  0.00    +0.000 OA
BRANCH  25  27
ATOM     27  C   UNL     1       8.211 -10.363  13.672  0.00  0.00    +0.000 C 
ATOM     28  C   UNL     1       7.355 -11.454  14.419  0.00  0.00    +0.000 C 
ATOM     29  C   UNL     1       9.669 -10.359  14.285  0.00  0.00    +0.000 C 
BRANCH  27  30
ATOM     30  C   UNL     1       8.287 -10.647  12.212  0.00  0.00    +0.000 C 
ATOM     31  C   UNL     1       8.392 -10.902  10.679  0.00  0.00    +0.000 C 
ENDBRANCH  27  30
ENDBRANCH  25  27
ENDBRANCH  24  25
ENDBRANCH   3  24
TORSDOF 7
ENDMDL
MODEL 7
REMARK VINA RESULT:      -5.9      2.550      7.299
REMARK  Name = Simvastatin.pdbqt.pdb
REMARK  7 active torsions:
REMARK  status: ('A' for Active; 'I' for Inactive)
REMARK    1  A    between atoms: C_2  and  C_13
REMARK    2  A    between atoms: C_3  and  O_24
REMARK    3  A    between atoms: C_14  and  C_15
REMARK    4  A    between atoms: C_20  and  O_22
REMARK    5  A    between atoms: O_24  and  C_25
REMARK    6  A    between atoms: C_25  and  C_27
REMARK    7  A    between atoms: C_27  and  C_30
REMARK                            x       y       z     vdW  Elec       q    Type
REMARK                         _______ _______ _______ _____ _____    ______ ____
ROOT
ATOM      1  C   UNL     1       6.674  -6.396  11.517  0.00  0.00    +0.000 A 
ATOM      2  C   UNL     1       5.943  -7.418  10.675  0.00  0.00    +0.000 A 
ATOM      3  C   UNL     1       7.534  -6.706  12.714  0.00  0.00    +0.000 A 
ATOM      4  C   UNL     1       5.372  -7.021   9.359  0.00  0.00    +0.000 A 
ATOM      5  C   UNL     1       6.588  -4.925  11.055  0.00  0.00    +0.000 A 
ATOM      6  C   UNL     1       8.174  -5.526  13.229  0.00  0.00    +0.000 A 
ATOM      7  C   UNL     1       8.195  -4.152  12.828  0.00  0.00    +0.000 A 
ATOM      8  C   UNL     1       7.327  -4.069  11.698  0.00  0.00    +0.000 A 
ATOM      9  C   UNL     1       5.524  -5.628   9.104  0.00  0.00    +0.000 A 
ATOM     10  C   UNL     1       6.012  -4.763   9.776  0.00  0.00    +0.000 A 
ATOM     11  C   UNL     1       4.651  -7.911   8.394  0.00  0.00    +0.000 C 
ATOM     12  C   UNL     1       9.481  -3.390  12.850  0.00  0.00    +0.000 C 
ENDROOT
BRANCH   2  13
ATOM     13  C   UNL     1       5.621  -8.685  11.245  0.00  0.00    +0.000 C 
ATOM     14  C   UNL     1       5.327 -10.077  11.817  0.00  0.00    +0.000 C 
BRANCH  14  15
ATOM     15  C   UNL     1       5.114 -11.381  12.325  0.00  0.00    +0.000 C 
ATOM     16  O   UNL     1       6.024 -11.867  13.334  0.00  0.00    +0.000 OA
ATOM     17  C   UNL     1       5.897 -13.166  13.836  0.00  0.00    +0.000 C 
ATOM     18  O   UNL     1       6.629 -13.645  14.688  0.00  0.00    +0.000 OA
ATOM     19  C   UNL     1       4.815 -13.919  13.251  0.00  0.00    +0.000 C 
ATOM     20  C   UNL     1       3.848 -13.622  12.266  0.00  0.00    +0.000 C 
ATOM     21  C   UNL     1       4.119 -12.290  11.880  0.00  0.00    +0.000 C 
BRANCH  20  22
ATOM     22  O   UNL     1       3.407 -14.573  11.394  0.00  0.00    +0.000 OA
ATOM     23  H   UNL     1       3.796 -14.475  10.504  0.00  0.00    +0.000 HD
ENDBRANCH  20  22
ENDBRANCH  14  15
ENDBRANCH   2  13
BRANCH   3  24
ATOM     24  O   UNL     1       8.291  -7.876  12.612  0.00  0.00    +0.000 OA
BRANCH  24  25
ATOM     25  C   UNL     1       9.620  -7.623  12.323  0.00  0.00    +0.000 C 
ATOM     26  O   UNL     1      10.390  -7.059  13.103  0.00  0.00    +0.000 OA
BRANCH  25  27
ATOM     27  C   UNL     1       9.987  -8.126  10.884  0.00  0.00    +0.000 C 
ATOM     28  C   UNL     1      11.550  -8.288  10.770  0.00  0.00    +0.000 C 
ATOM     29  C   UNL     1       9.503  -7.098   9.783  0.00  0.00    +0.000 C 
BRANCH  27  30
ATOM     30  C   UNL     1       9.297  -9.431  10.683  0.00  0.00    +0.000 C 
ATOM     31  C   UNL     1       8.538 -10.779  10.501  0.00  0.00    +0.000 C 
ENDBRANCH  27  30
ENDBRANCH  25  27
ENDBRANCH  24  25
ENDBRANCH   3  24
TORSDOF 7
ENDMDL
MODEL 8
REMARK VINA RESULT:      -5.6     23.764     25.116
REMARK  Name = Simvastatin.pdbqt.pdb
REMARK  7 active torsions:
REMARK  status: ('A' for Active; 'I' for Inactive)
REMARK    1  A    between atoms: C_2  and  C_13
REMARK    2  A    between atoms: C_3  and  O_24
REMARK    3  A    between atoms: C_14  and  C_15
REMARK    4  A    between atoms: C_20  and  O_22
REMARK    5  A    between atoms: O_24  and  C_25
REMARK    6  A    between atoms: C_25  and  C_27
REMARK    7  A    between atoms: C_27  and  C_30
REMARK                            x       y       z     vdW  Elec       q    Type
REMARK                         _______ _______ _______ _____ _____    ______ ____
ROOT
ATOM      1  C   UNL     1      -7.030   7.190   3.751  0.00  0.00    +0.000 A 
ATOM      2  C   UNL     1      -6.417   8.461   4.298  0.00  0.00    +0.000 A 
ATOM      3  C   UNL     1      -8.023   6.318   4.475  0.00  0.00    +0.000 A 
ATOM      4  C   UNL     1      -5.686   9.381   3.386  0.00  0.00    +0.000 A 
ATOM      5  C   UNL     1      -6.662   6.808   2.301  0.00  0.00    +0.000 A 
ATOM      6  C   UNL     1      -8.493   5.244   3.643  0.00  0.00    +0.000 A 
ATOM      7  C   UNL     1      -8.251   4.860   2.286  0.00  0.00    +0.000 A 
ATOM      8  C   UNL     1      -7.295   5.795   1.787  0.00  0.00    +0.000 A 
ATOM      9  C   UNL     1      -5.580   8.860   2.064  0.00  0.00    +0.000 A 
ATOM     10  C   UNL     1      -5.968   7.822   1.605  0.00  0.00    +0.000 A 
ATOM     11  C   UNL     1      -5.050  10.686   3.756  0.00  0.00    +0.000 C 
ATOM     12  C   UNL     1      -9.388   4.411   1.426  0.00  0.00    +0.000 C 
ENDROOT
BRANCH   2  13
ATOM     13  C   UNL     1      -6.359   8.651   5.710  0.00  0.00    +0.000 C 
ATOM     14  C   UNL     1      -6.266   8.922   7.216  0.00  0.00    +0.000 C 
BRANCH  14  15
ATOM     15  C   UNL     1      -6.173   9.234   8.594  0.00  0.00    +0.000 C 
ATOM     16  O   UNL     1      -7.373   9.135   9.389  0.00  0.00    +0.000 OA
ATOM     17  C   UNL     1      -7.357   9.481  10.743  0.00  0.00    +0.000 C 
ATOM     18  O   UNL     1      -8.332   9.423  11.476  0.00  0.00    +0.000 OA
ATOM     19  C   UNL     1      -6.072   9.931  11.219  0.00  0.00    +0.000 C 
ATOM     20  C   UNL     1      -4.815  10.102  10.601  0.00  0.00    +0.000 C 
ATOM     21  C   UNL     1      -5.012   9.708   9.259  0.00  0.00    +0.000 C 
BRANCH  20  22
ATOM     22  O   UNL     1      -3.977  11.116  10.962  0.00  0.00    +0.000 OA
ATOM     23  H   UNL     1      -3.092  11.031  10.560  0.00  0.00    +0.000 HD
ENDBRANCH  20  22
ENDBRANCH  14  15
ENDBRANCH   2  13
BRANCH   3  24
ATOM     24  O   UNL     1      -8.955   7.006   5.257  0.00  0.00    +0.000 OA
BRANCH  24  25
ATOM     25  C   UNL     1      -9.970   6.185   5.714  0.00  0.00    +0.000 C 
ATOM     26  O   UNL     1      -9.803   5.300   6.555  0.00  0.00    +0.000 OA
BRANCH  25  27
ATOM     27  C   UNL     1     -11.327   6.523   5.003  0.00  0.00    +0.000 C 
ATOM     28  C   UNL     1     -11.790   5.285   4.147  0.00  0.00    +0.000 C 
ATOM     29  C   UNL     1     -11.170   7.771   4.045  0.00  0.00    +0.000 C 
BRANCH  27  30
ATOM     30  C   UNL     1     -12.318   6.838   6.071  0.00  0.00    +0.000 C 
ATOM     31  C   UNL     1     -13.320   7.196   7.208  0.00  0.00    +0.000 C 
ENDBRANCH  27  30
ENDBRANCH  25  27
ENDBRANCH  24  25
ENDBRANCH   3  24
TORSDOF 7
ENDMDL
MODEL 9
REMARK VINA RESULT:      -5.6      1.340      2.399
REMARK  Name = Simvastatin.pdbqt.pdb
REMARK  7 active torsions:
REMARK  status: ('A' for Active; 'I' for Inactive)
REMARK    1  A    between atoms: C_2  and  C_13
REMARK    2  A    between atoms: C_3  and  O_24
REMARK    3  A    between atoms: C_14  and  C_15
REMARK    4  A    between atoms: C_20  and  O_22
REMARK    5  A    between atoms: O_24  and  C_25
REMARK    6  A    between atoms: C_25  and  C_27
REMARK    7  A    between atoms: C_27  and  C_30
REMARK                            x       y       z     vdW  Elec       q    Type
REMARK                         _______ _______ _______ _____ _____    ______ ____
ROOT
ATOM      1  C   UNL     1       6.700 -12.065  11.482  0.00  0.00    +0.000 A 
ATOM      2  C   UNL     1       5.730 -10.908  11.587  0.00  0.00    +0.000 A 
ATOM      3  C   UNL     1       8.195 -11.939  11.349  0.00  0.00    +0.000 A 
ATOM      4  C   UNL     1       4.324 -11.158  12.007  0.00  0.00    +0.000 A 
ATOM      5  C   UNL     1       6.106 -13.484  11.603  0.00  0.00    +0.000 A 
ATOM      6  C   UNL     1       8.841 -13.223  11.380  0.00  0.00    +0.000 A 
ATOM      7  C   UNL     1       8.374 -14.566  11.548  0.00  0.00    +0.000 A 
ATOM      8  C   UNL     1       6.954 -14.468  11.651  0.00  0.00    +0.000 A 
ATOM      9  C   UNL     1       4.049 -12.545  12.173  0.00  0.00    +0.000 A 
ATOM     10  C   UNL     1       4.755 -13.502  12.015  0.00  0.00    +0.000 A 
ATOM     11  C   UNL     1       3.251 -10.128  12.190  0.00  0.00    +0.000 C 
ATOM     12  C   UNL     1       9.131 -15.513  12.423  0.00  0.00    +0.000 C 
ENDROOT
BRANCH   2  13
ATOM     13  C   UNL     1       6.111  -9.633  11.075  0.00  0.00    +0.000 C 
ATOM     14  C   UNL     1       6.451  -8.243  10.524  0.00  0.00    +0.000 C 
BRANCH  14  15
ATOM     15  C   UNL     1       6.708  -6.939  10.038  0.00  0.00    +0.000 C 
ATOM     16  O   UNL     1       5.629  -5.981  10.078  0.00  0.00    +0.000 OA
ATOM     17  C   UNL     1       5.806  -4.693   9.562  0.00  0.00    +0.000 C 
ATOM     18  O   UNL     1       4.940  -3.832   9.562  0.00  0.00    +0.000 OA
ATOM     19  C   UNL     1       7.117  -4.456   9.011  0.00  0.00    +0.000 C 
ATOM     20  C   UNL     1       8.271  -5.256   8.876  0.00  0.00    +0.000 C 
ATOM     21  C   UNL     1       7.921  -6.501   9.443  0.00  0.00    +0.000 C 
BRANCH  20  22
ATOM     22  O   UNL     1       9.096  -5.138   7.795  0.00  0.00    +0.000 OA
ATOM     23  H   UNL     1       8.682  -5.461   6.972  0.00  0.00    +0.000 HD
ENDBRANCH  20  22
ENDBRANCH  14  15
ENDBRANCH   2  13
BRANCH   3  24
ATOM     24  O   UNL     1       8.769 -10.893  12.076  0.00  0.00    +0.000 OA
BRANCH  24  25
ATOM     25  C   UNL     1       9.440  -9.993  11.268  0.00  0.00    +0.000 C 
ATOM     26  O   UNL     1       9.442 -10.053  10.037  0.00  0.00    +0.000 OA
BRANCH  25  27
ATOM     27  C   UNL     1      10.199  -8.924  12.129  0.00  0.00    +0.000 C 
ATOM     28  C   UNL     1      10.900  -7.887  11.174  0.00  0.00    +0.000 C 
ATOM     29  C   UNL     1      11.303  -9.605  13.035  0.00  0.00    +0.000 C 
BRANCH  27  30
ATOM     30  C   UNL     1       9.188  -8.257  12.997  0.00  0.00    +0.000 C 
ATOM     31  C   UNL     1       8.098  -7.592  13.888  0.00  0.00    +0.000 C 
ENDBRANCH  27  30
ENDBRANCH  25  27
ENDBRANCH  24  25
ENDBRANCH   3  24
TORSDOF 7
ENDMDL
