MODEL 1
REMARK VINA RESULT:      -7.5      0.000      0.000
REMARK  Name = Staurosporine.pdbqt.pdb
REMARK  2 active torsions:
REMARK  status: ('A' for Active; 'I' for Inactive)
REMARK    1  A    between atoms: C_3  and  O_11
REMARK    2  A    between atoms: C_5  and  N_8
REMARK                            x       y       z     vdW  Elec       q    Type
REMARK                         _______ _______ _______ _____ _____    ______ ____
ROOT
ATOM      1  O   UNL     1       6.886  -7.143   9.294  0.00  0.00    +0.000 OA
ATOM      2  C   UNL     1       8.109  -6.520   9.773  0.00  0.00    +0.000 C 
ATOM      3  C   UNL     1       7.917  -5.506  10.918  0.00  0.00    +0.000 C 
ATOM      4  C   UNL     1       6.094  -7.650  10.312  0.00  0.00    +0.000 C 
ATOM      5  C   UNL     1       6.721  -5.608  11.750  0.00  0.00    +0.000 C 
ATOM      6  C   UNL     1       5.912  -6.675  11.316  0.00  0.00    +0.000 C 
ATOM      7  C   UNL     1       8.608  -5.711   8.528  0.00  0.00    +0.000 C 
ATOM      8  N   UNL     1       9.047  -7.608  10.131  0.00  0.00    +0.000 N 
ATOM      9  C   UNL     1       8.831  -8.913  10.496  0.00  0.00    +0.000 A 
ATOM     10  C   UNL     1       7.608  -9.540  10.751  0.00  0.00    +0.000 A 
ATOM     11  C   UNL     1       9.937  -9.743  10.723  0.00  0.00    +0.000 A 
ATOM     12  N   UNL     1       6.389  -8.934  10.720  0.00  0.00    +0.000 N 
ATOM     13  C   UNL     1       7.700 -10.860  11.217  0.00  0.00    +0.000 A 
ATOM     14  C   UNL     1       5.594  -9.937  11.310  0.00  0.00    +0.000 A 
ATOM     15  C   UNL     1       6.363 -11.128  11.582  0.00  0.00    +0.000 A 
ATOM     16  C   UNL     1       4.221  -9.888  11.601  0.00  0.00    +0.000 A 
ATOM     17  C   UNL     1       5.696 -12.227  12.158  0.00  0.00    +0.000 A 
ATOM     18  C   UNL     1       4.333 -12.159  12.440  0.00  0.00    +0.000 A 
ATOM     19  C   UNL     1       3.610 -11.007  12.166  0.00  0.00    +0.000 A 
ATOM     20  C   UNL     1       8.805 -11.706  11.437  0.00  0.00    +0.000 A 
ATOM     21  C   UNL     1      10.047 -11.074  11.149  0.00  0.00    +0.000 A 
ATOM     22  C   UNL     1       9.022 -13.049  11.922  0.00  0.00    +0.000 C 
ATOM     23  C   UNL     1      11.113 -12.062  11.464  0.00  0.00    +0.000 C 
ATOM     24  N   UNL     1      10.421 -13.139  11.892  0.00  0.00    +0.000 N 
ATOM     25  H   UNL     1      10.876 -13.993  12.181  0.00  0.00    +0.000 HD
ATOM     26  O   UNL     1       8.281 -13.950  12.287  0.00  0.00    +0.000 OA
ATOM     27  C   UNL     1      11.016  -8.871  10.507  0.00  0.00    +0.000 A 
ATOM     28  C   UNL     1      10.469  -7.580  10.167  0.00  0.00    +0.000 A 
ATOM     29  C   UNL     1      12.418  -9.010  10.580  0.00  0.00    +0.000 A 
ATOM     30  C   UNL     1      11.335  -6.502   9.914  0.00  0.00    +0.000 A 
ATOM     31  C   UNL     1      12.715  -6.689   9.997  0.00  0.00    +0.000 A 
ATOM     32  C   UNL     1      13.251  -7.924  10.323  0.00  0.00    +0.000 A 
ENDROOT
BRANCH   5  33
ATOM     33  N   UNL     1       6.522  -4.879  12.954  0.00  0.00    +0.000 N 
ATOM     34  C   UNL     1       6.917  -5.570  14.162  0.00  0.00    +0.000 C 
ATOM     35  H   UNL     1       5.641  -4.363  13.005  0.00  0.00    +0.000 HD
ENDBRANCH   5  33
BRANCH   3  36
ATOM     36  O   UNL     1       9.072  -4.944  11.420  0.00  0.00    +0.000 OA
ATOM     37  C   UNL     1       9.110  -3.557  11.214  0.00  0.00    +0.000 C 
ENDBRANCH   3  36
TORSDOF 2
ENDMDL
MODEL 2
REMARK VINA RESULT:      -7.2     20.904     24.503
REMARK  Name = Staurosporine.pdbqt.pdb
REMARK  2 active torsions:
REMARK  status: ('A' for Active; 'I' for Inactive)
REMARK    1  A    between atoms: C_3  and  O_11
REMARK    2  A    between atoms: C_5  and  N_8
REMARK                            x       y       z     vdW  Elec       q    Type
REMARK                         _______ _______ _______ _____ _____    ______ ____
ROOT
ATOM      1  O   UNL     1     -11.690 -16.031  12.492  0.00  0.00    +0.000 OA
ATOM      2  C   UNL     1     -11.865 -16.468  11.117  0.00  0.00    +0.000 C 
ATOM      3  C   UNL     1     -11.875 -17.997  10.917  0.00  0.00    +0.000 C 
ATOM      4  C   UNL     1     -12.539 -16.668  13.383  0.00  0.00    +0.000 C 
ATOM      5  C   UNL     1     -12.218 -18.849  12.053  0.00  0.00    +0.000 C 
ATOM      6  C   UNL     1     -12.483 -18.065  13.191  0.00  0.00    +0.000 C 
ATOM      7  C   UNL     1     -10.582 -15.924  10.402  0.00  0.00    +0.000 C 
ATOM      8  N   UNL     1     -13.094 -15.823  10.602  0.00  0.00    +0.000 N 
ATOM      9  C   UNL     1     -14.204 -15.335  11.245  0.00  0.00    +0.000 A 
ATOM     10  C   UNL     1     -14.522 -15.438  12.603  0.00  0.00    +0.000 A 
ATOM     11  C   UNL     1     -15.204 -14.710  10.488  0.00  0.00    +0.000 A 
ATOM     12  N   UNL     1     -13.785 -16.097  13.539  0.00  0.00    +0.000 N 
ATOM     13  C   UNL     1     -15.784 -14.939  12.959  0.00  0.00    +0.000 A 
ATOM     14  C   UNL     1     -14.695 -16.109  14.615  0.00  0.00    +0.000 A 
ATOM     15  C   UNL     1     -15.897 -15.377  14.296  0.00  0.00    +0.000 A 
ATOM     16  C   UNL     1     -14.526 -16.698  15.879  0.00  0.00    +0.000 A 
ATOM     17  C   UNL     1     -16.896 -15.287  15.286  0.00  0.00    +0.000 A 
ATOM     18  C   UNL     1     -16.711 -15.878  16.535  0.00  0.00    +0.000 A 
ATOM     19  C   UNL     1     -15.545 -16.573  16.822  0.00  0.00    +0.000 A 
ATOM     20  C   UNL     1     -16.790 -14.300  12.208  0.00  0.00    +0.000 A 
ATOM     21  C   UNL     1     -16.450 -14.170  10.833  0.00  0.00    +0.000 A 
ATOM     22  C   UNL     1     -18.111 -13.770  12.455  0.00  0.00    +0.000 C 
ATOM     23  C   UNL     1     -17.611 -13.522  10.164  0.00  0.00    +0.000 C 
ATOM     24  N   UNL     1     -18.489 -13.342  11.175  0.00  0.00    +0.000 N 
ATOM     25  H   UNL     1     -19.392 -12.911  11.034  0.00  0.00    +0.000 HD
ATOM     26  O   UNL     1     -18.811 -13.664  13.451  0.00  0.00    +0.000 OA
ATOM     27  C   UNL     1     -14.705 -14.823   9.180  0.00  0.00    +0.000 A 
ATOM     28  C   UNL     1     -13.439 -15.511   9.258  0.00  0.00    +0.000 A 
ATOM     29  C   UNL     1     -15.187 -14.441   7.911  0.00  0.00    +0.000 A 
ATOM     30  C   UNL     1     -12.720 -15.779   8.080  0.00  0.00    +0.000 A 
ATOM     31  C   UNL     1     -13.237 -15.379   6.847  0.00  0.00    +0.000 A 
ATOM     32  C   UNL     1     -14.451 -14.718   6.762  0.00  0.00    +0.000 A 
ENDROOT
BRANCH   5  33
ATOM     33  N   UNL     1     -12.466 -20.246  11.957  0.00  0.00    +0.000 N 
ATOM     34  C   UNL     1     -13.857 -20.631  12.055  0.00  0.00    +0.000 C 
ATOM     35  H   UNL     1     -11.804 -20.837  12.464  0.00  0.00    +0.000 HD
ENDBRANCH   5  33
BRANCH   3  36
ATOM     36  O   UNL     1     -12.093 -18.430   9.627  0.00  0.00    +0.000 OA
ATOM     37  C   UNL     1     -10.965 -19.071   9.093  0.00  0.00    +0.000 C 
ENDBRANCH   3  36
TORSDOF 2
ENDMDL
MODEL 3
REMARK VINA RESULT:      -7.1      1.543      2.027
REMARK  Name = Staurosporine.pdbqt.pdb
REMARK  2 active torsions:
REMARK  status: ('A' for Active; 'I' for Inactive)
REMARK    1  A    between atoms: C_3  and  O_11
REMARK    2  A    between atoms: C_5  and  N_8
REMARK                            x       y       z     vdW  Elec       q    Type
REMARK                         _______ _______ _______ _____ _____    ______ ____
ROOT
ATOM      1  O   UNL     1       7.443  -8.184  10.133  0.00  0.00    +0.000 OA
ATOM      2  C   UNL     1       8.741  -8.005  10.762  0.00  0.00    +0.000 C 
ATOM      3  C   UNL     1       8.736  -7.117  12.022  0.00  0.00    +0.000 C 
ATOM      4  C   UNL     1       6.447  -8.549  11.024  0.00  0.00    +0.000 C 
ATOM      5  C   UNL     1       7.486  -6.959  12.762  0.00  0.00    +0.000 C 
ATOM      6  C   UNL     1       6.454  -7.685  12.140  0.00  0.00    +0.000 C 
ATOM      7  C   UNL     1       9.565  -7.242   9.670  0.00  0.00    +0.000 C 
ATOM      8  N   UNL     1       9.295  -9.354  11.022  0.00  0.00    +0.000 N 
ATOM      9  C   UNL     1       8.684 -10.571  11.192  0.00  0.00    +0.000 A 
ATOM     10  C   UNL     1       7.314 -10.837  11.287  0.00  0.00    +0.000 A 
ATOM     11  C   UNL     1       9.482 -11.709  11.366  0.00  0.00    +0.000 A 
ATOM     12  N   UNL     1       6.326  -9.901  11.269  0.00  0.00    +0.000 N 
ATOM     13  C   UNL     1       6.985 -12.170  11.572  0.00  0.00    +0.000 A 
ATOM     14  C   UNL     1       5.227 -10.687  11.669  0.00  0.00    +0.000 A 
ATOM     15  C   UNL     1       5.598 -12.074  11.820  0.00  0.00    +0.000 A 
ATOM     16  C   UNL     1       3.902 -10.271  11.883  0.00  0.00    +0.000 A 
ATOM     17  C   UNL     1       4.595 -12.987  12.200  0.00  0.00    +0.000 A 
ATOM     18  C   UNL     1       3.286 -12.556  12.409  0.00  0.00    +0.000 A 
ATOM     19  C   UNL     1       2.949 -11.219  12.254  0.00  0.00    +0.000 A 
ATOM     20  C   UNL     1       7.778 -13.322  11.739  0.00  0.00    +0.000 A 
ATOM     21  C   UNL     1       9.170 -13.053  11.612  0.00  0.00    +0.000 A 
ATOM     22  C   UNL     1       7.559 -14.716  12.047  0.00  0.00    +0.000 C 
ATOM     23  C   UNL     1       9.878 -14.339  11.850  0.00  0.00    +0.000 C 
ATOM     24  N   UNL     1       8.871 -15.208  12.086  0.00  0.00    +0.000 N 
ATOM     25  H   UNL     1       9.036 -16.185  12.282  0.00  0.00    +0.000 HD
ATOM     26  O   UNL     1       6.562 -15.396  12.242  0.00  0.00    +0.000 OA
ATOM     27  C   UNL     1      10.780 -11.174  11.335  0.00  0.00    +0.000 A 
ATOM     28  C   UNL     1      10.655  -9.748  11.143  0.00  0.00    +0.000 A 
ATOM     29  C   UNL     1      12.071 -11.724  11.470  0.00  0.00    +0.000 A 
ATOM     30  C   UNL     1      11.812  -8.951  11.091  0.00  0.00    +0.000 A 
ATOM     31  C   UNL     1      13.068  -9.542  11.227  0.00  0.00    +0.000 A 
ATOM     32  C   UNL     1      13.199 -10.908  11.412  0.00  0.00    +0.000 A 
ENDROOT
BRANCH   5  33
ATOM     33  N   UNL     1       7.388  -6.346  14.040  0.00  0.00    +0.000 N 
ATOM     34  C   UNL     1       6.990  -4.955  14.025  0.00  0.00    +0.000 C 
ATOM     35  H   UNL     1       8.138  -6.587  14.693  0.00  0.00    +0.000 HD
ENDBRANCH   5  33
BRANCH   3  36
ATOM     36  O   UNL     1       9.950  -6.980  12.662  0.00  0.00    +0.000 OA
ATOM     37  C   UNL     1      10.424  -5.661  12.606  0.00  0.00    +0.000 C 
ENDBRANCH   3  36
TORSDOF 2
ENDMDL
MODEL 4
REMARK VINA RESULT:      -7.1     23.172     26.783
REMARK  Name = Staurosporine.pdbqt.pdb
REMARK  2 active torsions:
REMARK  status: ('A' for Active; 'I' for Inactive)
REMARK    1  A    between atoms: C_3  and  O_11
REMARK    2  A    between atoms: C_5  and  N_8
REMARK                            x       y       z     vdW  Elec       q    Type
REMARK                         _______ _______ _______ _____ _____    ______ ____
ROOT
ATOM      1  O   UNL     1     -12.138  -3.221  30.093  0.00  0.00    +0.000 OA
ATOM      2  C   UNL     1     -13.285  -3.913  29.527  0.00  0.00    +0.000 C 
ATOM      3  C   UNL     1     -14.222  -3.031  28.678  0.00  0.00    +0.000 C 
ATOM      4  C   UNL     1     -11.443  -2.462  29.165  0.00  0.00    +0.000 C 
ATOM      5  C   UNL     1     -13.688  -1.803  28.092  0.00  0.00    +0.000 C 
ATOM      6  C   UNL     1     -12.335  -1.642  28.442  0.00  0.00    +0.000 C 
ATOM      7  C   UNL     1     -14.096  -4.354  30.791  0.00  0.00    +0.000 C 
ATOM      8  N   UNL     1     -12.768  -5.078  28.773  0.00  0.00    +0.000 N 
ATOM      9  C   UNL     1     -11.549  -5.319  28.193  0.00  0.00    +0.000 A 
ATOM     10  C   UNL     1     -10.475  -4.433  28.056  0.00  0.00    +0.000 A 
ATOM     11  C   UNL     1     -11.322  -6.562  27.587  0.00  0.00    +0.000 A 
ATOM     12  N   UNL     1     -10.472  -3.130  28.449  0.00  0.00    +0.000 N 
ATOM     13  C   UNL     1      -9.389  -4.924  27.315  0.00  0.00    +0.000 A 
ATOM     14  C   UNL     1      -9.289  -2.682  27.828  0.00  0.00    +0.000 A 
ATOM     15  C   UNL     1      -8.597  -3.764  27.170  0.00  0.00    +0.000 A 
ATOM     16  C   UNL     1      -8.754  -1.383  27.827  0.00  0.00    +0.000 A 
ATOM     17  C   UNL     1      -7.383  -3.471  26.517  0.00  0.00    +0.000 A 
ATOM     18  C   UNL     1      -6.869  -2.176  26.527  0.00  0.00    +0.000 A 
ATOM     19  C   UNL     1      -7.547  -1.151  27.171  0.00  0.00    +0.000 A 
ATOM     20  C   UNL     1      -9.148  -6.174  26.712  0.00  0.00    +0.000 A 
ATOM     21  C   UNL     1     -10.230  -7.082  26.879  0.00  0.00    +0.000 A 
ATOM     22  C   UNL     1      -8.098  -6.777  25.924  0.00  0.00    +0.000 C 
ATOM     23  C   UNL     1      -9.855  -8.331  26.163  0.00  0.00    +0.000 C 
ATOM     24  N   UNL     1      -8.633  -8.046  25.662  0.00  0.00    +0.000 N 
ATOM     25  H   UNL     1      -8.105  -8.713  25.118  0.00  0.00    +0.000 HD
ATOM     26  O   UNL     1      -7.005  -6.396  25.531  0.00  0.00    +0.000 OA
ATOM     27  C   UNL     1     -12.554  -7.212  27.766  0.00  0.00    +0.000 A 
ATOM     28  C   UNL     1     -13.426  -6.302  28.468  0.00  0.00    +0.000 A 
ATOM     29  C   UNL     1     -13.058  -8.475  27.394  0.00  0.00    +0.000 A 
ATOM     30  C   UNL     1     -14.743  -6.692  28.766  0.00  0.00    +0.000 A 
ATOM     31  C   UNL     1     -15.196  -7.954  28.380  0.00  0.00    +0.000 A 
ATOM     32  C   UNL     1     -14.368  -8.835  27.705  0.00  0.00    +0.000 A 
ENDROOT
BRANCH   5  33
ATOM     33  N   UNL     1     -14.375  -1.015  27.129  0.00  0.00    +0.000 N 
ATOM     34  C   UNL     1     -13.525  -0.316  26.190  0.00  0.00    +0.000 C 
ATOM     35  H   UNL     1     -15.167  -0.482  27.494  0.00  0.00    +0.000 HD
ENDBRANCH   5  33
BRANCH   3  36
ATOM     36  O   UNL     1     -15.286  -3.681  28.090  0.00  0.00    +0.000 OA
ATOM     37  C   UNL     1     -16.517  -3.210  28.570  0.00  0.00    +0.000 C 
ENDBRANCH   3  36
TORSDOF 2
ENDMDL
MODEL 5
REMARK VINA RESULT:      -6.9      2.288      7.781
REMARK  Name = Staurosporine.pdbqt.pdb
REMARK  2 active torsions:
REMARK  status: ('A' for Active; 'I' for Inactive)
REMARK    1  A    between atoms: C_3  and  O_11
REMARK    2  A    between atoms: C_5  and  N_8
REMARK                            x       y       z     vdW  Elec       q    Type
REMARK                         _______ _______ _______ _____ _____    ______ ____
ROOT
ATOM      1  O   UNL     1       7.772 -14.864  11.761  0.00  0.00    +0.000 OA
ATOM      2  C   UNL     1       6.612 -14.374  12.488  0.00  0.00    +0.000 C 
ATOM      3  C   UNL     1       6.664 -14.586  14.014  0.00  0.00    +0.000 C 
ATOM      4  C   UNL     1       8.976 -14.448  12.305  0.00  0.00    +0.000 C 
ATOM      5  C   UNL     1       7.967 -14.756  14.653  0.00  0.00    +0.000 C 
ATOM      6  C   UNL     1       8.995 -14.700  13.693  0.00  0.00    +0.000 C 
ATOM      7  C   UNL     1       5.446 -15.266  11.944  0.00  0.00    +0.000 C 
ATOM      8  N   UNL     1       6.431 -12.951  12.121  0.00  0.00    +0.000 N 
ATOM      9  C   UNL     1       7.315 -12.010  11.656  0.00  0.00    +0.000 A 
ATOM     10  C   UNL     1       8.702 -12.132  11.520  0.00  0.00    +0.000 A 
ATOM     11  C   UNL     1       6.837 -10.735  11.330  0.00  0.00    +0.000 A 
ATOM     12  N   UNL     1       9.438 -13.221  11.876  0.00  0.00    +0.000 N 
ATOM     13  C   UNL     1       9.366 -10.962  11.122  0.00  0.00    +0.000 A 
ATOM     14  C   UNL     1      10.739 -12.688  11.783  0.00  0.00    +0.000 A 
ATOM     15  C   UNL     1      10.719 -11.332  11.289  0.00  0.00    +0.000 A 
ATOM     16  C   UNL     1      11.955 -13.327  12.075  0.00  0.00    +0.000 A 
ATOM     17  C   UNL     1      11.952 -10.671  11.125  0.00  0.00    +0.000 A 
ATOM     18  C   UNL     1      13.149 -11.322  11.421  0.00  0.00    +0.000 A 
ATOM     19  C   UNL     1      13.146 -12.627  11.890  0.00  0.00    +0.000 A 
ATOM     20  C   UNL     1       8.893  -9.680  10.781  0.00  0.00    +0.000 A 
ATOM     21  C   UNL     1       7.479  -9.568  10.892  0.00  0.00    +0.000 A 
ATOM     22  C   UNL     1       9.470  -8.417  10.382  0.00  0.00    +0.000 C 
ATOM     23  C   UNL     1       7.132  -8.164  10.546  0.00  0.00    +0.000 C 
ATOM     24  N   UNL     1       8.331  -7.606  10.276  0.00  0.00    +0.000 N 
ATOM     25  H   UNL     1       8.426  -6.639   9.999  0.00  0.00    +0.000 HD
ATOM     26  O   UNL     1      10.610  -8.035  10.164  0.00  0.00    +0.000 OA
ATOM     27  C   UNL     1       5.472 -10.837  11.643  0.00  0.00    +0.000 A 
ATOM     28  C   UNL     1       5.240 -12.173  12.136  0.00  0.00    +0.000 A 
ATOM     29  C   UNL     1       4.384  -9.940  11.592  0.00  0.00    +0.000 A 
ATOM     30  C   UNL     1       3.948 -12.549  12.546  0.00  0.00    +0.000 A 
ATOM     31  C   UNL     1       2.904 -11.627  12.474  0.00  0.00    +0.000 A 
ATOM     32  C   UNL     1       3.115 -10.342  12.003  0.00  0.00    +0.000 A 
ENDROOT
BRANCH   5  33
ATOM     33  N   UNL     1       8.172 -14.752  16.060  0.00  0.00    +0.000 N 
ATOM     34  C   UNL     1       8.505 -13.464  16.628  0.00  0.00    +0.000 C 
ATOM     35  H   UNL     1       8.704 -15.548  16.420  0.00  0.00    +0.000 HD
ENDBRANCH   5  33
BRANCH   3  36
ATOM     36  O   UNL     1       5.597 -14.080  14.725  0.00  0.00    +0.000 OA
ATOM     37  C   UNL     1       4.825 -15.099  15.304  0.00  0.00    +0.000 C 
ENDBRANCH   3  36
TORSDOF 2
ENDMDL
MODEL 6
REMARK VINA RESULT:      -6.9     23.164     27.324
REMARK  Name = Staurosporine.pdbqt.pdb
REMARK  2 active torsions:
REMARK  status: ('A' for Active; 'I' for Inactive)
REMARK    1  A    between atoms: C_3  and  O_11
REMARK    2  A    between atoms: C_5  and  N_8
REMARK                            x       y       z     vdW  Elec       q    Type
REMARK                         _______ _______ _______ _____ _____    ______ ____
ROOT
ATOM      1  O   UNL     1     -11.734  -9.474  25.512  0.00  0.00    +0.000 OA
ATOM      2  C   UNL     1     -12.844  -9.926  26.334  0.00  0.00    +0.000 C 
ATOM      3  C   UNL     1     -12.513 -11.086  27.294  0.00  0.00    +0.000 C 
ATOM      4  C   UNL     1     -10.576  -9.238  26.236  0.00  0.00    +0.000 C 
ATOM      5  C   UNL     1     -11.121 -11.294  27.686  0.00  0.00    +0.000 C 
ATOM      6  C   UNL     1     -10.290 -10.342  27.068  0.00  0.00    +0.000 C 
ATOM      7  C   UNL     1     -13.864 -10.482  25.283  0.00  0.00    +0.000 C 
ATOM      8  N   UNL     1     -13.380  -8.741  27.043  0.00  0.00    +0.000 N 
ATOM      9  C   UNL     1     -12.798  -7.547  27.386  0.00  0.00    +0.000 A 
ATOM     10  C   UNL     1     -11.455  -7.178  27.254  0.00  0.00    +0.000 A 
ATOM     11  C   UNL     1     -13.582  -6.568  28.012  0.00  0.00    +0.000 A 
ATOM     12  N   UNL     1     -10.459  -7.980  26.788  0.00  0.00    +0.000 N 
ATOM     13  C   UNL     1     -11.126  -5.927  27.796  0.00  0.00    +0.000 A 
ATOM     14  C   UNL     1      -9.332  -7.209  27.135  0.00  0.00    +0.000 A 
ATOM     15  C   UNL     1      -9.716  -5.942  27.712  0.00  0.00    +0.000 A 
ATOM     16  C   UNL     1      -7.977  -7.531  26.951  0.00  0.00    +0.000 A 
ATOM     17  C   UNL     1      -8.692  -5.053  28.093  0.00  0.00    +0.000 A 
ATOM     18  C   UNL     1      -7.354  -5.391  27.902  0.00  0.00    +0.000 A 
ATOM     19  C   UNL     1      -7.005  -6.611  27.342  0.00  0.00    +0.000 A 
ATOM     20  C   UNL     1     -11.908  -4.933  28.417  0.00  0.00    +0.000 A 
ATOM     21  C   UNL     1     -13.278  -5.299  28.522  0.00  0.00    +0.000 A 
ATOM     22  C   UNL     1     -11.682  -3.639  29.019  0.00  0.00    +0.000 C 
ATOM     23  C   UNL     1     -13.966  -4.184  29.227  0.00  0.00    +0.000 C 
ATOM     24  N   UNL     1     -12.970  -3.303  29.460  0.00  0.00    +0.000 N 
ATOM     25  H   UNL     1     -13.127  -2.423  29.929  0.00  0.00    +0.000 HD
ATOM     26  O   UNL     1     -10.697  -2.931  29.166  0.00  0.00    +0.000 OA
ATOM     27  C   UNL     1     -14.829  -7.206  28.119  0.00  0.00    +0.000 A 
ATOM     28  C   UNL     1     -14.692  -8.524  27.546  0.00  0.00    +0.000 A 
ATOM     29  C   UNL     1     -16.077  -6.834  28.660  0.00  0.00    +0.000 A 
ATOM     30  C   UNL     1     -15.794  -9.395  27.537  0.00  0.00    +0.000 A 
ATOM     31  C   UNL     1     -17.010  -8.981  28.082  0.00  0.00    +0.000 A 
ATOM     32  C   UNL     1     -17.152  -7.719  28.635  0.00  0.00    +0.000 A 
ENDROOT
BRANCH   5  33
ATOM     33  N   UNL     1     -10.707 -12.184  28.715  0.00  0.00    +0.000 N 
ATOM     34  C   UNL     1     -10.139 -13.432  28.254  0.00  0.00    +0.000 C 
ATOM     35  H   UNL     1     -11.346 -12.253  29.509  0.00  0.00    +0.000 HD
ENDBRANCH   5  33
BRANCH   3  36
ATOM     36  O   UNL     1     -13.540 -11.493  28.119  0.00  0.00    +0.000 OA
ATOM     37  C   UNL     1     -13.944 -12.807  27.842  0.00  0.00    +0.000 C 
ENDBRANCH   3  36
TORSDOF 2
ENDMDL
MODEL 7
REMARK VINA RESULT:      -6.4     23.559     27.148
REMARK  Name = Staurosporine.pdbqt.pdb
REMARK  2 active torsions:
REMARK  status: ('A' for Active; 'I' for Inactive)
REMARK    1  A    between atoms: C_3  and  O_11
REMARK    2  A    between atoms: C_5  and  N_8
REMARK                            x       y       z     vdW  Elec       q    Type
REMARK                         _______ _______ _______ _____ _____    ______ ____
ROOT
ATOM      1  O   UNL     1     -11.748  -7.210  29.964  0.00  0.00    +0.000 OA
ATOM      2  C   UNL     1     -11.213  -7.552  28.656  0.00  0.00    +0.000 C 
ATOM      3  C   UNL     1     -12.238  -8.141  27.667  0.00  0.00    +0.000 C 
ATOM      4  C   UNL     1     -12.907  -6.453  29.901  0.00  0.00    +0.000 C 
ATOM      5  C   UNL     1     -13.656  -7.855  27.876  0.00  0.00    +0.000 C 
ATOM      6  C   UNL     1     -13.830  -7.052  29.018  0.00  0.00    +0.000 C 
ATOM      7  C   UNL     1     -10.184  -8.689  28.977  0.00  0.00    +0.000 C 
ATOM      8  N   UNL     1     -10.544  -6.343  28.123  0.00  0.00    +0.000 N 
ATOM      9  C   UNL     1     -10.726  -5.009  28.391  0.00  0.00    +0.000 A 
ATOM     10  C   UNL     1     -11.719  -4.422  29.181  0.00  0.00    +0.000 A 
ATOM     11  C   UNL     1      -9.889  -4.074  27.768  0.00  0.00    +0.000 A 
ATOM     12  N   UNL     1     -12.729  -5.089  29.805  0.00  0.00    +0.000 N 
ATOM     13  C   UNL     1     -11.726  -3.019  29.183  0.00  0.00    +0.000 A 
ATOM     14  C   UNL     1     -13.543  -4.007  30.194  0.00  0.00    +0.000 A 
ATOM     15  C   UNL     1     -12.933  -2.742  29.862  0.00  0.00    +0.000 A 
ATOM     16  C   UNL     1     -14.782  -4.054  30.854  0.00  0.00    +0.000 A 
ATOM     17  C   UNL     1     -13.625  -1.564  30.208  0.00  0.00    +0.000 A 
ATOM     18  C   UNL     1     -14.853  -1.632  30.863  0.00  0.00    +0.000 A 
ATOM     19  C   UNL     1     -15.420  -2.858  31.177  0.00  0.00    +0.000 A 
ATOM     20  C   UNL     1     -10.883  -2.072  28.570  0.00  0.00    +0.000 A 
ATOM     21  C   UNL     1      -9.856  -2.673  27.790  0.00  0.00    +0.000 A 
ATOM     22  C   UNL     1     -10.803  -0.632  28.486  0.00  0.00    +0.000 C 
ATOM     23  C   UNL     1      -9.079  -1.564  27.177  0.00  0.00    +0.000 C 
ATOM     24  N   UNL     1      -9.701  -0.457  27.637  0.00  0.00    +0.000 N 
ATOM     25  H   UNL     1      -9.396   0.474  27.394  0.00  0.00    +0.000 HD
ATOM     26  O   UNL     1     -11.452   0.284  28.971  0.00  0.00    +0.000 OA
ATOM     27  C   UNL     1      -9.070  -4.889  26.970  0.00  0.00    +0.000 A 
ATOM     28  C   UNL     1      -9.484  -6.256  27.178  0.00  0.00    +0.000 A 
ATOM     29  C   UNL     1      -8.022  -4.635  26.060  0.00  0.00    +0.000 A 
ATOM     30  C   UNL     1      -8.839  -7.292  26.482  0.00  0.00    +0.000 A 
ATOM     31  C   UNL     1      -7.805  -6.991  25.594  0.00  0.00    +0.000 A 
ATOM     32  C   UNL     1      -7.400  -5.684  25.386  0.00  0.00    +0.000 A 
ENDROOT
BRANCH   5  33
ATOM     33  N   UNL     1     -14.677  -8.158  26.935  0.00  0.00    +0.000 N 
ATOM     34  C   UNL     1     -15.718  -9.038  27.421  0.00  0.00    +0.000 C 
ATOM     35  H   UNL     1     -14.348  -8.341  25.985  0.00  0.00    +0.000 HD
ENDBRANCH   5  33
BRANCH   3  36
ATOM     36  O   UNL     1     -11.760  -8.422  26.405  0.00  0.00    +0.000 OA
ATOM     37  C   UNL     1     -11.878  -9.785  26.093  0.00  0.00    +0.000 C 
ENDBRANCH   3  36
TORSDOF 2
ENDMDL
MODEL 8
REMARK VINA RESULT:      -6.0     20.078     23.878
REMARK  Name = Staurosporine.pdbqt.pdb
REMARK  2 active torsions:
REMARK  status: ('A' for Active; 'I' for Inactive)
REMARK    1  A    between atoms: C_3  and  O_11
REMARK    2  A    between atoms: C_5  and  N_8
REMARK                            x       y       z     vdW  Elec       q    Type
REMARK                         _______ _______ _______ _____ _____    ______ ____
ROOT
ATOM      1  O   UNL     1     -15.703 -13.739   8.737  0.00  0.00    +0.000 OA
ATOM      2  C   UNL     1     -15.770 -14.620   9.892  0.00  0.00    +0.000 C 
ATOM      3  C   UNL     1     -16.867 -15.701   9.821  0.00  0.00    +0.000 C 
ATOM      4  C   UNL     1     -15.691 -14.417   7.529  0.00  0.00    +0.000 C 
ATOM      5  C   UNL     1     -17.376 -16.097   8.511  0.00  0.00    +0.000 C 
ATOM      6  C   UNL     1     -16.736 -15.364   7.494  0.00  0.00    +0.000 C 
ATOM      7  C   UNL     1     -16.159 -13.651  11.059  0.00  0.00    +0.000 C 
ATOM      8  N   UNL     1     -14.420 -15.196  10.085  0.00  0.00    +0.000 N 
ATOM      9  C   UNL     1     -13.381 -15.396   9.211  0.00  0.00    +0.000 A 
ATOM     10  C   UNL     1     -13.379 -15.206   7.825  0.00  0.00    +0.000 A 
ATOM     11  C   UNL     1     -12.176 -15.916   9.701  0.00  0.00    +0.000 A 
ATOM     12  N   UNL     1     -14.451 -14.822   7.080  0.00  0.00    +0.000 N 
ATOM     13  C   UNL     1     -12.201 -15.599   7.173  0.00  0.00    +0.000 A 
ATOM     14  C   UNL     1     -13.957 -15.066   5.783  0.00  0.00    +0.000 A 
ATOM     15  C   UNL     1     -12.580 -15.500   5.816  0.00  0.00    +0.000 A 
ATOM     16  C   UNL     1     -14.628 -14.902   4.560  0.00  0.00    +0.000 A 
ATOM     17  C   UNL     1     -11.943 -15.766   4.588  0.00  0.00    +0.000 A 
ATOM     18  C   UNL     1     -12.625 -15.598   3.385  0.00  0.00    +0.000 A 
ATOM     19  C   UNL     1     -13.946 -15.175   3.375  0.00  0.00    +0.000 A 
ATOM     20  C   UNL     1     -10.982 -16.113   7.657  0.00  0.00    +0.000 A 
ATOM     21  C   UNL     1     -10.977 -16.276   9.070  0.00  0.00    +0.000 A 
ATOM     22  C   UNL     1      -9.730 -16.563   7.092  0.00  0.00    +0.000 C 
ATOM     23  C   UNL     1      -9.656 -16.859   9.430  0.00  0.00    +0.000 C 
ATOM     24  N   UNL     1      -9.035 -16.978   8.236  0.00  0.00    +0.000 N 
ATOM     25  H   UNL     1      -8.099 -17.347   8.150  0.00  0.00    +0.000 HD
ATOM     26  O   UNL     1      -9.282 -16.616   5.956  0.00  0.00    +0.000 OA
ATOM     27  C   UNL     1     -12.463 -16.110  11.062  0.00  0.00    +0.000 A 
ATOM     28  C   UNL     1     -13.826 -15.688  11.280  0.00  0.00    +0.000 A 
ATOM     29  C   UNL     1     -11.733 -16.621  12.155  0.00  0.00    +0.000 A 
ATOM     30  C   UNL     1     -14.388 -15.791  12.565  0.00  0.00    +0.000 A 
ATOM     31  C   UNL     1     -13.625 -16.301  13.616  0.00  0.00    +0.000 A 
ATOM     32  C   UNL     1     -12.316 -16.709  13.417  0.00  0.00    +0.000 A 
ENDROOT
BRANCH   5  33
ATOM     33  N   UNL     1     -18.228 -17.214   8.290  0.00  0.00    +0.000 N 
ATOM     34  C   UNL     1     -17.553 -18.431   7.894  0.00  0.00    +0.000 C 
ATOM     35  H   UNL     1     -19.095 -17.003   7.790  0.00  0.00    +0.000 HD
ENDBRANCH   5  33
BRANCH   3  36
ATOM     36  O   UNL     1     -16.911 -16.578  10.883  0.00  0.00    +0.000 OA
ATOM     37  C   UNL     1     -18.109 -16.466  11.605  0.00  0.00    +0.000 C 
ENDBRANCH   3  36
TORSDOF 2
ENDMDL
MODEL 9
REMARK VINA RESULT:      -5.8     17.731     19.650
REMARK  Name = Staurosporine.pdbqt.pdb
REMARK  2 active torsions:
REMARK  status: ('A' for Active; 'I' for Inactive)
REMARK    1  A    between atoms: C_3  and  O_11
REMARK    2  A    between atoms: C_5  and  N_8
REMARK                            x       y       z     vdW  Elec       q    Type
REMARK                         _______ _______ _______ _____ _____    ______ ____
ROOT
ATOM      1  O   UNL     1      -0.474  -5.925  -4.933  0.00  0.00    +0.000 OA
ATOM      2  C   UNL     1      -0.977  -4.756  -5.637  0.00  0.00    +0.000 C 
ATOM      3  C   UNL     1      -1.763  -5.063  -6.928  0.00  0.00    +0.000 C 
ATOM      4  C   UNL     1      -1.435  -6.903  -4.738  0.00  0.00    +0.000 C 
ATOM      5  C   UNL     1      -2.370  -6.383  -7.079  0.00  0.00    +0.000 C 
ATOM      6  C   UNL     1      -2.099  -7.180  -5.952  0.00  0.00    +0.000 C 
ATOM      7  C   UNL     1       0.330  -4.008  -6.068  0.00  0.00    +0.000 C 
ATOM      8  N   UNL     1      -1.767  -3.963  -4.668  0.00  0.00    +0.000 N 
ATOM      9  C   UNL     1      -2.420  -4.323  -3.516  0.00  0.00    +0.000 A 
ATOM     10  C   UNL     1      -2.613  -5.611  -3.006  0.00  0.00    +0.000 A 
ATOM     11  C   UNL     1      -3.046  -3.326  -2.755  0.00  0.00    +0.000 A 
ATOM     12  N   UNL     1      -2.212  -6.765  -3.606  0.00  0.00    +0.000 N 
ATOM     13  C   UNL     1      -3.419  -5.683  -1.861  0.00  0.00    +0.000 A 
ATOM     14  C   UNL     1      -2.898  -7.710  -2.818  0.00  0.00    +0.000 A 
ATOM     15  C   UNL     1      -3.603  -7.077  -1.730  0.00  0.00    +0.000 A 
ATOM     16  C   UNL     1      -2.921  -9.106  -2.972  0.00  0.00    +0.000 A 
ATOM     17  C   UNL     1      -4.323  -7.901  -0.842  0.00  0.00    +0.000 A 
ATOM     18  C   UNL     1      -4.335  -9.284  -1.011  0.00  0.00    +0.000 A 
ATOM     19  C   UNL     1      -3.646  -9.874  -2.061  0.00  0.00    +0.000 A 
ATOM     20  C   UNL     1      -4.044  -4.688  -1.084  0.00  0.00    +0.000 A 
ATOM     21  C   UNL     1      -3.821  -3.377  -1.588  0.00  0.00    +0.000 A 
ATOM     22  C   UNL     1      -4.896  -4.643   0.082  0.00  0.00    +0.000 C 
ATOM     23  C   UNL     1      -4.566  -2.444  -0.701  0.00  0.00    +0.000 C 
ATOM     24  N   UNL     1      -5.136  -3.267   0.206  0.00  0.00    +0.000 N 
ATOM     25  H   UNL     1      -5.714  -2.923   0.958  0.00  0.00    +0.000 HD
ATOM     26  O   UNL     1      -5.350  -5.492   0.835  0.00  0.00    +0.000 OA
ATOM     27  C   UNL     1      -2.800  -2.170  -3.513  0.00  0.00    +0.000 A 
ATOM     28  C   UNL     1      -2.041  -2.568  -4.675  0.00  0.00    +0.000 A 
ATOM     29  C   UNL     1      -3.151  -0.812  -3.371  0.00  0.00    +0.000 A 
ATOM     30  C   UNL     1      -1.669  -1.602  -5.626  0.00  0.00    +0.000 A 
ATOM     31  C   UNL     1      -2.037  -0.269  -5.440  0.00  0.00    +0.000 A 
ATOM     32  C   UNL     1      -2.765   0.123  -4.330  0.00  0.00    +0.000 A 
ENDROOT
BRANCH   5  33
ATOM     33  N   UNL     1      -3.286  -6.726  -8.111  0.00  0.00    +0.000 N 
ATOM     34  C   UNL     1      -4.318  -7.665  -7.729  0.00  0.00    +0.000 C 
ATOM     35  H   UNL     1      -2.863  -6.879  -9.030  0.00  0.00    +0.000 HD
ENDBRANCH   5  33
BRANCH   3  36
ATOM     36  O   UNL     1      -2.292  -3.971  -7.580  0.00  0.00    +0.000 OA
ATOM     37  C   UNL     1      -1.729  -3.800  -8.854  0.00  0.00    +0.000 C 
ENDBRANCH   3  36
TORSDOF 2
ENDMDL
