MODEL 1
REMARK VINA RESULT:      -5.9      0.000      0.000
REMARK  Name = Testosterone.pdbqt.pdb
REMARK  1 active torsions:
REMARK  status: ('A' for Active; 'I' for Inactive)
REMARK    1  A    between atoms: C_9  and  O_21
REMARK                            x       y       z     vdW  Elec       q    Type
REMARK                         _______ _______ _______ _____ _____    ______ ____
ROOT
ATOM      1  O   UNL     1       6.577 -14.141  10.554  0.00  0.00    +0.000 OA
ATOM      2  C   UNL     1       7.470  -6.538  10.644  0.00  0.00    +0.000 C 
ATOM      3  C   UNL     1       6.432  -5.570  11.388  0.00  0.00    +0.000 C 
ATOM      4  C   UNL     1       7.672  -7.934  11.079  0.00  0.00    +0.000 C 
ATOM      5  C   UNL     1       6.774  -8.714  12.000  0.00  0.00    +0.000 C 
ATOM      6  C   UNL     1       7.080 -10.144  12.495  0.00  0.00    +0.000 C 
ATOM      7  C   UNL     1       5.522  -6.451  12.122  0.00  0.00    +0.000 C 
ATOM      8  C   UNL     1       5.681  -7.918  12.440  0.00  0.00    +0.000 C 
ATOM      9  C   UNL     1       5.724  -4.833  10.225  0.00  0.00    +0.000 C 
ATOM     10  C   UNL     1       7.378  -6.239   9.245  0.00  0.00    +0.000 C 
ATOM     11  C   UNL     1       8.696  -8.732  10.517  0.00  0.00    +0.000 C 
ATOM     12  C   UNL     1       6.278  -5.241   8.981  0.00  0.00    +0.000 C 
ATOM     13  C   UNL     1       8.165 -10.992  11.576  0.00  0.00    +0.000 C 
ATOM     14  C   UNL     1       8.967 -10.191  10.727  0.00  0.00    +0.000 C 
ATOM     15  C   UNL     1       7.187  -4.567  12.295  0.00  0.00    +0.000 C 
ATOM     16  C   UNL     1       5.846 -10.995  12.423  0.00  0.00    +0.000 C 
ATOM     17  C   UNL     1       7.654 -10.088  13.937  0.00  0.00    +0.000 C 
ATOM     18  C   UNL     1       5.566 -12.385  11.806  0.00  0.00    +0.000 C 
ATOM     19  C   UNL     1       7.800 -12.180  11.139  0.00  0.00    +0.000 C 
ATOM     20  C   UNL     1       6.641 -13.060  11.107  0.00  0.00    +0.000 C 
ENDROOT
BRANCH   9  21
ATOM     21  O   UNL     1       5.198  -3.563  10.370  0.00  0.00    +0.000 OA
ATOM     22  H   UNL     1       5.743  -2.897   9.906  0.00  0.00    +0.000 HD
ENDBRANCH   9  21
TORSDOF 1
ENDMDL
MODEL 2
REMARK VINA RESULT:      -5.7     21.511     23.686
REMARK  Name = Testosterone.pdbqt.pdb
REMARK  1 active torsions:
REMARK  status: ('A' for Active; 'I' for Inactive)
REMARK    1  A    between atoms: C_9  and  O_21
REMARK                            x       y       z     vdW  Elec       q    Type
REMARK                         _______ _______ _______ _____ _____    ______ ____
ROOT
ATOM      1  O   UNL     1      -7.847  -1.167  26.645  0.00  0.00    +0.000 OA
ATOM      2  C   UNL     1     -10.913  -8.076  27.858  0.00  0.00    +0.000 C 
ATOM      3  C   UNL     1     -10.784  -9.262  26.787  0.00  0.00    +0.000 C 
ATOM      4  C   UNL     1      -9.902  -7.004  27.948  0.00  0.00    +0.000 C 
ATOM      5  C   UNL     1      -8.850  -6.690  26.921  0.00  0.00    +0.000 C 
ATOM      6  C   UNL     1      -7.758  -5.614  27.106  0.00  0.00    +0.000 C 
ATOM      7  C   UNL     1      -9.858  -8.775  25.763  0.00  0.00    +0.000 C 
ATOM      8  C   UNL     1      -8.927  -7.589  25.821  0.00  0.00    +0.000 C 
ATOM      9  C   UNL     1     -12.225  -9.421  26.245  0.00  0.00    +0.000 C 
ATOM     10  C   UNL     1     -12.305  -7.744  27.934  0.00  0.00    +0.000 C 
ATOM     11  C   UNL     1      -9.942  -6.051  28.992  0.00  0.00    +0.000 C 
ATOM     12  C   UNL     1     -13.100  -8.523  26.915  0.00  0.00    +0.000 C 
ATOM     13  C   UNL     1      -8.090  -4.461  28.248  0.00  0.00    +0.000 C 
ATOM     14  C   UNL     1      -9.098  -4.826  29.174  0.00  0.00    +0.000 C 
ATOM     15  C   UNL     1     -10.311 -10.563  27.480  0.00  0.00    +0.000 C 
ATOM     16  C   UNL     1      -7.605  -4.805  25.851  0.00  0.00    +0.000 C 
ATOM     17  C   UNL     1      -6.422  -6.289  27.519  0.00  0.00    +0.000 C 
ATOM     18  C   UNL     1      -7.596  -3.282  25.580  0.00  0.00    +0.000 C 
ATOM     19  C   UNL     1      -8.016  -3.198  27.882  0.00  0.00    +0.000 C 
ATOM     20  C   UNL     1      -7.807  -2.381  26.696  0.00  0.00    +0.000 C 
ENDROOT
BRANCH   9  21
ATOM     21  O   UNL     1     -12.702 -10.627  25.763  0.00  0.00    +0.000 OA
ATOM     22  H   UNL     1     -12.652 -11.326  26.444  0.00  0.00    +0.000 HD
ENDBRANCH   9  21
TORSDOF 1
ENDMDL
MODEL 3
REMARK VINA RESULT:      -5.4     18.762     20.512
REMARK  Name = Testosterone.pdbqt.pdb
REMARK  1 active torsions:
REMARK  status: ('A' for Active; 'I' for Inactive)
REMARK    1  A    between atoms: C_9  and  O_21
REMARK                            x       y       z     vdW  Elec       q    Type
REMARK                         _______ _______ _______ _____ _____    ______ ____
ROOT
ATOM      1  O   UNL     1      -8.537 -23.611  14.795  0.00  0.00    +0.000 OA
ATOM      2  C   UNL     1     -11.190 -18.153  10.128  0.00  0.00    +0.000 C 
ATOM      3  C   UNL     1     -10.261 -17.455   9.025  0.00  0.00    +0.000 C 
ATOM      4  C   UNL     1     -10.928 -19.527  10.600  0.00  0.00    +0.000 C 
ATOM      5  C   UNL     1      -9.662 -20.311  10.388  0.00  0.00    +0.000 C 
ATOM      6  C   UNL     1      -9.474 -21.780  10.825  0.00  0.00    +0.000 C 
ATOM      7  C   UNL     1      -9.007 -18.210   9.023  0.00  0.00    +0.000 C 
ATOM      8  C   UNL     1      -8.719 -19.560   9.633  0.00  0.00    +0.000 C 
ATOM      9  C   UNL     1     -10.077 -16.015   9.562  0.00  0.00    +0.000 C 
ATOM     10  C   UNL     1     -11.537 -17.134  11.074  0.00  0.00    +0.000 C 
ATOM     11  C   UNL     1     -11.838 -20.189  11.457  0.00  0.00    +0.000 C 
ATOM     12  C   UNL     1     -10.817 -15.845  10.763  0.00  0.00    +0.000 C 
ATOM     13  C   UNL     1     -10.521 -22.308  11.994  0.00  0.00    +0.000 C 
ATOM     14  C   UNL     1     -11.684 -21.513  12.141  0.00  0.00    +0.000 C 
ATOM     15  C   UNL     1     -10.976 -17.441   7.650  0.00  0.00    +0.000 C 
ATOM     16  C   UNL     1      -8.132 -21.963  11.472  0.00  0.00    +0.000 C 
ATOM     17  C   UNL     1      -9.653 -22.718   9.600  0.00  0.00    +0.000 C 
ATOM     18  C   UNL     1      -7.694 -22.595  12.813  0.00  0.00    +0.000 C 
ATOM     19  C   UNL     1     -10.005 -22.854  13.076  0.00  0.00    +0.000 C 
ATOM     20  C   UNL     1      -8.717 -23.106  13.703  0.00  0.00    +0.000 C 
ENDROOT
BRANCH   9  21
ATOM     21  O   UNL     1      -9.855 -14.938   8.722  0.00  0.00    +0.000 OA
ATOM     22  H   UNL     1     -10.295 -14.132   9.055  0.00  0.00    +0.000 HD
ENDBRANCH   9  21
TORSDOF 1
ENDMDL
MODEL 4
REMARK VINA RESULT:      -5.3     26.783     28.388
REMARK  Name = Testosterone.pdbqt.pdb
REMARK  1 active torsions:
REMARK  status: ('A' for Active; 'I' for Inactive)
REMARK    1  A    between atoms: C_9  and  O_21
REMARK                            x       y       z     vdW  Elec       q    Type
REMARK                         _______ _______ _______ _____ _____    ______ ____
ROOT
ATOM      1  O   UNL     1     -20.613  -7.473  11.775  0.00  0.00    +0.000 OA
ATOM      2  C   UNL     1     -19.763  -4.797  18.898  0.00  0.00    +0.000 C 
ATOM      3  C   UNL     1     -20.988  -4.726  19.929  0.00  0.00    +0.000 C 
ATOM      4  C   UNL     1     -19.729  -5.793  17.808  0.00  0.00    +0.000 C 
ATOM      5  C   UNL     1     -20.891  -6.615  17.322  0.00  0.00    +0.000 C 
ATOM      6  C   UNL     1     -20.780  -7.708  16.237  0.00  0.00    +0.000 C 
ATOM      7  C   UNL     1     -22.098  -5.424  19.279  0.00  0.00    +0.000 C 
ATOM      8  C   UNL     1     -22.065  -6.333  18.074  0.00  0.00    +0.000 C 
ATOM      9  C   UNL     1     -21.254  -3.208  20.074  0.00  0.00    +0.000 C 
ATOM     10  C   UNL     1     -19.372  -3.444  18.633  0.00  0.00    +0.000 C 
ATOM     11  C   UNL     1     -18.579  -5.949  16.999  0.00  0.00    +0.000 C 
ATOM     12  C   UNL     1     -20.312  -2.473  19.304  0.00  0.00    +0.000 C 
ATOM     13  C   UNL     1     -19.451  -7.596  15.256  0.00  0.00    +0.000 C 
ATOM     14  C   UNL     1     -18.403  -6.797  15.776  0.00  0.00    +0.000 C 
ATOM     15  C   UNL     1     -20.582  -5.345  21.290  0.00  0.00    +0.000 C 
ATOM     16  C   UNL     1     -21.920  -7.598  15.268  0.00  0.00    +0.000 C 
ATOM     17  C   UNL     1     -20.730  -9.109  16.908  0.00  0.00    +0.000 C 
ATOM     18  C   UNL     1     -21.980  -7.533  13.724  0.00  0.00    +0.000 C 
ATOM     19  C   UNL     1     -19.651  -7.579  13.954  0.00  0.00    +0.000 C 
ATOM     20  C   UNL     1     -20.735  -7.538  12.983  0.00  0.00    +0.000 C 
ENDROOT
BRANCH   9  21
ATOM     21  O   UNL     1     -21.791  -2.661  21.225  0.00  0.00    +0.000 OA
ATOM     22  H   UNL     1     -22.319  -3.319  21.718  0.00  0.00    +0.000 HD
ENDBRANCH   9  21
TORSDOF 1
ENDMDL
MODEL 5
REMARK VINA RESULT:      -4.8     21.226     24.680
REMARK  Name = Testosterone.pdbqt.pdb
REMARK  1 active torsions:
REMARK  status: ('A' for Active; 'I' for Inactive)
REMARK    1  A    between atoms: C_9  and  O_21
REMARK                            x       y       z     vdW  Elec       q    Type
REMARK                         _______ _______ _______ _____ _____    ______ ____
ROOT
ATOM      1  O   UNL     1     -16.138   7.822   6.039  0.00  0.00    +0.000 OA
ATOM      2  C   UNL     1      -8.493   8.161   5.834  0.00  0.00    +0.000 C 
ATOM      3  C   UNL     1      -7.575   7.084   6.586  0.00  0.00    +0.000 C 
ATOM      4  C   UNL     1      -9.851   7.824   5.362  0.00  0.00    +0.000 C 
ATOM      5  C   UNL     1     -10.655   6.620   5.767  0.00  0.00    +0.000 C 
ATOM      6  C   UNL     1     -12.037   6.266   5.173  0.00  0.00    +0.000 C 
ATOM      7  C   UNL     1      -8.490   6.046   7.065  0.00  0.00    +0.000 C 
ATOM      8  C   UNL     1      -9.926   5.800   6.671  0.00  0.00    +0.000 C 
ATOM      9  C   UNL     1      -6.944   7.890   7.746  0.00  0.00    +0.000 C 
ATOM     10  C   UNL     1      -8.261   9.418   6.481  0.00  0.00    +0.000 C 
ATOM     11  C   UNL     1     -10.592   8.729   4.567  0.00  0.00    +0.000 C 
ATOM     12  C   UNL     1      -7.361   9.247   7.679  0.00  0.00    +0.000 C 
ATOM     13  C   UNL     1     -12.839   7.525   4.456  0.00  0.00    +0.000 C 
ATOM     14  C   UNL     1     -12.016   8.625   4.113  0.00  0.00    +0.000 C 
ATOM     15  C   UNL     1      -6.481   6.549   5.629  0.00  0.00    +0.000 C 
ATOM     16  C   UNL     1     -12.980   5.847   6.262  0.00  0.00    +0.000 C 
ATOM     17  C   UNL     1     -11.876   5.159   4.096  0.00  0.00    +0.000 C 
ATOM     18  C   UNL     1     -14.412   6.294   6.638  0.00  0.00    +0.000 C 
ATOM     19  C   UNL     1     -14.069   7.774   4.857  0.00  0.00    +0.000 C 
ATOM     20  C   UNL     1     -15.033   7.348   5.860  0.00  0.00    +0.000 C 
ENDROOT
BRANCH   9  21
ATOM     21  O   UNL     1      -5.711   7.566   8.283  0.00  0.00    +0.000 OA
ATOM     22  H   UNL     1      -4.988   7.759   7.654  0.00  0.00    +0.000 HD
ENDBRANCH   9  21
TORSDOF 1
ENDMDL
MODEL 6
REMARK VINA RESULT:      -4.6     22.030     23.541
REMARK  Name = Testosterone.pdbqt.pdb
REMARK  1 active torsions:
REMARK  status: ('A' for Active; 'I' for Inactive)
REMARK    1  A    between atoms: C_9  and  O_21
REMARK                            x       y       z     vdW  Elec       q    Type
REMARK                         _______ _______ _______ _____ _____    ______ ____
ROOT
ATOM      1  O   UNL     1     -14.396  -9.930  27.216  0.00  0.00    +0.000 OA
ATOM      2  C   UNL     1      -7.512  -6.599  27.570  0.00  0.00    +0.000 C 
ATOM      3  C   UNL     1      -6.755  -6.361  28.963  0.00  0.00    +0.000 C 
ATOM      4  C   UNL     1      -8.481  -7.699  27.396  0.00  0.00    +0.000 C 
ATOM      5  C   UNL     1      -9.113  -8.506  28.497  0.00  0.00    +0.000 C 
ATOM      6  C   UNL     1     -10.053  -9.707  28.256  0.00  0.00    +0.000 C 
ATOM      7  C   UNL     1      -7.548  -7.064  29.973  0.00  0.00    +0.000 C 
ATOM      8  C   UNL     1      -8.637  -8.090  29.771  0.00  0.00    +0.000 C 
ATOM      9  C   UNL     1      -6.801  -4.825  29.145  0.00  0.00    +0.000 C 
ATOM     10  C   UNL     1      -7.813  -5.301  27.042  0.00  0.00    +0.000 C 
ATOM     11  C   UNL     1      -9.028  -7.995  26.126  0.00  0.00    +0.000 C 
ATOM     12  C   UNL     1      -7.430  -4.220  28.023  0.00  0.00    +0.000 C 
ATOM     13  C   UNL     1     -10.758  -9.762  26.758  0.00  0.00    +0.000 C 
ATOM     14  C   UNL     1     -10.112  -8.969  25.777  0.00  0.00    +0.000 C 
ATOM     15  C   UNL     1      -5.291  -6.860  28.870  0.00  0.00    +0.000 C 
ATOM     16  C   UNL     1     -11.236  -9.637  29.177  0.00  0.00    +0.000 C 
ATOM     17  C   UNL     1      -9.265 -11.034  28.434  0.00  0.00    +0.000 C 
ATOM     18  C   UNL     1     -12.760  -9.724  28.934  0.00  0.00    +0.000 C 
ATOM     19  C   UNL     1     -12.069  -9.866  26.702  0.00  0.00    +0.000 C 
ATOM     20  C   UNL     1     -13.235  -9.867  27.573  0.00  0.00    +0.000 C 
ENDROOT
BRANCH   9  21
ATOM     21  O   UNL     1      -5.833  -4.138  29.854  0.00  0.00    +0.000 OA
ATOM     22  H   UNL     1      -5.953  -3.172  29.775  0.00  0.00    +0.000 HD
ENDBRANCH   9  21
TORSDOF 1
ENDMDL
MODEL 7
REMARK VINA RESULT:      -4.4     25.907     28.781
REMARK  Name = Testosterone.pdbqt.pdb
REMARK  1 active torsions:
REMARK  status: ('A' for Active; 'I' for Inactive)
REMARK    1  A    between atoms: C_9  and  O_21
REMARK                            x       y       z     vdW  Elec       q    Type
REMARK                         _______ _______ _______ _____ _____    ______ ____
ROOT
ATOM      1  O   UNL     1     -11.478   2.462  -5.046  0.00  0.00    +0.000 OA
ATOM      2  C   UNL     1     -18.014   2.834  -1.078  0.00  0.00    +0.000 C 
ATOM      3  C   UNL     1     -18.598   1.571  -0.283  0.00  0.00    +0.000 C 
ATOM      4  C   UNL     1     -16.567   2.987  -1.329  0.00  0.00    +0.000 C 
ATOM      5  C   UNL     1     -15.525   1.912  -1.186  0.00  0.00    +0.000 C 
ATOM      6  C   UNL     1     -14.011   2.149  -1.375  0.00  0.00    +0.000 C 
ATOM      7  C   UNL     1     -17.557   0.543  -0.347  0.00  0.00    +0.000 C 
ATOM      8  C   UNL     1     -16.108   0.693  -0.742  0.00  0.00    +0.000 C 
ATOM      9  C   UNL     1     -19.857   1.180  -1.094  0.00  0.00    +0.000 C 
ATOM     10  C   UNL     1     -18.949   3.127  -2.124  0.00  0.00    +0.000 C 
ATOM     11  C   UNL     1     -16.047   4.175  -1.894  0.00  0.00    +0.000 C 
ATOM     12  C   UNL     1     -20.044   2.090  -2.171  0.00  0.00    +0.000 C 
ATOM     13  C   UNL     1     -13.611   3.500  -2.245  0.00  0.00    +0.000 C 
ATOM     14  C   UNL     1     -14.647   4.462  -2.343  0.00  0.00    +0.000 C 
ATOM     15  C   UNL     1     -18.979   1.974   1.163  0.00  0.00    +0.000 C 
ATOM     16  C   UNL     1     -13.407   1.040  -2.186  0.00  0.00    +0.000 C 
ATOM     17  C   UNL     1     -13.325   2.285   0.012  0.00  0.00    +0.000 C 
ATOM     18  C   UNL     1     -12.508   1.032  -3.444  0.00  0.00    +0.000 C 
ATOM     19  C   UNL     1     -12.810   3.348  -3.279  0.00  0.00    +0.000 C 
ATOM     20  C   UNL     1     -12.157   2.301  -4.050  0.00  0.00    +0.000 C 
ENDROOT
BRANCH   9  21
ATOM     21  O   UNL     1     -20.946   0.560  -0.511  0.00  0.00    +0.000 OA
ATOM     22  H   UNL     1     -21.764   0.724  -1.020  0.00  0.00    +0.000 HD
ENDBRANCH   9  21
TORSDOF 1
ENDMDL
MODEL 8
REMARK VINA RESULT:      -4.3     26.565     29.377
REMARK  Name = Testosterone.pdbqt.pdb
REMARK  1 active torsions:
REMARK  status: ('A' for Active; 'I' for Inactive)
REMARK    1  A    between atoms: C_9  and  O_21
REMARK                            x       y       z     vdW  Elec       q    Type
REMARK                         _______ _______ _______ _____ _____    ______ ____
ROOT
ATOM      1  O   UNL     1     -22.610   0.381  -1.311  0.00  0.00    +0.000 OA
ATOM      2  C   UNL     1     -15.009   1.235  -0.992  0.00  0.00    +0.000 C 
ATOM      3  C   UNL     1     -14.251   2.398  -1.793  0.00  0.00    +0.000 C 
ATOM      4  C   UNL     1     -16.412   1.384  -0.557  0.00  0.00    +0.000 C 
ATOM      5  C   UNL     1     -17.383   2.426  -1.040  0.00  0.00    +0.000 C 
ATOM      6  C   UNL     1     -18.814   2.594  -0.484  0.00  0.00    +0.000 C 
ATOM      7  C   UNL     1     -15.304   3.255  -2.342  0.00  0.00    +0.000 C 
ATOM      8  C   UNL     1     -16.768   3.299  -1.980  0.00  0.00    +0.000 C 
ATOM      9  C   UNL     1     -13.479   1.638  -2.898  0.00  0.00    +0.000 C 
ATOM     10  C   UNL     1     -14.573  -0.005  -1.564  0.00  0.00    +0.000 C 
ATOM     11  C   UNL     1     -17.022   0.420   0.278  0.00  0.00    +0.000 C 
ATOM     12  C   UNL     1     -13.685   0.238  -2.759  0.00  0.00    +0.000 C 
ATOM     13  C   UNL     1     -19.429   1.268   0.293  0.00  0.00    +0.000 C 
ATOM     14  C   UNL     1     -18.455   0.327   0.708  0.00  0.00    +0.000 C 
ATOM     15  C   UNL     1     -13.272   3.147  -0.854  0.00  0.00    +0.000 C 
ATOM     16  C   UNL     1     -19.788   2.803  -1.607  0.00  0.00    +0.000 C 
ATOM     17  C   UNL     1     -18.848   3.770   0.530  0.00  0.00    +0.000 C 
ATOM     18  C   UNL     1     -21.126   2.121  -1.974  0.00  0.00    +0.000 C 
ATOM     19  C   UNL     1     -20.597   0.810  -0.108  0.00  0.00    +0.000 C 
ATOM     20  C   UNL     1     -21.594   1.028  -1.146  0.00  0.00    +0.000 C 
ENDROOT
BRANCH   9  21
ATOM     21  O   UNL     1     -12.300   2.118  -3.436  0.00  0.00    +0.000 OA
ATOM     22  H   UNL     1     -12.089   3.008  -3.093  0.00  0.00    +0.000 HD
ENDBRANCH   9  21
TORSDOF 1
ENDMDL
MODEL 9
REMARK VINA RESULT:      -4.3     29.879     31.644
REMARK  Name = Testosterone.pdbqt.pdb
REMARK  1 active torsions:
REMARK  status: ('A' for Active; 'I' for Inactive)
REMARK    1  A    between atoms: C_9  and  O_21
REMARK                            x       y       z     vdW  Elec       q    Type
REMARK                         _______ _______ _______ _____ _____    ______ ____
ROOT
ATOM      1  O   UNL     1     -27.253  -7.076  22.807  0.00  0.00    +0.000 OA
ATOM      2  C   UNL     1     -20.306  -4.313  21.160  0.00  0.00    +0.000 C 
ATOM      3  C   UNL     1     -20.076  -2.779  20.757  0.00  0.00    +0.000 C 
ATOM      4  C   UNL     1     -21.435  -4.725  22.017  0.00  0.00    +0.000 C 
ATOM      5  C   UNL     1     -22.643  -3.894  22.351  0.00  0.00    +0.000 C 
ATOM      6  C   UNL     1     -23.755  -4.340  23.326  0.00  0.00    +0.000 C 
ATOM      7  C   UNL     1     -21.360  -2.112  20.978  0.00  0.00    +0.000 C 
ATOM      8  C   UNL     1     -22.562  -2.609  21.745  0.00  0.00    +0.000 C 
ATOM      9  C   UNL     1     -19.704  -2.849  19.256  0.00  0.00    +0.000 C 
ATOM     10  C   UNL     1     -19.971  -5.094  20.006  0.00  0.00    +0.000 C 
ATOM     11  C   UNL     1     -21.543  -6.053  22.493  0.00  0.00    +0.000 C 
ATOM     12  C   UNL     1     -19.657  -4.204  18.829  0.00  0.00    +0.000 C 
ATOM     13  C   UNL     1     -23.842  -5.971  23.597  0.00  0.00    +0.000 C 
ATOM     14  C   UNL     1     -22.670  -6.687  23.249  0.00  0.00    +0.000 C 
ATOM     15  C   UNL     1     -18.915  -2.173  21.583  0.00  0.00    +0.000 C 
ATOM     16  C   UNL     1     -25.107  -4.024  22.755  0.00  0.00    +0.000 C 
ATOM     17  C   UNL     1     -23.543  -3.662  24.708  0.00  0.00    +0.000 C 
ATOM     18  C   UNL     1     -26.382  -4.874  22.551  0.00  0.00    +0.000 C 
ATOM     19  C   UNL     1     -25.004  -6.561  23.409  0.00  0.00    +0.000 C 
ATOM     20  C   UNL     1     -26.346  -6.275  22.922  0.00  0.00    +0.000 C 
ENDROOT
BRANCH   9  21
ATOM     21  O   UNL     1     -18.899  -1.900  18.652  0.00  0.00    +0.000 OA
ATOM     22  H   UNL     1     -19.286  -1.006  18.728  0.00  0.00    +0.000 HD
ENDBRANCH   9  21
TORSDOF 1
ENDMDL
