MODEL 1
REMARK VINA RESULT:      -2.7      0.000      0.000
REMARK  Name = Tetrachloroethylene.pdbqt.pdb
REMARK  0 active torsions:
REMARK  status: ('A' for Active; 'I' for Inactive)
REMARK                            x       y       z     vdW  Elec       q    Type
REMARK                         _______ _______ _______ _____ _____    ______ ____
ROOT
ATOM      1 CL   UNL     1      -3.701  -1.532  -1.520  0.00  0.00    +0.000 Cl
ATOM      2 CL   UNL     1      -5.703  -1.918   0.582  0.00  0.00    +0.000 Cl
ATOM      3 CL   UNL     1      -5.118  -5.082   0.559  0.00  0.00    +0.000 Cl
ATOM      4 CL   UNL     1      -3.116  -4.697  -1.543  0.00  0.00    +0.000 Cl
ATOM      5  C   UNL     1      -4.532  -2.646  -0.475  0.00  0.00    +0.000 C 
ATOM      6  C   UNL     1      -4.287  -3.968  -0.485  0.00  0.00    +0.000 C 
ENDROOT
TORSDOF 0
ENDMDL
MODEL 2
REMARK VINA RESULT:      -2.6      0.644      2.718
REMARK  Name = Tetrachloroethylene.pdbqt.pdb
REMARK  0 active torsions:
REMARK  status: ('A' for Active; 'I' for Inactive)
REMARK                            x       y       z     vdW  Elec       q    Type
REMARK                         _______ _______ _______ _____ _____    ______ ____
ROOT
ATOM      1 CL   UNL     1      -5.758  -2.520   0.788  0.00  0.00    +0.000 Cl
ATOM      2 CL   UNL     1      -5.144  -5.357   0.406  0.00  0.00    +0.000 Cl
ATOM      3 CL   UNL     1      -2.868  -4.577  -1.731  0.00  0.00    +0.000 Cl
ATOM      4 CL   UNL     1      -3.483  -1.740  -1.350  0.00  0.00    +0.000 Cl
ATOM      5  C   UNL     1      -4.788  -3.712  -0.025  0.00  0.00    +0.000 C 
ATOM      6  C   UNL     1      -3.838  -3.386  -0.918  0.00  0.00    +0.000 C 
ENDROOT
TORSDOF 0
ENDMDL
MODEL 3
REMARK VINA RESULT:      -2.6     21.133     22.632
REMARK  Name = Tetrachloroethylene.pdbqt.pdb
REMARK  0 active torsions:
REMARK  status: ('A' for Active; 'I' for Inactive)
REMARK                            x       y       z     vdW  Elec       q    Type
REMARK                         _______ _______ _______ _____ _____    ______ ____
ROOT
ATOM      1 CL   UNL     1      -4.563 -16.760  19.956  0.00  0.00    +0.000 Cl
ATOM      2 CL   UNL     1      -2.411 -16.218  18.047  0.00  0.00    +0.000 Cl
ATOM      3 CL   UNL     1      -4.592 -15.525  15.785  0.00  0.00    +0.000 Cl
ATOM      4 CL   UNL     1      -6.744 -16.067  17.694  0.00  0.00    +0.000 Cl
ATOM      5  C   UNL     1      -4.122 -16.287  18.343  0.00  0.00    +0.000 C 
ATOM      6  C   UNL     1      -5.033 -15.998  17.398  0.00  0.00    +0.000 C 
ENDROOT
TORSDOF 0
ENDMDL
MODEL 4
REMARK VINA RESULT:      -2.6     11.554     12.607
REMARK  Name = Tetrachloroethylene.pdbqt.pdb
REMARK  0 active torsions:
REMARK  status: ('A' for Active; 'I' for Inactive)
REMARK                            x       y       z     vdW  Elec       q    Type
REMARK                         _______ _______ _______ _____ _____    ______ ____
ROOT
ATOM      1 CL   UNL     1     -13.696  -7.483   3.783  0.00  0.00    +0.000 Cl
ATOM      2 CL   UNL     1     -14.278  -4.886   5.002  0.00  0.00    +0.000 Cl
ATOM      3 CL   UNL     1     -15.469  -6.370   7.597  0.00  0.00    +0.000 Cl
ATOM      4 CL   UNL     1     -14.886  -8.968   6.378  0.00  0.00    +0.000 Cl
ATOM      5  C   UNL     1     -14.334  -6.617   5.148  0.00  0.00    +0.000 C 
ATOM      6  C   UNL     1     -14.831  -7.237   6.232  0.00  0.00    +0.000 C 
ENDROOT
TORSDOF 0
ENDMDL
MODEL 5
REMARK VINA RESULT:      -2.5     11.037     12.366
REMARK  Name = Tetrachloroethylene.pdbqt.pdb
REMARK  0 active torsions:
REMARK  status: ('A' for Active; 'I' for Inactive)
REMARK                            x       y       z     vdW  Elec       q    Type
REMARK                         _______ _______ _______ _____ _____    ______ ____
ROOT
ATOM      1 CL   UNL     1     -13.921  -8.042   3.759  0.00  0.00    +0.000 Cl
ATOM      2 CL   UNL     1     -11.435  -8.873   5.064  0.00  0.00    +0.000 Cl
ATOM      3 CL   UNL     1     -12.816  -8.482   7.944  0.00  0.00    +0.000 Cl
ATOM      4 CL   UNL     1     -15.302  -7.651   6.639  0.00  0.00    +0.000 Cl
ATOM      5  C   UNL     1     -13.080  -8.343   5.250  0.00  0.00    +0.000 C 
ATOM      6  C   UNL     1     -13.657  -8.180   6.453  0.00  0.00    +0.000 C 
ENDROOT
TORSDOF 0
ENDMDL
MODEL 6
REMARK VINA RESULT:      -2.4     22.317     23.140
REMARK  Name = Tetrachloroethylene.pdbqt.pdb
REMARK  0 active torsions:
REMARK  status: ('A' for Active; 'I' for Inactive)
REMARK                            x       y       z     vdW  Elec       q    Type
REMARK                         _______ _______ _______ _____ _____    ______ ____
ROOT
ATOM      1 CL   UNL     1     -19.171  -5.184  18.646  0.00  0.00    +0.000 Cl
ATOM      2 CL   UNL     1     -21.243  -5.171  16.577  0.00  0.00    +0.000 Cl
ATOM      3 CL   UNL     1     -19.615  -7.409  14.934  0.00  0.00    +0.000 Cl
ATOM      4 CL   UNL     1     -17.544  -7.422  17.003  0.00  0.00    +0.000 Cl
ATOM      5  C   UNL     1     -19.733  -5.829  17.133  0.00  0.00    +0.000 C 
ATOM      6  C   UNL     1     -19.053  -6.764  16.447  0.00  0.00    +0.000 C 
ENDROOT
TORSDOF 0
ENDMDL
MODEL 7
REMARK VINA RESULT:      -2.4     14.689     15.194
REMARK  Name = Tetrachloroethylene.pdbqt.pdb
REMARK  0 active torsions:
REMARK  status: ('A' for Active; 'I' for Inactive)
REMARK                            x       y       z     vdW  Elec       q    Type
REMARK                         _______ _______ _______ _____ _____    ______ ____
ROOT
ATOM      1 CL   UNL     1       5.974  -7.858  11.566  0.00  0.00    +0.000 Cl
ATOM      2 CL   UNL     1       6.225  -4.949  11.789  0.00  0.00    +0.000 Cl
ATOM      3 CL   UNL     1       5.425  -4.642   8.687  0.00  0.00    +0.000 Cl
ATOM      4 CL   UNL     1       5.174  -7.551   8.464  0.00  0.00    +0.000 Cl
ATOM      5  C   UNL     1       5.866  -6.314  10.774  0.00  0.00    +0.000 C 
ATOM      6  C   UNL     1       5.533  -6.186   9.479  0.00  0.00    +0.000 C 
ENDROOT
TORSDOF 0
ENDMDL
MODEL 8
REMARK VINA RESULT:      -2.3     14.964     15.587
REMARK  Name = Tetrachloroethylene.pdbqt.pdb
REMARK  0 active torsions:
REMARK  status: ('A' for Active; 'I' for Inactive)
REMARK                            x       y       z     vdW  Elec       q    Type
REMARK                         _______ _______ _______ _____ _____    ______ ____
ROOT
ATOM      1 CL   UNL     1       6.279  -7.228  12.273  0.00  0.00    +0.000 Cl
ATOM      2 CL   UNL     1       5.484  -8.112   9.598  0.00  0.00    +0.000 Cl
ATOM      3 CL   UNL     1       5.291  -5.045   8.642  0.00  0.00    +0.000 Cl
ATOM      4 CL   UNL     1       6.085  -4.161  11.317  0.00  0.00    +0.000 Cl
ATOM      5  C   UNL     1       5.825  -6.777  10.657  0.00  0.00    +0.000 C 
ATOM      6  C   UNL     1       5.744  -5.496  10.258  0.00  0.00    +0.000 C 
ENDROOT
TORSDOF 0
ENDMDL
MODEL 9
REMARK VINA RESULT:      -2.3     23.252     24.658
REMARK  Name = Tetrachloroethylene.pdbqt.pdb
REMARK  0 active torsions:
REMARK  status: ('A' for Active; 'I' for Inactive)
REMARK                            x       y       z     vdW  Elec       q    Type
REMARK                         _______ _______ _______ _____ _____    ______ ____
ROOT
ATOM      1 CL   UNL     1      -8.539 -16.346  20.651  0.00  0.00    +0.000 Cl
ATOM      2 CL   UNL     1      -6.090 -16.682  22.220  0.00  0.00    +0.000 Cl
ATOM      3 CL   UNL     1      -4.354 -16.681  19.511  0.00  0.00    +0.000 Cl
ATOM      4 CL   UNL     1      -6.803 -16.345  17.942  0.00  0.00    +0.000 Cl
ATOM      5  C   UNL     1      -6.809 -16.514  20.647  0.00  0.00    +0.000 C 
ATOM      6  C   UNL     1      -6.084 -16.513  19.515  0.00  0.00    +0.000 C 
ENDROOT
TORSDOF 0
ENDMDL
