MODEL 1
REMARK VINA RESULT:      -5.8      0.000      0.000
REMARK  Name = Thalidomide.pdbqt.pdb
REMARK  1 active torsions:
REMARK  status: ('A' for Active; 'I' for Inactive)
REMARK    1  A    between atoms: N_3  and  C_12
REMARK                            x       y       z     vdW  Elec       q    Type
REMARK                         _______ _______ _______ _____ _____    ______ ____
ROOT
ATOM      1  O   UNL     1      -5.943  -3.005  -1.202  0.00  0.00    +0.000 OA
ATOM      2  O   UNL     1      -2.347  -5.856  -1.525  0.00  0.00    +0.000 OA
ATOM      3  N   UNL     1      -4.445  -4.823  -1.234  0.00  0.00    +0.000 N 
ATOM      4  C   UNL     1      -4.920  -3.569  -1.544  0.00  0.00    +0.000 C 
ATOM      5  C   UNL     1      -3.187  -5.010  -1.765  0.00  0.00    +0.000 C 
ATOM      6  C   UNL     1      -3.946  -2.957  -2.440  0.00  0.00    +0.000 A 
ATOM      7  C   UNL     1      -2.900  -3.843  -2.590  0.00  0.00    +0.000 A 
ATOM      8  C   UNL     1      -3.960  -1.723  -3.057  0.00  0.00    +0.000 A 
ATOM      9  C   UNL     1      -1.791  -3.548  -3.355  0.00  0.00    +0.000 A 
ATOM     10  C   UNL     1      -2.855  -1.408  -3.850  0.00  0.00    +0.000 A 
ATOM     11  C   UNL     1      -1.785  -2.307  -3.997  0.00  0.00    +0.000 A 
ENDROOT
BRANCH   3  12
ATOM     12  C   UNL     1      -5.077  -5.717  -0.405  0.00  0.00    +0.000 C 
ATOM     13  C   UNL     1      -5.137  -5.560   0.998  0.00  0.00    +0.000 C 
ATOM     14  C   UNL     1      -5.685  -6.627   1.895  0.00  0.00    +0.000 C 
ATOM     15  C   UNL     1      -6.230  -7.850   1.386  0.00  0.00    +0.000 C 
ATOM     16  O   UNL     1      -6.744  -8.684   2.112  0.00  0.00    +0.000 OA
ATOM     17  N   UNL     1      -6.158  -7.939  -0.003  0.00  0.00    +0.000 N 
ATOM     18  C   UNL     1      -5.808  -6.948  -0.931  0.00  0.00    +0.000 C 
ATOM     19  H   UNL     1      -6.656  -8.724  -0.396  0.00  0.00    +0.000 HD
ATOM     20  O   UNL     1      -6.204  -7.028  -2.090  0.00  0.00    +0.000 OA
ENDBRANCH   3  12
TORSDOF 1
ENDMDL
MODEL 2
REMARK VINA RESULT:      -5.6     16.905     19.515
REMARK  Name = Thalidomide.pdbqt.pdb
REMARK  1 active torsions:
REMARK  status: ('A' for Active; 'I' for Inactive)
REMARK    1  A    between atoms: N_3  and  C_12
REMARK                            x       y       z     vdW  Elec       q    Type
REMARK                         _______ _______ _______ _____ _____    ______ ____
ROOT
ATOM      1  O   UNL     1     -12.212 -16.630  13.663  0.00  0.00    +0.000 OA
ATOM      2  O   UNL     1     -13.829 -15.037   9.661  0.00  0.00    +0.000 OA
ATOM      3  N   UNL     1     -12.716 -16.157  11.410  0.00  0.00    +0.000 N 
ATOM      4  C   UNL     1     -12.921 -16.203  12.770  0.00  0.00    +0.000 C 
ATOM      5  C   UNL     1     -13.749 -15.492  10.786  0.00  0.00    +0.000 C 
ATOM      6  C   UNL     1     -14.241 -15.634  13.019  0.00  0.00    +0.000 A 
ATOM      7  C   UNL     1     -14.753 -15.220  11.808  0.00  0.00    +0.000 A 
ATOM      8  C   UNL     1     -14.930 -15.473  14.203  0.00  0.00    +0.000 A 
ATOM      9  C   UNL     1     -15.981 -14.602  11.701  0.00  0.00    +0.000 A 
ATOM     10  C   UNL     1     -16.183 -14.864  14.120  0.00  0.00    +0.000 A 
ATOM     11  C   UNL     1     -16.702 -14.434  12.886  0.00  0.00    +0.000 A 
ENDROOT
BRANCH   3  12
ATOM     12  C   UNL     1     -11.580 -16.596  10.775  0.00  0.00    +0.000 C 
ATOM     13  C   UNL     1     -10.493 -15.749  10.462  0.00  0.00    +0.000 C 
ATOM     14  C   UNL     1      -9.340 -16.210   9.625  0.00  0.00    +0.000 C 
ATOM     15  C   UNL     1      -9.241 -17.552   9.132  0.00  0.00    +0.000 C 
ATOM     16  O   UNL     1      -8.265 -17.946   8.515  0.00  0.00    +0.000 OA
ATOM     17  N   UNL     1     -10.332 -18.342   9.486  0.00  0.00    +0.000 N 
ATOM     18  C   UNL     1     -11.373 -18.055  10.380  0.00  0.00    +0.000 C 
ATOM     19  H   UNL     1     -10.224 -19.322   9.270  0.00  0.00    +0.000 HD
ATOM     20  O   UNL     1     -11.993 -18.971  10.913  0.00  0.00    +0.000 OA
ENDBRANCH   3  12
TORSDOF 1
ENDMDL
MODEL 3
REMARK VINA RESULT:      -5.2     23.118     25.497
REMARK  Name = Thalidomide.pdbqt.pdb
REMARK  1 active torsions:
REMARK  status: ('A' for Active; 'I' for Inactive)
REMARK    1  A    between atoms: N_3  and  C_12
REMARK                            x       y       z     vdW  Elec       q    Type
REMARK                         _______ _______ _______ _____ _____    ______ ____
ROOT
ATOM      1  O   UNL     1     -22.297  -4.715  18.110  0.00  0.00    +0.000 OA
ATOM      2  O   UNL     1     -17.807  -5.705  17.932  0.00  0.00    +0.000 OA
ATOM      3  N   UNL     1     -20.015  -5.132  18.525  0.00  0.00    +0.000 N 
ATOM      4  C   UNL     1     -21.212  -5.201  17.849  0.00  0.00    +0.000 C 
ATOM      5  C   UNL     1     -19.016  -5.754  17.807  0.00  0.00    +0.000 C 
ATOM      6  C   UNL     1     -20.987  -6.035  16.673  0.00  0.00    +0.000 A 
ATOM      7  C   UNL     1     -19.654  -6.388  16.659  0.00  0.00    +0.000 A 
ATOM      8  C   UNL     1     -21.864  -6.435  15.687  0.00  0.00    +0.000 A 
ATOM      9  C   UNL     1     -19.106  -7.152  15.650  0.00  0.00    +0.000 A 
ATOM     10  C   UNL     1     -21.337  -7.223  14.663  0.00  0.00    +0.000 A 
ATOM     11  C   UNL     1     -19.977  -7.577  14.643  0.00  0.00    +0.000 A 
ENDROOT
BRANCH   3  12
ATOM     12  C   UNL     1     -19.812  -4.430  19.687  0.00  0.00    +0.000 C 
ATOM     13  C   UNL     1     -19.616  -5.051  20.941  0.00  0.00    +0.000 C 
ATOM     14  C   UNL     1     -19.563  -4.269  22.217  0.00  0.00    +0.000 C 
ATOM     15  C   UNL     1     -19.656  -2.840  22.243  0.00  0.00    +0.000 C 
ATOM     16  O   UNL     1     -19.537  -2.200  23.274  0.00  0.00    +0.000 OA
ATOM     17  N   UNL     1     -19.832  -2.285  20.978  0.00  0.00    +0.000 N 
ATOM     18  C   UNL     1     -19.745  -2.907  19.724  0.00  0.00    +0.000 C 
ATOM     19  H   UNL     1     -19.765  -1.278  20.951  0.00  0.00    +0.000 HD
ATOM     20  O   UNL     1     -19.489  -2.239  18.726  0.00  0.00    +0.000 OA
ENDBRANCH   3  12
TORSDOF 1
ENDMDL
MODEL 4
REMARK VINA RESULT:      -5.2     21.649     24.177
REMARK  Name = Thalidomide.pdbqt.pdb
REMARK  1 active torsions:
REMARK  status: ('A' for Active; 'I' for Inactive)
REMARK    1  A    between atoms: N_3  and  C_12
REMARK                            x       y       z     vdW  Elec       q    Type
REMARK                         _______ _______ _______ _____ _____    ______ ____
ROOT
ATOM      1  O   UNL     1      -4.326 -19.478  18.765  0.00  0.00    +0.000 OA
ATOM      2  O   UNL     1      -7.155 -15.872  19.167  0.00  0.00    +0.000 OA
ATOM      3  N   UNL     1      -5.383 -17.372  18.763  0.00  0.00    +0.000 N 
ATOM      4  C   UNL     1      -5.298 -18.745  18.783  0.00  0.00    +0.000 C 
ATOM      5  C   UNL     1      -6.692 -16.965  18.900  0.00  0.00    +0.000 C 
ATOM      6  C   UNL     1      -6.665 -19.253  18.811  0.00  0.00    +0.000 A 
ATOM      7  C   UNL     1      -7.514 -18.168  18.862  0.00  0.00    +0.000 A 
ATOM      8  C   UNL     1      -7.130 -20.552  18.813  0.00  0.00    +0.000 A 
ATOM      9  C   UNL     1      -8.884 -18.309  18.934  0.00  0.00    +0.000 A 
ATOM     10  C   UNL     1      -8.515 -20.721  18.869  0.00  0.00    +0.000 A 
ATOM     11  C   UNL     1      -9.381 -19.615  18.929  0.00  0.00    +0.000 A 
ENDROOT
BRANCH   3  12
ATOM     12  C   UNL     1      -4.305 -16.522  18.741  0.00  0.00    +0.000 C 
ATOM     13  C   UNL     1      -3.373 -16.427  19.799  0.00  0.00    +0.000 C 
ATOM     14  C   UNL     1      -2.303 -15.379  19.827  0.00  0.00    +0.000 C 
ATOM     15  C   UNL     1      -2.124 -14.441  18.759  0.00  0.00    +0.000 C 
ATOM     16  O   UNL     1      -1.206 -13.637  18.748  0.00  0.00    +0.000 OA
ATOM     17  N   UNL     1      -3.061 -14.593  17.739  0.00  0.00    +0.000 N 
ATOM     18  C   UNL     1      -3.993 -15.623  17.548  0.00  0.00    +0.000 C 
ATOM     19  H   UNL     1      -2.876 -14.039  16.917  0.00  0.00    +0.000 HD
ATOM     20  O   UNL     1      -4.427 -15.856  16.423  0.00  0.00    +0.000 OA
ENDBRANCH   3  12
TORSDOF 1
ENDMDL
MODEL 5
REMARK VINA RESULT:      -5.1     16.984     19.238
REMARK  Name = Thalidomide.pdbqt.pdb
REMARK  1 active torsions:
REMARK  status: ('A' for Active; 'I' for Inactive)
REMARK    1  A    between atoms: N_3  and  C_12
REMARK                            x       y       z     vdW  Elec       q    Type
REMARK                         _______ _______ _______ _____ _____    ______ ____
ROOT
ATOM      1  O   UNL     1     -14.703 -14.751   8.553  0.00  0.00    +0.000 OA
ATOM      2  O   UNL     1     -13.428 -15.540  12.902  0.00  0.00    +0.000 OA
ATOM      3  N   UNL     1     -14.555 -15.210  10.859  0.00  0.00    +0.000 N 
ATOM      4  C   UNL     1     -14.121 -15.118   9.556  0.00  0.00    +0.000 C 
ATOM      5  C   UNL     1     -13.520 -15.582  11.690  0.00  0.00    +0.000 C 
ATOM      6  C   UNL     1     -12.739 -15.585   9.537  0.00  0.00    +0.000 A 
ATOM      7  C   UNL     1     -12.380 -15.887  10.834  0.00  0.00    +0.000 A 
ATOM      8  C   UNL     1     -11.861 -15.718   8.481  0.00  0.00    +0.000 A 
ATOM      9  C   UNL     1     -11.116 -16.326  11.163  0.00  0.00    +0.000 A 
ATOM     10  C   UNL     1     -10.579 -16.176   8.787  0.00  0.00    +0.000 A 
ATOM     11  C   UNL     1     -10.210 -16.476  10.110  0.00  0.00    +0.000 A 
ENDROOT
BRANCH   3  12
ATOM     12  C   UNL     1     -15.808 -14.854  11.293  0.00  0.00    +0.000 C 
ATOM     13  C   UNL     1     -16.288 -13.526  11.265  0.00  0.00    +0.000 C 
ATOM     14  C   UNL     1     -17.590 -13.136  11.895  0.00  0.00    +0.000 C 
ATOM     15  C   UNL     1     -18.455 -14.093  12.518  0.00  0.00    +0.000 C 
ATOM     16  O   UNL     1     -19.549 -13.787  12.962  0.00  0.00    +0.000 OA
ATOM     17  N   UNL     1     -17.937 -15.386  12.500  0.00  0.00    +0.000 N 
ATOM     18  C   UNL     1     -16.816 -15.875  11.814  0.00  0.00    +0.000 C 
ATOM     19  H   UNL     1     -18.582 -16.098  12.808  0.00  0.00    +0.000 HD
ATOM     20  O   UNL     1     -16.738 -17.069  11.539  0.00  0.00    +0.000 OA
ENDBRANCH   3  12
TORSDOF 1
ENDMDL
MODEL 6
REMARK VINA RESULT:      -5.0      1.720      2.224
REMARK  Name = Thalidomide.pdbqt.pdb
REMARK  1 active torsions:
REMARK  status: ('A' for Active; 'I' for Inactive)
REMARK    1  A    between atoms: N_3  and  C_12
REMARK                            x       y       z     vdW  Elec       q    Type
REMARK                         _______ _______ _______ _____ _____    ______ ____
ROOT
ATOM      1  O   UNL     1      -6.102  -4.565  -3.562  0.00  0.00    +0.000 OA
ATOM      2  O   UNL     1      -2.331  -3.212  -1.298  0.00  0.00    +0.000 OA
ATOM      3  N   UNL     1      -4.197  -4.341  -2.193  0.00  0.00    +0.000 N 
ATOM      4  C   UNL     1      -5.034  -4.069  -3.251  0.00  0.00    +0.000 C 
ATOM      5  C   UNL     1      -3.136  -3.460  -2.176  0.00  0.00    +0.000 C 
ATOM      6  C   UNL     1      -4.397  -3.018  -4.036  0.00  0.00    +0.000 A 
ATOM      7  C   UNL     1      -3.231  -2.662  -3.392  0.00  0.00    +0.000 A 
ATOM      8  C   UNL     1      -4.809  -2.409  -5.203  0.00  0.00    +0.000 A 
ATOM      9  C   UNL     1      -2.407  -1.662  -3.863  0.00  0.00    +0.000 A 
ATOM     10  C   UNL     1      -3.982  -1.404  -5.710  0.00  0.00    +0.000 A 
ATOM     11  C   UNL     1      -2.797  -1.035  -5.049  0.00  0.00    +0.000 A 
ENDROOT
BRANCH   3  12
ATOM     12  C   UNL     1      -4.447  -5.272  -1.216  0.00  0.00    +0.000 C 
ATOM     13  C   UNL     1      -4.045  -6.623  -1.314  0.00  0.00    +0.000 C 
ATOM     14  C   UNL     1      -4.472  -7.655  -0.316  0.00  0.00    +0.000 C 
ATOM     15  C   UNL     1      -5.271  -7.329   0.827  0.00  0.00    +0.000 C 
ATOM     16  O   UNL     1      -5.554  -8.156   1.678  0.00  0.00    +0.000 OA
ATOM     17  N   UNL     1      -5.623  -5.983   0.878  0.00  0.00    +0.000 N 
ATOM     18  C   UNL     1      -5.156  -4.921   0.088  0.00  0.00    +0.000 C 
ATOM     19  H   UNL     1      -6.068  -5.700   1.738  0.00  0.00    +0.000 HD
ATOM     20  O   UNL     1      -5.208  -3.772   0.516  0.00  0.00    +0.000 OA
ENDBRANCH   3  12
TORSDOF 1
ENDMDL
MODEL 7
REMARK VINA RESULT:      -4.9     17.347     19.028
REMARK  Name = Thalidomide.pdbqt.pdb
REMARK  1 active torsions:
REMARK  status: ('A' for Active; 'I' for Inactive)
REMARK    1  A    between atoms: N_3  and  C_12
REMARK                            x       y       z     vdW  Elec       q    Type
REMARK                         _______ _______ _______ _____ _____    ______ ____
ROOT
ATOM      1  O   UNL     1     -13.204 -18.886  11.215  0.00  0.00    +0.000 OA
ATOM      2  O   UNL     1     -11.032 -15.349   9.231  0.00  0.00    +0.000 OA
ATOM      3  N   UNL     1     -12.413 -16.791  10.483  0.00  0.00    +0.000 N 
ATOM      4  C   UNL     1     -12.369 -18.144  10.731  0.00  0.00    +0.000 C 
ATOM      5  C   UNL     1     -11.272 -16.382   9.827  0.00  0.00    +0.000 C 
ATOM      6  C   UNL     1     -11.052 -18.609  10.313  0.00  0.00    +0.000 A 
ATOM      7  C   UNL     1     -10.376 -17.531   9.781  0.00  0.00    +0.000 A 
ATOM      8  C   UNL     1     -10.495 -19.870  10.372  0.00  0.00    +0.000 A 
ATOM      9  C   UNL     1      -9.105 -17.645   9.259  0.00  0.00    +0.000 A 
ATOM     10  C   UNL     1      -9.202 -20.008   9.864  0.00  0.00    +0.000 A 
ATOM     11  C   UNL     1      -8.516 -18.910   9.314  0.00  0.00    +0.000 A 
ENDROOT
BRANCH   3  12
ATOM     12  C   UNL     1     -13.494 -15.984  10.735  0.00  0.00    +0.000 C 
ATOM     13  C   UNL     1     -14.425 -15.606   9.742  0.00  0.00    +0.000 C 
ATOM     14  C   UNL     1     -15.499 -14.595  10.000  0.00  0.00    +0.000 C 
ATOM     15  C   UNL     1     -15.683 -13.986  11.283  0.00  0.00    +0.000 C 
ATOM     16  O   UNL     1     -16.605 -13.220  11.512  0.00  0.00    +0.000 OA
ATOM     17  N   UNL     1     -14.747 -14.409  12.224  0.00  0.00    +0.000 N 
ATOM     18  C   UNL     1     -13.810 -15.448  12.128  0.00  0.00    +0.000 C 
ATOM     19  H   UNL     1     -14.936 -14.101  13.167  0.00  0.00    +0.000 HD
ATOM     20  O   UNL     1     -13.377 -15.978  13.147  0.00  0.00    +0.000 OA
ENDBRANCH   3  12
TORSDOF 1
ENDMDL
MODEL 8
REMARK VINA RESULT:      -4.9     16.724     19.522
REMARK  Name = Thalidomide.pdbqt.pdb
REMARK  1 active torsions:
REMARK  status: ('A' for Active; 'I' for Inactive)
REMARK    1  A    between atoms: N_3  and  C_12
REMARK                            x       y       z     vdW  Elec       q    Type
REMARK                         _______ _______ _______ _____ _____    ______ ____
ROOT
ATOM      1  O   UNL     1     -14.609 -15.206   9.711  0.00  0.00    +0.000 OA
ATOM      2  O   UNL     1     -11.687 -16.519  13.014  0.00  0.00    +0.000 OA
ATOM      3  N   UNL     1     -13.537 -16.062  11.627  0.00  0.00    +0.000 N 
ATOM      4  C   UNL     1     -13.645 -15.619  10.328  0.00  0.00    +0.000 C 
ATOM      5  C   UNL     1     -12.224 -16.343  11.936  0.00  0.00    +0.000 C 
ATOM      6  C   UNL     1     -12.321 -15.745   9.727  0.00  0.00    +0.000 A 
ATOM      7  C   UNL     1     -11.461 -16.205  10.702  0.00  0.00    +0.000 A 
ATOM      8  C   UNL     1     -11.898 -15.462   8.445  0.00  0.00    +0.000 A 
ATOM      9  C   UNL     1     -10.116 -16.398  10.463  0.00  0.00    +0.000 A 
ATOM     10  C   UNL     1     -10.543 -15.666   8.174  0.00  0.00    +0.000 A 
ATOM     11  C   UNL     1      -9.664 -16.127   9.170  0.00  0.00    +0.000 A 
ENDROOT
BRANCH   3  12
ATOM     12  C   UNL     1     -14.570 -16.095  12.530  0.00  0.00    +0.000 C 
ATOM     13  C   UNL     1     -14.877 -15.021  13.395  0.00  0.00    +0.000 C 
ATOM     14  C   UNL     1     -15.899 -15.140  14.483  0.00  0.00    +0.000 C 
ATOM     15  C   UNL     1     -16.667 -16.333  14.682  0.00  0.00    +0.000 C 
ATOM     16  O   UNL     1     -17.552 -16.403  15.520  0.00  0.00    +0.000 OA
ATOM     17  N   UNL     1     -16.332 -17.350  13.791  0.00  0.00    +0.000 N 
ATOM     18  C   UNL     1     -15.510 -17.290  12.657  0.00  0.00    +0.000 C 
ATOM     19  H   UNL     1     -16.948 -18.149  13.820  0.00  0.00    +0.000 HD
ATOM     20  O   UNL     1     -15.655 -18.107  11.752  0.00  0.00    +0.000 OA
ENDBRANCH   3  12
TORSDOF 1
ENDMDL
MODEL 9
REMARK VINA RESULT:      -4.9      6.932      9.178
REMARK  Name = Thalidomide.pdbqt.pdb
REMARK  1 active torsions:
REMARK  status: ('A' for Active; 'I' for Inactive)
REMARK    1  A    between atoms: N_3  and  C_12
REMARK                            x       y       z     vdW  Elec       q    Type
REMARK                         _______ _______ _______ _____ _____    ______ ____
ROOT
ATOM      1  O   UNL     1      -9.335 -13.392   0.297  0.00  0.00    +0.000 OA
ATOM      2  O   UNL     1      -6.416 -10.520   2.395  0.00  0.00    +0.000 OA
ATOM      3  N   UNL     1      -7.534 -12.333   1.387  0.00  0.00    +0.000 N 
ATOM      4  C   UNL     1      -8.682 -12.421   0.632  0.00  0.00    +0.000 C 
ATOM      5  C   UNL     1      -7.195 -11.015   1.602  0.00  0.00    +0.000 C 
ATOM      6  C   UNL     1      -9.032 -11.063   0.234  0.00  0.00    +0.000 A 
ATOM      7  C   UNL     1      -8.114 -10.208   0.808  0.00  0.00    +0.000 A 
ATOM      8  C   UNL     1     -10.074 -10.606  -0.546  0.00  0.00    +0.000 A 
ATOM      9  C   UNL     1      -8.186  -8.840   0.653  0.00  0.00    +0.000 A 
ATOM     10  C   UNL     1     -10.159  -9.225  -0.731  0.00  0.00    +0.000 A 
ATOM     11  C   UNL     1      -9.228  -8.353  -0.140  0.00  0.00    +0.000 A 
ENDROOT
BRANCH   3  12
ATOM     12  C   UNL     1      -6.888 -13.403   1.956  0.00  0.00    +0.000 C 
ATOM     13  C   UNL     1      -5.707 -13.967   1.422  0.00  0.00    +0.000 C 
ATOM     14  C   UNL     1      -5.114 -15.232   1.962  0.00  0.00    +0.000 C 
ATOM     15  C   UNL     1      -5.676 -15.921   3.086  0.00  0.00    +0.000 C 
ATOM     16  O   UNL     1      -5.149 -16.908   3.572  0.00  0.00    +0.000 OA
ATOM     17  N   UNL     1      -6.827 -15.310   3.578  0.00  0.00    +0.000 N 
ATOM     18  C   UNL     1      -7.370 -14.060   3.245  0.00  0.00    +0.000 C 
ATOM     19  H   UNL     1      -7.164 -15.694   4.448  0.00  0.00    +0.000 HD
ATOM     20  O   UNL     1      -8.101 -13.479   4.042  0.00  0.00    +0.000 OA
ENDBRANCH   3  12
TORSDOF 1
ENDMDL
