MODEL 1
REMARK VINA RESULT:      -5.5      0.000      0.000
REMARK  Name = Thapsigargin.pdbqt.pdb
REMARK  10 active torsions:
REMARK  status: ('A' for Active; 'I' for Inactive)
REMARK    1  A    between atoms: O_2  and  C_24
REMARK    2  A    between atoms: C_17  and  O_43
REMARK    3  A    between atoms: C_19  and  C_24
REMARK    4  A    between atoms: C_19  and  O_47
REMARK    5  A    between atoms: C_27  and  C_35
REMARK    6  A    between atoms: C_35  and  C_36
REMARK    7  A    between atoms: C_37  and  C_38
REMARK    8  A    between atoms: C_39  and  C_40
REMARK    9  A    between atoms: C_42  and  O_43
REMARK   10  A    between atoms: C_42  and  C_44
REMARK                            x       y       z     vdW  Elec       q    Type
REMARK                         _______ _______ _______ _____ _____    ______ ____
ROOT
ATOM      1  O   UNL     1      -7.360   8.842   8.341  0.00  0.00    +0.000 OA
ATOM      2  O   UNL     1      -7.283  10.189   2.435  0.00  0.00    +0.000 OA
ATOM      3  O   UNL     1      -4.800  10.113   3.045  0.00  0.00    +0.000 OA
ATOM      4  O   UNL     1      -6.417  13.117   5.452  0.00  0.00    +0.000 OA
ATOM      5  O   UNL     1      -7.470   7.333  10.054  0.00  0.00    +0.000 OA
ATOM      6  O   UNL     1      -5.305   8.772   2.701  0.00  0.00    +0.000 OA
ATOM      7  O   UNL     1      -3.835  12.045   1.892  0.00  0.00    +0.000 OA
ATOM      8  O   UNL     1      -5.281  12.527   7.588  0.00  0.00    +0.000 OA
ATOM      9  C   UNL     1      -8.275  10.185   4.773  0.00  0.00    +0.000 C 
ATOM     10  C   UNL     1      -8.388   7.568   6.693  0.00  0.00    +0.000 C 
ATOM     11  C   UNL     1      -7.832   8.843   7.035  0.00  0.00    +0.000 C 
ATOM     12  C   UNL     1      -8.970   9.164   3.938  0.00  0.00    +0.000 C 
ATOM     13  C   UNL     1      -7.801   9.929   6.233  0.00  0.00    +0.000 C 
ATOM     14  C   UNL     1      -8.983   7.454   5.551  0.00  0.00    +0.000 C 
ATOM     15  C   UNL     1      -9.418   7.948   4.303  0.00  0.00    +0.000 C 
ATOM     16  C   UNL     1      -8.199  11.621   4.622  0.00  0.00    +0.000 C 
ATOM     17  C   UNL     1      -8.259   6.652   7.841  0.00  0.00    +0.000 C 
ATOM     18  C   UNL     1      -7.405  12.149   5.660  0.00  0.00    +0.000 C 
ATOM     19  C   UNL     1      -7.287  11.238   6.650  0.00  0.00    +0.000 C 
ATOM     20  C   UNL     1      -7.558   9.492   3.666  0.00  0.00    +0.000 C 
ATOM     21  C   UNL     1      -7.652   7.607   8.871  0.00  0.00    +0.000 C 
ATOM     22  C   UNL     1      -6.247  11.619   7.507  0.00  0.00    +0.000 C 
ATOM     23  C   UNL     1      -6.750   8.864   2.560  0.00  0.00    +0.000 C 
ATOM     24  C   UNL     1      -4.244  10.717   1.913  0.00  0.00    +0.000 C 
ATOM     25  C   UNL     1      -5.218  13.019   6.250  0.00  0.00    +0.000 C 
ATOM     26  C   UNL     1      -7.338   7.880   1.540  0.00  0.00    +0.000 C 
ATOM     27  C   UNL     1      -4.017  13.143   5.646  0.00  0.00    +0.000 C 
ATOM     28  C   UNL     1      -2.722  13.006   6.416  0.00  0.00    +0.000 C 
ATOM     29  C   UNL     1      -3.912  13.006   4.233  0.00  0.00    +0.000 C 
ATOM     30  C   UNL     1      -3.867  12.604   3.101  0.00  0.00    +0.000 C 
ENDROOT
BRANCH  17  31
ATOM     31  O   UNL     1      -9.525   6.148   8.230  0.00  0.00    +0.000 OA
ATOM     32  H   UNL     1     -10.175   6.803   7.913  0.00  0.00    +0.000 HD
ENDBRANCH  17  31
BRANCH  17  33
ATOM     33  C   UNL     1      -7.356   5.532   7.516  0.00  0.00    +0.000 C 
BRANCH  33  34
ATOM     34  O   UNL     1      -6.545   4.511   7.245  0.00  0.00    +0.000 OA
ATOM     35  H   UNL     1      -5.655   4.662   7.614  0.00  0.00    +0.000 HD
ENDBRANCH  33  34
ENDBRANCH  17  33
BRANCH  24  36
ATOM     36  C   UNL     1      -4.249  10.125   0.756  0.00  0.00    +0.000 C 
BRANCH  36  37
ATOM     37  C   UNL     1      -4.304   9.417  -0.601  0.00  0.00    +0.000 C 
ATOM     38  C   UNL     1      -4.383   8.856  -1.659  0.00  0.00    +0.000 C 
BRANCH  38  39
ATOM     39  C   UNL     1      -4.511   8.138  -3.007  0.00  0.00    +0.000 C 
ATOM     40  C   UNL     1      -4.622   7.585  -4.066  0.00  0.00    +0.000 C 
BRANCH  40  41
ATOM     41  C   UNL     1      -4.769   6.885  -5.421  0.00  0.00    +0.000 C 
ATOM     42  C   UNL     1      -4.894   6.277  -6.600  0.00  0.00    +0.000 C 
ENDBRANCH  40  41
ENDBRANCH  38  39
ENDBRANCH  36  37
ENDBRANCH  24  36
BRANCH  15  43
ATOM     43  O   UNL     1     -10.480   7.344   3.622  0.00  0.00    +0.000 OA
BRANCH  43  45
ATOM     44  O   UNL     1     -11.309   5.383   4.569  0.00  0.00    +0.000 OA
ATOM     45  C   UNL     1     -10.567   5.991   3.810  0.00  0.00    +0.000 C 
BRANCH  45  46
ATOM     46  C   UNL     1      -9.639   5.282   2.983  0.00  0.00    +0.000 C 
ATOM     47  C   UNL     1      -8.858   4.694   2.293  0.00  0.00    +0.000 C 
ATOM     48  C   UNL     1      -7.872   3.933   1.404  0.00  0.00    +0.000 C 
ENDBRANCH  45  46
ENDBRANCH  43  45
ENDBRANCH  15  43
TORSDOF 10
ENDMDL
MODEL 2
REMARK VINA RESULT:      -5.4      1.421      2.075
REMARK  Name = Thapsigargin.pdbqt.pdb
REMARK  10 active torsions:
REMARK  status: ('A' for Active; 'I' for Inactive)
REMARK    1  A    between atoms: O_2  and  C_24
REMARK    2  A    between atoms: C_17  and  O_43
REMARK    3  A    between atoms: C_19  and  C_24
REMARK    4  A    between atoms: C_19  and  O_47
REMARK    5  A    between atoms: C_27  and  C_35
REMARK    6  A    between atoms: C_35  and  C_36
REMARK    7  A    between atoms: C_37  and  C_38
REMARK    8  A    between atoms: C_39  and  C_40
REMARK    9  A    between atoms: C_42  and  O_43
REMARK   10  A    between atoms: C_42  and  C_44
REMARK                            x       y       z     vdW  Elec       q    Type
REMARK                         _______ _______ _______ _____ _____    ______ ____
ROOT
ATOM      1  O   UNL     1      -7.880   8.458   8.124  0.00  0.00    +0.000 OA
ATOM      2  O   UNL     1      -8.034   8.990   2.092  0.00  0.00    +0.000 OA
ATOM      3  O   UNL     1      -5.659   9.738   2.680  0.00  0.00    +0.000 OA
ATOM      4  O   UNL     1      -8.166  12.408   4.685  0.00  0.00    +0.000 OA
ATOM      5  O   UNL     1      -7.587   7.220  10.023  0.00  0.00    +0.000 OA
ATOM      6  O   UNL     1      -5.733   8.275   2.521  0.00  0.00    +0.000 OA
ATOM      7  O   UNL     1      -5.279  11.704   1.271  0.00  0.00    +0.000 OA
ATOM      8  O   UNL     1      -6.969  12.466   6.868  0.00  0.00    +0.000 OA
ATOM      9  C   UNL     1      -9.048   8.993   4.420  0.00  0.00    +0.000 C 
ATOM     10  C   UNL     1      -8.434   6.733   6.671  0.00  0.00    +0.000 C 
ATOM     11  C   UNL     1      -8.293   8.148   6.835  0.00  0.00    +0.000 C 
ATOM     12  C   UNL     1      -9.382   7.712   3.734  0.00  0.00    +0.000 C 
ATOM     13  C   UNL     1      -8.562   9.081   5.896  0.00  0.00    +0.000 C 
ATOM     14  C   UNL     1      -8.934   6.300   5.560  0.00  0.00    +0.000 C 
ATOM     15  C   UNL     1      -9.460   6.476   4.262  0.00  0.00    +0.000 C 
ATOM     16  C   UNL     1      -9.397  10.353   4.080  0.00  0.00    +0.000 C 
ATOM     17  C   UNL     1      -8.072   6.054   7.928  0.00  0.00    +0.000 C 
ATOM     18  C   UNL     1      -8.827  11.224   5.030  0.00  0.00    +0.000 C 
ATOM     19  C   UNL     1      -8.473  10.527   6.131  0.00  0.00    +0.000 C 
ATOM     20  C   UNL     1      -8.125   8.408   3.406  0.00  0.00    +0.000 C 
ATOM     21  C   UNL     1      -7.807   7.272   8.817  0.00  0.00    +0.000 C 
ATOM     22  C   UNL     1      -7.619  11.308   6.919  0.00  0.00    +0.000 C 
ATOM     23  C   UNL     1      -7.134   7.913   2.385  0.00  0.00    +0.000 C 
ATOM     24  C   UNL     1      -5.275  10.330   1.472  0.00  0.00    +0.000 C 
ATOM     25  C   UNL     1      -7.016  12.776   5.477  0.00  0.00    +0.000 C 
ATOM     26  C   UNL     1      -7.373   6.675   1.511  0.00  0.00    +0.000 C 
ATOM     27  C   UNL     1      -5.889  13.174   4.849  0.00  0.00    +0.000 C 
ATOM     28  C   UNL     1      -4.636  13.531   5.616  0.00  0.00    +0.000 C 
ATOM     29  C   UNL     1      -5.706  12.893   3.465  0.00  0.00    +0.000 C 
ATOM     30  C   UNL     1      -5.511  12.380   2.396  0.00  0.00    +0.000 C 
ENDROOT
BRANCH  17  31
ATOM     31  O   UNL     1      -9.142   5.250   8.394  0.00  0.00    +0.000 OA
ATOM     32  H   UNL     1      -9.756   5.169   7.640  0.00  0.00    +0.000 HD
ENDBRANCH  17  31
BRANCH  17  33
ATOM     33  C   UNL     1      -6.868   5.222   7.744  0.00  0.00    +0.000 C 
BRANCH  33  34
ATOM     34  O   UNL     1      -5.767   4.491   7.582  0.00  0.00    +0.000 OA
ATOM     35  H   UNL     1      -5.106   4.966   7.043  0.00  0.00    +0.000 HD
ENDBRANCH  33  34
ENDBRANCH  17  33
BRANCH  24  36
ATOM     36  C   UNL     1      -5.069   9.618   0.404  0.00  0.00    +0.000 C 
BRANCH  36  37
ATOM     37  C   UNL     1      -4.787   8.809  -0.866  0.00  0.00    +0.000 C 
ATOM     38  C   UNL     1      -4.533   8.165  -1.847  0.00  0.00    +0.000 C 
BRANCH  38  39
ATOM     39  C   UNL     1      -4.186   7.334  -3.086  0.00  0.00    +0.000 C 
ATOM     40  C   UNL     1      -3.900   6.688  -4.057  0.00  0.00    +0.000 C 
BRANCH  40  41
ATOM     41  C   UNL     1      -3.527   5.864  -5.292  0.00  0.00    +0.000 C 
ATOM     42  C   UNL     1      -3.205   5.145  -6.367  0.00  0.00    +0.000 C 
ENDBRANCH  40  41
ENDBRANCH  38  39
ENDBRANCH  36  37
ENDBRANCH  24  36
BRANCH  15  43
ATOM     43  O   UNL     1     -10.274   5.499   3.678  0.00  0.00    +0.000 OA
BRANCH  43  45
ATOM     44  O   UNL     1     -12.161   5.967   2.397  0.00  0.00    +0.000 OA
ATOM     45  C   UNL     1     -11.563   5.902   3.461  0.00  0.00    +0.000 C 
BRANCH  45  46
ATOM     46  C   UNL     1     -12.210   6.280   4.680  0.00  0.00    +0.000 C 
ATOM     47  C   UNL     1     -12.751   6.591   5.702  0.00  0.00    +0.000 C 
ATOM     48  C   UNL     1     -13.448   7.001   7.001  0.00  0.00    +0.000 C 
ENDBRANCH  45  46
ENDBRANCH  43  45
ENDBRANCH  15  43
TORSDOF 10
ENDMDL
MODEL 3
REMARK VINA RESULT:      -5.4     24.505     27.802
REMARK  Name = Thapsigargin.pdbqt.pdb
REMARK  10 active torsions:
REMARK  status: ('A' for Active; 'I' for Inactive)
REMARK    1  A    between atoms: O_2  and  C_24
REMARK    2  A    between atoms: C_17  and  O_43
REMARK    3  A    between atoms: C_19  and  C_24
REMARK    4  A    between atoms: C_19  and  O_47
REMARK    5  A    between atoms: C_27  and  C_35
REMARK    6  A    between atoms: C_35  and  C_36
REMARK    7  A    between atoms: C_37  and  C_38
REMARK    8  A    between atoms: C_39  and  C_40
REMARK    9  A    between atoms: C_42  and  O_43
REMARK   10  A    between atoms: C_42  and  C_44
REMARK                            x       y       z     vdW  Elec       q    Type
REMARK                         _______ _______ _______ _____ _____    ______ ____
ROOT
ATOM      1  O   UNL     1       3.449 -10.970  16.485  0.00  0.00    +0.000 OA
ATOM      2  O   UNL     1       5.538 -14.001  11.674  0.00  0.00    +0.000 OA
ATOM      3  O   UNL     1       7.675 -13.332  12.912  0.00  0.00    +0.000 OA
ATOM      4  O   UNL     1       5.796  -9.726  11.963  0.00  0.00    +0.000 OA
ATOM      5  O   UNL     1       2.614 -10.910  18.613  0.00  0.00    +0.000 OA
ATOM      6  O   UNL     1       7.131 -14.598  13.434  0.00  0.00    +0.000 OA
ATOM      7  O   UNL     1       9.195 -12.599  11.138  0.00  0.00    +0.000 OA
ATOM      8  O   UNL     1       6.122  -8.559  14.139  0.00  0.00    +0.000 OA
ATOM      9  C   UNL     1       3.875 -12.538  12.918  0.00  0.00    +0.000 C 
ATOM     10  C   UNL     1       2.828 -13.139  15.933  0.00  0.00    +0.000 C 
ATOM     11  C   UNL     1       3.411 -11.916  15.470  0.00  0.00    +0.000 C 
ATOM     12  C   UNL     1       3.349 -13.931  12.838  0.00  0.00    +0.000 C 
ATOM     13  C   UNL     1       3.833 -11.672  14.210  0.00  0.00    +0.000 C 
ATOM     14  C   UNL     1       2.609 -14.072  15.065  0.00  0.00    +0.000 C 
ATOM     15  C   UNL     1       2.654 -14.617  13.764  0.00  0.00    +0.000 C 
ATOM     16  C   UNL     1       4.182 -11.594  11.868  0.00  0.00    +0.000 C 
ATOM     17  C   UNL     1       2.472 -13.005  17.358  0.00  0.00    +0.000 C 
ATOM     18  C   UNL     1       4.675 -10.408  12.448  0.00  0.00    +0.000 C 
ATOM     19  C   UNL     1       4.358 -10.378  13.760  0.00  0.00    +0.000 C 
ATOM     20  C   UNL     1       4.805 -13.703  12.878  0.00  0.00    +0.000 C 
ATOM     21  C   UNL     1       2.847 -11.539  17.584  0.00  0.00    +0.000 C 
ATOM     22  C   UNL     1       5.119  -9.390  14.398  0.00  0.00    +0.000 C 
ATOM     23  C   UNL     1       5.828 -14.807  12.825  0.00  0.00    +0.000 C 
ATOM     24  C   UNL     1       8.631 -13.595  11.924  0.00  0.00    +0.000 C 
ATOM     25  C   UNL     1       6.663  -9.105  12.937  0.00  0.00    +0.000 C 
ATOM     26  C   UNL     1       5.463 -16.285  12.630  0.00  0.00    +0.000 C 
ATOM     27  C   UNL     1       7.997  -9.276  12.829  0.00  0.00    +0.000 C 
ATOM     28  C   UNL     1       8.958  -8.690  13.839  0.00  0.00    +0.000 C 
ATOM     29  C   UNL     1       8.519 -10.322  12.016  0.00  0.00    +0.000 C 
ATOM     30  C   UNL     1       8.862 -11.377  11.552  0.00  0.00    +0.000 C 
ENDROOT
BRANCH  17  31
ATOM     31  O   UNL     1       1.093 -13.263  17.559  0.00  0.00    +0.000 OA
ATOM     32  H   UNL     1       0.953 -14.182  17.264  0.00  0.00    +0.000 HD
ENDBRANCH  17  31
BRANCH  17  33
ATOM     33  C   UNL     1       3.276 -13.923  18.185  0.00  0.00    +0.000 C 
BRANCH  33  34
ATOM     34  O   UNL     1       4.017 -14.757  18.913  0.00  0.00    +0.000 OA
ATOM     35  H   UNL     1       4.295 -15.530  18.387  0.00  0.00    +0.000 HD
ENDBRANCH  33  34
ENDBRANCH  17  33
BRANCH  24  36
ATOM     36  C   UNL     1       8.909 -14.810  11.557  0.00  0.00    +0.000 C 
BRANCH  36  37
ATOM     37  C   UNL     1       9.237 -16.227  11.075  0.00  0.00    +0.000 C 
ATOM     38  C   UNL     1       9.458 -17.343  10.692  0.00  0.00    +0.000 C 
BRANCH  38  39
ATOM     39  C   UNL     1       9.714 -18.770  10.196  0.00  0.00    +0.000 C 
ATOM     40  C   UNL     1       9.929 -19.884   9.805  0.00  0.00    +0.000 C 
BRANCH  40  41
ATOM     41  C   UNL     1      10.211 -21.304   9.306  0.00  0.00    +0.000 C 
ATOM     42  C   UNL     1      10.458 -22.540   8.873  0.00  0.00    +0.000 C 
ENDBRANCH  40  41
ENDBRANCH  38  39
ENDBRANCH  36  37
ENDBRANCH  24  36
BRANCH  15  43
ATOM     43  O   UNL     1       1.787 -15.650  13.388  0.00  0.00    +0.000 OA
BRANCH  43  45
ATOM     44  O   UNL     1       2.398 -17.236  14.981  0.00  0.00    +0.000 OA
ATOM     45  C   UNL     1       2.167 -16.887  13.832  0.00  0.00    +0.000 C 
BRANCH  45  46
ATOM     46  C   UNL     1       2.289 -17.820  12.753  0.00  0.00    +0.000 C 
ATOM     47  C   UNL     1       2.397 -18.597  11.849  0.00  0.00    +0.000 C 
ATOM     48  C   UNL     1       2.521 -19.595  10.696  0.00  0.00    +0.000 C 
ENDBRANCH  45  46
ENDBRANCH  43  45
ENDBRANCH  15  43
TORSDOF 10
ENDMDL
MODEL 4
REMARK VINA RESULT:      -5.3     12.175     17.453
REMARK  Name = Thapsigargin.pdbqt.pdb
REMARK  10 active torsions:
REMARK  status: ('A' for Active; 'I' for Inactive)
REMARK    1  A    between atoms: O_2  and  C_24
REMARK    2  A    between atoms: C_17  and  O_43
REMARK    3  A    between atoms: C_19  and  C_24
REMARK    4  A    between atoms: C_19  and  O_47
REMARK    5  A    between atoms: C_27  and  C_35
REMARK    6  A    between atoms: C_35  and  C_36
REMARK    7  A    between atoms: C_37  and  C_38
REMARK    8  A    between atoms: C_39  and  C_40
REMARK    9  A    between atoms: C_42  and  O_43
REMARK   10  A    between atoms: C_42  and  C_44
REMARK                            x       y       z     vdW  Elec       q    Type
REMARK                         _______ _______ _______ _____ _____    ______ ____
ROOT
ATOM      1  O   UNL     1     -16.857   4.624  21.252  0.00  0.00    +0.000 OA
ATOM      2  O   UNL     1     -13.246   5.142  16.415  0.00  0.00    +0.000 OA
ATOM      3  O   UNL     1     -14.939   7.030  16.081  0.00  0.00    +0.000 OA
ATOM      4  O   UNL     1     -17.214   3.530  16.135  0.00  0.00    +0.000 OA
ATOM      5  O   UNL     1     -17.347   5.043  23.445  0.00  0.00    +0.000 OA
ATOM      6  O   UNL     1     -13.815   7.467  16.928  0.00  0.00    +0.000 OA
ATOM      7  O   UNL     1     -15.490   6.932  13.697  0.00  0.00    +0.000 OA
ATOM      8  O   UNL     1     -19.076   4.325  17.585  0.00  0.00    +0.000 OA
ATOM      9  C   UNL     1     -14.419   3.871  18.275  0.00  0.00    +0.000 C 
ATOM     10  C   UNL     1     -14.550   4.878  21.361  0.00  0.00    +0.000 C 
ATOM     11  C   UNL     1     -15.668   4.520  20.541  0.00  0.00    +0.000 C 
ATOM     12  C   UNL     1     -12.988   4.077  18.641  0.00  0.00    +0.000 C 
ATOM     13  C   UNL     1     -15.602   4.090  19.262  0.00  0.00    +0.000 C 
ATOM     14  C   UNL     1     -13.365   4.708  20.874  0.00  0.00    +0.000 C 
ATOM     15  C   UNL     1     -12.464   4.339  19.853  0.00  0.00    +0.000 C 
ATOM     16  C   UNL     1     -15.006   3.143  17.173  0.00  0.00    +0.000 C 
ATOM     17  C   UNL     1     -15.027   5.266  22.701  0.00  0.00    +0.000 C 
ATOM     18  C   UNL     1     -16.410   3.256  17.246  0.00  0.00    +0.000 C 
ATOM     19  C   UNL     1     -16.769   3.664  18.482  0.00  0.00    +0.000 C 
ATOM     20  C   UNL     1     -13.674   5.067  17.789  0.00  0.00    +0.000 C 
ATOM     21  C   UNL     1     -16.523   4.987  22.536  0.00  0.00    +0.000 C 
ATOM     22  C   UNL     1     -18.102   4.094  18.457  0.00  0.00    +0.000 C 
ATOM     23  C   UNL     1     -13.007   6.297  17.232  0.00  0.00    +0.000 C 
ATOM     24  C   UNL     1     -14.686   7.362  14.746  0.00  0.00    +0.000 C 
ATOM     25  C   UNL     1     -18.368   4.372  16.347  0.00  0.00    +0.000 C 
ATOM     26  C   UNL     1     -11.515   6.604  17.416  0.00  0.00    +0.000 C 
ATOM     27  C   UNL     1     -18.610   5.380  15.483  0.00  0.00    +0.000 C 
ATOM     28  C   UNL     1     -19.775   6.326  15.672  0.00  0.00    +0.000 C 
ATOM     29  C   UNL     1     -17.582   5.836  14.610  0.00  0.00    +0.000 C 
ATOM     30  C   UNL     1     -16.603   6.336  14.124  0.00  0.00    +0.000 C 
ENDROOT
BRANCH  17  31
ATOM     31  O   UNL     1     -14.422   4.467  23.702  0.00  0.00    +0.000 OA
ATOM     32  H   UNL     1     -14.069   3.686  23.237  0.00  0.00    +0.000 HD
ENDBRANCH  17  31
BRANCH  17  33
ATOM     33  C   UNL     1     -14.748   6.690  22.962  0.00  0.00    +0.000 C 
BRANCH  33  34
ATOM     34  O   UNL     1     -14.518   7.981  23.189  0.00  0.00    +0.000 OA
ATOM     35  H   UNL     1     -15.088   8.543  22.632  0.00  0.00    +0.000 HD
ENDBRANCH  33  34
ENDBRANCH  17  33
BRANCH  24  36
ATOM     36  C   UNL     1     -13.577   7.937  14.388  0.00  0.00    +0.000 C 
BRANCH  36  37
ATOM     37  C   UNL     1     -12.244   8.574  13.982  0.00  0.00    +0.000 C 
ATOM     38  C   UNL     1     -11.182   9.044  13.679  0.00  0.00    +0.000 C 
BRANCH  38  39
ATOM     39  C   UNL     1      -9.814   9.621  13.301  0.00  0.00    +0.000 C 
ATOM     40  C   UNL     1      -8.736  10.065  13.015  0.00  0.00    +0.000 C 
BRANCH  40  41
ATOM     41  C   UNL     1      -7.357  10.626  12.654  0.00  0.00    +0.000 C 
ATOM     42  C   UNL     1      -6.156  11.111  12.342  0.00  0.00    +0.000 C 
ENDBRANCH  40  41
ENDBRANCH  38  39
ENDBRANCH  36  37
ENDBRANCH  24  36
BRANCH  15  43
ATOM     43  O   UNL     1     -11.144   3.983  20.153  0.00  0.00    +0.000 OA
BRANCH  43  45
ATOM     44  O   UNL     1     -10.242   6.103  20.493  0.00  0.00    +0.000 OA
ATOM     45  C   UNL     1     -10.445   4.945  20.829  0.00  0.00    +0.000 C 
BRANCH  45  46
ATOM     46  C   UNL     1      -9.920   4.447  22.063  0.00  0.00    +0.000 C 
ATOM     47  C   UNL     1      -9.485   4.026  23.096  0.00  0.00    +0.000 C 
ATOM     48  C   UNL     1      -8.920   3.500  24.418  0.00  0.00    +0.000 C 
ENDBRANCH  45  46
ENDBRANCH  43  45
ENDBRANCH  15  43
TORSDOF 10
ENDMDL
MODEL 5
REMARK VINA RESULT:      -5.1     22.090     27.269
REMARK  Name = Thapsigargin.pdbqt.pdb
REMARK  10 active torsions:
REMARK  status: ('A' for Active; 'I' for Inactive)
REMARK    1  A    between atoms: O_2  and  C_24
REMARK    2  A    between atoms: C_17  and  O_43
REMARK    3  A    between atoms: C_19  and  C_24
REMARK    4  A    between atoms: C_19  and  O_47
REMARK    5  A    between atoms: C_27  and  C_35
REMARK    6  A    between atoms: C_35  and  C_36
REMARK    7  A    between atoms: C_37  and  C_38
REMARK    8  A    between atoms: C_39  and  C_40
REMARK    9  A    between atoms: C_42  and  O_43
REMARK   10  A    between atoms: C_42  and  C_44
REMARK                            x       y       z     vdW  Elec       q    Type
REMARK                         _______ _______ _______ _____ _____    ______ ____
ROOT
ATOM      1  O   UNL     1      -6.506 -18.085  -1.438  0.00  0.00    +0.000 OA
ATOM      2  O   UNL     1      -6.924 -16.097   4.270  0.00  0.00    +0.000 OA
ATOM      3  O   UNL     1      -9.060 -15.201   3.185  0.00  0.00    +0.000 OA
ATOM      4  O   UNL     1      -5.936 -13.482   1.012  0.00  0.00    +0.000 OA
ATOM      5  O   UNL     1      -6.795 -19.704  -3.025  0.00  0.00    +0.000 OA
ATOM      6  O   UNL     1      -9.252 -16.574   3.683  0.00  0.00    +0.000 OA
ATOM      7  O   UNL     1      -9.255 -12.913   4.036  0.00  0.00    +0.000 OA
ATOM      8  O   UNL     1      -6.861 -13.806  -1.278  0.00  0.00    +0.000 OA
ATOM      9  C   UNL     1      -5.676 -16.812   2.176  0.00  0.00    +0.000 C 
ATOM     10  C   UNL     1      -6.412 -19.455   0.436  0.00  0.00    +0.000 C 
ATOM     11  C   UNL     1      -6.295 -18.118  -0.065  0.00  0.00    +0.000 C 
ATOM     12  C   UNL     1      -5.639 -17.916   3.178  0.00  0.00    +0.000 C 
ATOM     13  C   UNL     1      -5.976 -17.027   0.665  0.00  0.00    +0.000 C 
ATOM     14  C   UNL     1      -6.116 -19.662   1.677  0.00  0.00    +0.000 C 
ATOM     15  C   UNL     1      -5.713 -19.243   2.963  0.00  0.00    +0.000 C 
ATOM     16  C   UNL     1      -5.142 -15.471   2.244  0.00  0.00    +0.000 C 
ATOM     17  C   UNL     1      -6.745 -20.368  -0.671  0.00  0.00    +0.000 C 
ATOM     18  C   UNL     1      -5.451 -14.794   1.047  0.00  0.00    +0.000 C 
ATOM     19  C   UNL     1      -5.794 -15.688   0.095  0.00  0.00    +0.000 C 
ATOM     20  C   UNL     1      -6.789 -16.994   3.150  0.00  0.00    +0.000 C 
ATOM     21  C   UNL     1      -6.702 -19.385  -1.844  0.00  0.00    +0.000 C 
ATOM     22  C   UNL     1      -6.414 -15.017  -0.967  0.00  0.00    +0.000 C 
ATOM     23  C   UNL     1      -7.954 -17.080   4.101  0.00  0.00    +0.000 C 
ATOM     24  C   UNL     1      -9.469 -14.281   4.156  0.00  0.00    +0.000 C 
ATOM     25  C   UNL     1      -6.915 -13.168  -0.003  0.00  0.00    +0.000 C 
ATOM     26  C   UNL     1      -8.024 -18.082   5.261  0.00  0.00    +0.000 C 
ATOM     27  C   UNL     1      -8.020 -12.477   0.346  0.00  0.00    +0.000 C 
ATOM     28  C   UNL     1      -9.105 -12.153  -0.657  0.00  0.00    +0.000 C 
ATOM     29  C   UNL     1      -8.397 -12.377   1.715  0.00  0.00    +0.000 C 
ATOM     30  C   UNL     1      -8.792 -12.577   2.833  0.00  0.00    +0.000 C 
ENDROOT
BRANCH  17  31
ATOM     31  O   UNL     1      -5.780 -21.401  -0.779  0.00  0.00    +0.000 OA
ATOM     32  H   UNL     1      -6.226 -22.210  -0.463  0.00  0.00    +0.000 HD
ENDBRANCH  17  31
BRANCH  17  33
ATOM     33  C   UNL     1      -8.084 -20.955  -0.481  0.00  0.00    +0.000 C 
BRANCH  33  34
ATOM     34  O   UNL     1      -9.284 -21.507  -0.313  0.00  0.00    +0.000 OA
ATOM     35  H   UNL     1      -9.966 -20.826  -0.165  0.00  0.00    +0.000 HD
ENDBRANCH  33  34
ENDBRANCH  17  33
BRANCH  24  36
ATOM     36  C   UNL     1      -9.906 -14.669   5.317  0.00  0.00    +0.000 C 
BRANCH  36  37
ATOM     37  C   UNL     1     -10.385 -15.101   6.707  0.00  0.00    +0.000 C 
ATOM     38  C   UNL     1     -10.738 -15.413   7.811  0.00  0.00    +0.000 C 
BRANCH  38  39
ATOM     39  C   UNL     1     -11.175 -15.791   9.230  0.00  0.00    +0.000 C 
ATOM     40  C   UNL     1     -11.504 -16.094  10.343  0.00  0.00    +0.000 C 
BRANCH  40  41
ATOM     41  C   UNL     1     -11.917 -16.484  11.766  0.00  0.00    +0.000 C 
ATOM     42  C   UNL     1     -12.275 -16.825  13.003  0.00  0.00    +0.000 C 
ENDBRANCH  40  41
ENDBRANCH  38  39
ENDBRANCH  36  37
ENDBRANCH  24  36
BRANCH  15  43
ATOM     43  O   UNL     1      -5.144 -20.146   3.868  0.00  0.00    +0.000 OA
BRANCH  43  45
ATOM     44  O   UNL     1      -3.665 -19.140   5.359  0.00  0.00    +0.000 OA
ATOM     45  C   UNL     1      -3.917 -19.766   4.340  0.00  0.00    +0.000 C 
BRANCH  45  46
ATOM     46  C   UNL     1      -2.863 -20.189   3.471  0.00  0.00    +0.000 C 
ATOM     47  C   UNL     1      -1.976 -20.539   2.746  0.00  0.00    +0.000 C 
ATOM     48  C   UNL     1      -0.853 -20.992   1.811  0.00  0.00    +0.000 C 
ENDBRANCH  45  46
ENDBRANCH  43  45
ENDBRANCH  15  43
TORSDOF 10
ENDMDL
MODEL 6
REMARK VINA RESULT:      -5.1     15.071     17.154
REMARK  Name = Thapsigargin.pdbqt.pdb
REMARK  10 active torsions:
REMARK  status: ('A' for Active; 'I' for Inactive)
REMARK    1  A    between atoms: O_2  and  C_24
REMARK    2  A    between atoms: C_17  and  O_43
REMARK    3  A    between atoms: C_19  and  C_24
REMARK    4  A    between atoms: C_19  and  O_47
REMARK    5  A    between atoms: C_27  and  C_35
REMARK    6  A    between atoms: C_35  and  C_36
REMARK    7  A    between atoms: C_37  and  C_38
REMARK    8  A    between atoms: C_39  and  C_40
REMARK    9  A    between atoms: C_42  and  O_43
REMARK   10  A    between atoms: C_42  and  C_44
REMARK                            x       y       z     vdW  Elec       q    Type
REMARK                         _______ _______ _______ _____ _____    ______ ____
ROOT
ATOM      1  O   UNL     1     -14.455   7.102  17.956  0.00  0.00    +0.000 OA
ATOM      2  O   UNL     1     -19.707   5.813  15.227  0.00  0.00    +0.000 OA
ATOM      3  O   UNL     1     -18.445   7.154  13.452  0.00  0.00    +0.000 OA
ATOM      4  O   UNL     1     -18.813   9.741  16.709  0.00  0.00    +0.000 OA
ATOM      5  O   UNL     1     -12.319   6.555  18.560  0.00  0.00    +0.000 OA
ATOM      6  O   UNL     1     -18.096   5.725  13.386  0.00  0.00    +0.000 OA
ATOM      7  O   UNL     1     -20.135   8.659  12.518  0.00  0.00    +0.000 OA
ATOM      8  O   UNL     1     -16.502  10.668  16.704  0.00  0.00    +0.000 OA
ATOM      9  C   UNL     1     -18.221   6.293  17.230  0.00  0.00    +0.000 C 
ATOM     10  C   UNL     1     -15.296   4.954  17.684  0.00  0.00    +0.000 C 
ATOM     11  C   UNL     1     -15.595   6.355  17.690  0.00  0.00    +0.000 C 
ATOM     12  C   UNL     1     -18.487   4.828  17.149  0.00  0.00    +0.000 C 
ATOM     13  C   UNL     1     -16.817   6.902  17.512  0.00  0.00    +0.000 C 
ATOM     14  C   UNL     1     -16.283   4.127  17.576  0.00  0.00    +0.000 C 
ATOM     15  C   UNL     1     -17.650   3.809  17.423  0.00  0.00    +0.000 C 
ATOM     16  C   UNL     1     -19.133   7.398  17.424  0.00  0.00    +0.000 C 
ATOM     17  C   UNL     1     -13.859   4.757  17.941  0.00  0.00    +0.000 C 
ATOM     18  C   UNL     1     -18.401   8.602  17.410  0.00  0.00    +0.000 C 
ATOM     19  C   UNL     1     -17.090   8.340  17.600  0.00  0.00    +0.000 C 
ATOM     20  C   UNL     1     -18.453   5.633  15.914  0.00  0.00    +0.000 C 
ATOM     21  C   UNL     1     -13.433   6.208  18.179  0.00  0.00    +0.000 C 
ATOM     22  C   UNL     1     -16.338   9.471  17.256  0.00  0.00    +0.000 C 
ATOM     23  C   UNL     1     -18.693   5.068  14.538  0.00  0.00    +0.000 C 
ATOM     24  C   UNL     1     -19.485   7.432  12.559  0.00  0.00    +0.000 C 
ATOM     25  C   UNL     1     -17.784  10.544  16.091  0.00  0.00    +0.000 C 
ATOM     26  C   UNL     1     -19.089   3.607  14.284  0.00  0.00    +0.000 C 
ATOM     27  C   UNL     1     -17.951  10.956  14.817  0.00  0.00    +0.000 C 
ATOM     28  C   UNL     1     -16.894  11.762  14.097  0.00  0.00    +0.000 C 
ATOM     29  C   UNL     1     -18.920  10.327  13.985  0.00  0.00    +0.000 C 
ATOM     30  C   UNL     1     -19.541   9.573  13.283  0.00  0.00    +0.000 C 
ENDROOT
BRANCH  17  31
ATOM     31  O   UNL     1     -13.659   3.928  19.073  0.00  0.00    +0.000 OA
ATOM     32  H   UNL     1     -13.473   3.039  18.718  0.00  0.00    +0.000 HD
ENDBRANCH  17  31
BRANCH  17  33
ATOM     33  C   UNL     1     -13.194   4.164  16.767  0.00  0.00    +0.000 C 
BRANCH  33  34
ATOM     34  O   UNL     1     -12.572   3.630  15.717  0.00  0.00    +0.000 OA
ATOM     35  H   UNL     1     -11.711   3.249  15.975  0.00  0.00    +0.000 HD
ENDBRANCH  33  34
ENDBRANCH  17  33
BRANCH  24  36
ATOM     36  C   UNL     1     -20.032   6.496  11.842  0.00  0.00    +0.000 C 
BRANCH  36  37
ATOM     37  C   UNL     1     -20.636   5.362  11.007  0.00  0.00    +0.000 C 
ATOM     38  C   UNL     1     -21.079   4.472  10.334  0.00  0.00    +0.000 C 
BRANCH  38  39
ATOM     39  C   UNL     1     -21.619   3.334   9.462  0.00  0.00    +0.000 C 
ATOM     40  C   UNL     1     -22.029   2.439   8.775  0.00  0.00    +0.000 C 
BRANCH  40  41
ATOM     41  C   UNL     1     -22.544   1.295   7.898  0.00  0.00    +0.000 C 
ATOM     42  C   UNL     1     -22.990   0.297   7.136  0.00  0.00    +0.000 C 
ENDBRANCH  40  41
ENDBRANCH  38  39
ENDBRANCH  36  37
ENDBRANCH  24  36
BRANCH  15  43
ATOM     43  O   UNL     1     -18.147   2.563  17.822  0.00  0.00    +0.000 OA
BRANCH  43  45
ATOM     44  O   UNL     1     -18.570   3.080  20.054  0.00  0.00    +0.000 OA
ATOM     45  C   UNL     1     -18.884   2.599  18.974  0.00  0.00    +0.000 C 
BRANCH  45  46
ATOM     46  C   UNL     1     -20.158   1.969  18.806  0.00  0.00    +0.000 C 
ATOM     47  C   UNL     1     -21.224   1.441  18.671  0.00  0.00    +0.000 C 
ATOM     48  C   UNL     1     -22.585   0.766  18.483  0.00  0.00    +0.000 C 
ENDBRANCH  45  46
ENDBRANCH  43  45
ENDBRANCH  15  43
TORSDOF 10
ENDMDL
MODEL 7
REMARK VINA RESULT:      -5.1     24.722     28.457
REMARK  Name = Thapsigargin.pdbqt.pdb
REMARK  10 active torsions:
REMARK  status: ('A' for Active; 'I' for Inactive)
REMARK    1  A    between atoms: O_2  and  C_24
REMARK    2  A    between atoms: C_17  and  O_43
REMARK    3  A    between atoms: C_19  and  C_24
REMARK    4  A    between atoms: C_19  and  O_47
REMARK    5  A    between atoms: C_27  and  C_35
REMARK    6  A    between atoms: C_35  and  C_36
REMARK    7  A    between atoms: C_37  and  C_38
REMARK    8  A    between atoms: C_39  and  C_40
REMARK    9  A    between atoms: C_42  and  O_43
REMARK   10  A    between atoms: C_42  and  C_44
REMARK                            x       y       z     vdW  Elec       q    Type
REMARK                         _______ _______ _______ _____ _____    ______ ____
ROOT
ATOM      1  O   UNL     1       2.361 -12.443  16.126  0.00  0.00    +0.000 OA
ATOM      2  O   UNL     1       6.129 -14.868  12.049  0.00  0.00    +0.000 OA
ATOM      3  O   UNL     1       7.506 -12.958  13.048  0.00  0.00    +0.000 OA
ATOM      4  O   UNL     1       4.150 -11.119  11.377  0.00  0.00    +0.000 OA
ATOM      5  O   UNL     1       1.422 -12.391  18.209  0.00  0.00    +0.000 OA
ATOM      6  O   UNL     1       7.637 -14.185  13.852  0.00  0.00    +0.000 OA
ATOM      7  O   UNL     1       8.597 -11.925  11.114  0.00  0.00    +0.000 OA
ATOM      8  O   UNL     1       3.638  -9.536  13.230  0.00  0.00    +0.000 OA
ATOM      9  C   UNL     1       3.849 -14.255  12.984  0.00  0.00    +0.000 C 
ATOM     10  C   UNL     1       2.982 -14.681  16.085  0.00  0.00    +0.000 C 
ATOM     11  C   UNL     1       2.903 -13.457  15.346  0.00  0.00    +0.000 C 
ATOM     12  C   UNL     1       4.113 -15.702  13.228  0.00  0.00    +0.000 C 
ATOM     13  C   UNL     1       3.254 -13.293  14.052  0.00  0.00    +0.000 C 
ATOM     14  C   UNL     1       3.348 -15.747  15.452  0.00  0.00    +0.000 C 
ATOM     15  C   UNL     1       3.782 -16.443  14.303  0.00  0.00    +0.000 C 
ATOM     16  C   UNL     1       3.727 -13.525  11.742  0.00  0.00    +0.000 C 
ATOM     17  C   UNL     1       2.480 -14.463  17.454  0.00  0.00    +0.000 C 
ATOM     18  C   UNL     1       3.493 -12.166  12.032  0.00  0.00    +0.000 C 
ATOM     19  C   UNL     1       3.087 -12.037  13.313  0.00  0.00    +0.000 C 
ATOM     20  C   UNL     1       5.240 -14.753  13.177  0.00  0.00    +0.000 C 
ATOM     21  C   UNL     1       2.035 -13.003  17.339  0.00  0.00    +0.000 C 
ATOM     22  C   UNL     1       3.179 -10.693  13.695  0.00  0.00    +0.000 C 
ATOM     23  C   UNL     1       6.682 -15.155  13.341  0.00  0.00    +0.000 C 
ATOM     24  C   UNL     1       8.548 -12.885  12.117  0.00  0.00    +0.000 C 
ATOM     25  C   UNL     1       4.489  -9.957  12.164  0.00  0.00    +0.000 C 
ATOM     26  C   UNL     1       7.139 -16.613  13.488  0.00  0.00    +0.000 C 
ATOM     27  C   UNL     1       5.728  -9.433  12.060  0.00  0.00    +0.000 C 
ATOM     28  C   UNL     1       6.161  -8.244  12.888  0.00  0.00    +0.000 C 
ATOM     29  C   UNL     1       6.781 -10.200  11.485  0.00  0.00    +0.000 C 
ATOM     30  C   UNL     1       7.652 -10.996  11.256  0.00  0.00    +0.000 C 
ENDROOT
BRANCH  17  31
ATOM     31  O   UNL     1       1.412 -15.347  17.746  0.00  0.00    +0.000 OA
ATOM     32  H   UNL     1       0.885 -15.400  16.927  0.00  0.00    +0.000 HD
ENDBRANCH  17  31
BRANCH  17  33
ATOM     33  C   UNL     1       3.560 -14.643  18.441  0.00  0.00    +0.000 C 
BRANCH  33  34
ATOM     34  O   UNL     1       4.541 -14.828  19.323  0.00  0.00    +0.000 OA
ATOM     35  H   UNL     1       4.811 -15.765  19.357  0.00  0.00    +0.000 HD
ENDBRANCH  33  34
ENDBRANCH  17  33
BRANCH  24  36
ATOM     36  C   UNL     1       9.438 -13.827  12.020  0.00  0.00    +0.000 C 
BRANCH  36  37
ATOM     37  C   UNL     1      10.449 -14.973  11.909  0.00  0.00    +0.000 C 
ATOM     38  C   UNL     1      11.253 -15.856  11.790  0.00  0.00    +0.000 C 
BRANCH  38  39
ATOM     39  C   UNL     1      12.288 -16.972  11.615  0.00  0.00    +0.000 C 
ATOM     40  C   UNL     1      13.096 -17.847  11.464  0.00  0.00    +0.000 C 
BRANCH  40  41
ATOM     41  C   UNL     1      14.125 -18.963  11.263  0.00  0.00    +0.000 C 
ATOM     42  C   UNL     1      15.020 -19.935  11.088  0.00  0.00    +0.000 C 
ENDBRANCH  40  41
ENDBRANCH  38  39
ENDBRANCH  36  37
ENDBRANCH  24  36
BRANCH  15  43
ATOM     43  O   UNL     1       3.599 -17.826  14.189  0.00  0.00    +0.000 OA
BRANCH  43  45
ATOM     44  O   UNL     1       1.906 -18.034  12.604  0.00  0.00    +0.000 OA
ATOM     45  C   UNL     1       2.364 -18.190  13.727  0.00  0.00    +0.000 C 
BRANCH  45  46
ATOM     46  C   UNL     1       1.581 -18.815  14.748  0.00  0.00    +0.000 C 
ATOM     47  C   UNL     1       0.926 -19.344  15.599  0.00  0.00    +0.000 C 
ATOM     48  C   UNL     1       0.084 -20.006  16.692  0.00  0.00    +0.000 C 
ENDBRANCH  45  46
ENDBRANCH  43  45
ENDBRANCH  15  43
TORSDOF 10
ENDMDL
MODEL 8
REMARK VINA RESULT:      -5.0     27.015     31.814
REMARK  Name = Thapsigargin.pdbqt.pdb
REMARK  10 active torsions:
REMARK  status: ('A' for Active; 'I' for Inactive)
REMARK    1  A    between atoms: O_2  and  C_24
REMARK    2  A    between atoms: C_17  and  O_43
REMARK    3  A    between atoms: C_19  and  C_24
REMARK    4  A    between atoms: C_19  and  O_47
REMARK    5  A    between atoms: C_27  and  C_35
REMARK    6  A    between atoms: C_35  and  C_36
REMARK    7  A    between atoms: C_37  and  C_38
REMARK    8  A    between atoms: C_39  and  C_40
REMARK    9  A    between atoms: C_42  and  O_43
REMARK   10  A    between atoms: C_42  and  C_44
REMARK                            x       y       z     vdW  Elec       q    Type
REMARK                         _______ _______ _______ _____ _____    ______ ____
ROOT
ATOM      1  O   UNL     1      -7.544 -10.333  30.500  0.00  0.00    +0.000 OA
ATOM      2  O   UNL     1     -12.653  -8.654  27.711  0.00  0.00    +0.000 OA
ATOM      3  O   UNL     1     -13.267  -8.498  30.190  0.00  0.00    +0.000 OA
ATOM      4  O   UNL     1     -12.232 -12.496  29.577  0.00  0.00    +0.000 OA
ATOM      5  O   UNL     1      -5.471  -9.867  31.342  0.00  0.00    +0.000 OA
ATOM      6  O   UNL     1     -12.637  -7.252  29.718  0.00  0.00    +0.000 OA
ATOM      7  O   UNL     1     -15.512  -9.466  30.318  0.00  0.00    +0.000 OA
ATOM      8  O   UNL     1     -10.852 -12.836  31.622  0.00  0.00    +0.000 OA
ATOM      9  C   UNL     1     -10.463  -9.924  27.915  0.00  0.00    +0.000 C 
ATOM     10  C   UNL     1      -7.687  -8.600  28.959  0.00  0.00    +0.000 C 
ATOM     11  C   UNL     1      -8.309  -9.780  29.481  0.00  0.00    +0.000 C 
ATOM     12  C   UNL     1     -10.274  -8.748  27.018  0.00  0.00    +0.000 C 
ATOM     13  C   UNL     1      -9.458 -10.329  29.032  0.00  0.00    +0.000 C 
ATOM     14  C   UNL     1      -8.218  -8.046  27.920  0.00  0.00    +0.000 C 
ATOM     15  C   UNL     1      -9.201  -7.942  26.912  0.00  0.00    +0.000 C 
ATOM     16  C   UNL     1     -11.319 -11.080  27.771  0.00  0.00    +0.000 C 
ATOM     17  C   UNL     1      -6.436  -8.339  29.694  0.00  0.00    +0.000 C 
ATOM     18  C   UNL     1     -11.159 -11.911  28.898  0.00  0.00    +0.000 C 
ATOM     19  C   UNL     1     -10.022 -11.581  29.548  0.00  0.00    +0.000 C 
ATOM     20  C   UNL     1     -11.268  -8.684  28.106  0.00  0.00    +0.000 C 
ATOM     21  C   UNL     1      -6.408  -9.565  30.609  0.00  0.00    +0.000 C 
ATOM     22  C   UNL     1     -10.034 -12.161  30.823  0.00  0.00    +0.000 C 
ATOM     23  C   UNL     1     -12.143  -7.487  28.371  0.00  0.00    +0.000 C 
ATOM     24  C   UNL     1     -14.659  -8.392  30.099  0.00  0.00    +0.000 C 
ATOM     25  C   UNL     1     -12.122 -12.610  31.013  0.00  0.00    +0.000 C 
ATOM     26  C   UNL     1     -12.157  -6.238  27.479  0.00  0.00    +0.000 C 
ATOM     27  C   UNL     1     -13.169 -12.242  31.780  0.00  0.00    +0.000 C 
ATOM     28  C   UNL     1     -13.105 -12.294  33.291  0.00  0.00    +0.000 C 
ATOM     29  C   UNL     1     -14.205 -11.431  31.235  0.00  0.00    +0.000 C 
ATOM     30  C   UNL     1     -14.871 -10.533  30.792  0.00  0.00    +0.000 C 
ENDROOT
BRANCH  17  31
ATOM     31  O   UNL     1      -5.332  -8.285  28.806  0.00  0.00    +0.000 OA
ATOM     32  H   UNL     1      -4.549  -8.141  29.370  0.00  0.00    +0.000 HD
ENDBRANCH  17  31
BRANCH  17  33
ATOM     33  C   UNL     1      -6.528  -7.077  30.450  0.00  0.00    +0.000 C 
BRANCH  33  34
ATOM     34  O   UNL     1      -6.634  -5.942  31.139  0.00  0.00    +0.000 OA
ATOM     35  H   UNL     1      -6.278  -5.188  30.631  0.00  0.00    +0.000 HD
ENDBRANCH  33  34
ENDBRANCH  17  33
BRANCH  24  36
ATOM     36  C   UNL     1     -15.228  -7.326  29.620  0.00  0.00    +0.000 C 
BRANCH  36  37
ATOM     37  C   UNL     1     -15.872  -6.042  29.088  0.00  0.00    +0.000 C 
ATOM     38  C   UNL     1     -16.372  -5.048  28.637  0.00  0.00    +0.000 C 
BRANCH  38  39
ATOM     39  C   UNL     1     -17.007  -3.790  28.036  0.00  0.00    +0.000 C 
ATOM     40  C   UNL     1     -17.493  -2.797  27.568  0.00  0.00    +0.000 C 
BRANCH  40  41
ATOM     41  C   UNL     1     -18.105  -1.526  26.971  0.00  0.00    +0.000 C 
ATOM     42  C   UNL     1     -18.639  -0.422  26.451  0.00  0.00    +0.000 C 
ENDBRANCH  40  41
ENDBRANCH  38  39
ENDBRANCH  36  37
ENDBRANCH  24  36
BRANCH  15  43
ATOM     43  O   UNL     1      -8.937  -7.256  25.720  0.00  0.00    +0.000 OA
BRANCH  43  45
ATOM     44  O   UNL     1      -6.860  -6.234  25.466  0.00  0.00    +0.000 OA
ATOM     45  C   UNL     1      -8.022  -6.247  25.847  0.00  0.00    +0.000 C 
BRANCH  45  46
ATOM     46  C   UNL     1      -8.575  -5.114  26.523  0.00  0.00    +0.000 C 
ATOM     47  C   UNL     1      -9.032  -4.164  27.091  0.00  0.00    +0.000 C 
ATOM     48  C   UNL     1      -9.631  -2.956  27.814  0.00  0.00    +0.000 C 
ENDBRANCH  45  46
ENDBRANCH  43  45
ENDBRANCH  15  43
TORSDOF 10
ENDMDL
MODEL 9
REMARK VINA RESULT:      -5.0     26.114     30.490
REMARK  Name = Thapsigargin.pdbqt.pdb
REMARK  10 active torsions:
REMARK  status: ('A' for Active; 'I' for Inactive)
REMARK    1  A    between atoms: O_2  and  C_24
REMARK    2  A    between atoms: C_17  and  O_43
REMARK    3  A    between atoms: C_19  and  C_24
REMARK    4  A    between atoms: C_19  and  O_47
REMARK    5  A    between atoms: C_27  and  C_35
REMARK    6  A    between atoms: C_35  and  C_36
REMARK    7  A    between atoms: C_37  and  C_38
REMARK    8  A    between atoms: C_39  and  C_40
REMARK    9  A    between atoms: C_42  and  O_43
REMARK   10  A    between atoms: C_42  and  C_44
REMARK                            x       y       z     vdW  Elec       q    Type
REMARK                         _______ _______ _______ _____ _____    ______ ____
ROOT
ATOM      1  O   UNL     1     -12.233 -20.795  10.995  0.00  0.00    +0.000 OA
ATOM      2  O   UNL     1     -14.428 -16.258  14.358  0.00  0.00    +0.000 OA
ATOM      3  O   UNL     1     -16.023 -16.324  12.359  0.00  0.00    +0.000 OA
ATOM      4  O   UNL     1     -12.260 -15.557  10.720  0.00  0.00    +0.000 OA
ATOM      5  O   UNL     1     -12.064 -23.017  10.488  0.00  0.00    +0.000 OA
ATOM      6  O   UNL     1     -16.447 -17.265  13.409  0.00  0.00    +0.000 OA
ATOM      7  O   UNL     1     -16.364 -13.969  11.781  0.00  0.00    +0.000 OA
ATOM      8  O   UNL     1     -12.380 -17.115   8.781  0.00  0.00    +0.000 OA
ATOM      9  C   UNL     1     -12.593 -17.768  13.460  0.00  0.00    +0.000 C 
ATOM     10  C   UNL     1     -12.850 -20.997  13.226  0.00  0.00    +0.000 C 
ATOM     11  C   UNL     1     -12.497 -20.099  12.168  0.00  0.00    +0.000 C 
ATOM     12  C   UNL     1     -12.956 -18.195  14.843  0.00  0.00    +0.000 C 
ATOM     13  C   UNL     1     -12.380 -18.757  12.279  0.00  0.00    +0.000 C 
ATOM     14  C   UNL     1     -13.000 -20.506  14.412  0.00  0.00    +0.000 C 
ATOM     15  C   UNL     1     -13.029 -19.443  15.340  0.00  0.00    +0.000 C 
ATOM     16  C   UNL     1     -12.038 -16.521  12.983  0.00  0.00    +0.000 C 
ATOM     17  C   UNL     1     -12.843 -22.381  12.718  0.00  0.00    +0.000 C 
ATOM     18  C   UNL     1     -11.889 -16.593  11.584  0.00  0.00    +0.000 C 
ATOM     19  C   UNL     1     -11.943 -17.882  11.186  0.00  0.00    +0.000 C 
ATOM     20  C   UNL     1     -13.977 -17.573  13.979  0.00  0.00    +0.000 C 
ATOM     21  C   UNL     1     -12.354 -22.133  11.289  0.00  0.00    +0.000 C 
ATOM     22  C   UNL     1     -12.132 -17.930   9.799  0.00  0.00    +0.000 C 
ATOM     23  C   UNL     1     -15.396 -17.315  14.412  0.00  0.00    +0.000 C 
ATOM     24  C   UNL     1     -16.682 -15.100  12.522  0.00  0.00    +0.000 C 
ATOM     25  C   UNL     1     -12.823 -15.931   9.444  0.00  0.00    +0.000 C 
ATOM     26  C   UNL     1     -15.907 -17.589  15.833  0.00  0.00    +0.000 C 
ATOM     27  C   UNL     1     -13.940 -15.310   9.013  0.00  0.00    +0.000 C 
ATOM     28  C   UNL     1     -14.605 -15.684   7.707  0.00  0.00    +0.000 C 
ATOM     29  C   UNL     1     -14.749 -14.578   9.929  0.00  0.00    +0.000 C 
ATOM     30  C   UNL     1     -15.506 -14.232  10.797  0.00  0.00    +0.000 C 
ENDROOT
BRANCH  17  31
ATOM     31  O   UNL     1     -11.958 -23.190  13.474  0.00  0.00    +0.000 OA
ATOM     32  H   UNL     1     -11.107 -23.163  12.998  0.00  0.00    +0.000 HD
ENDBRANCH  17  31
BRANCH  17  33
ATOM     33  C   UNL     1     -14.199 -22.958  12.754  0.00  0.00    +0.000 C 
BRANCH  33  34
ATOM     34  O   UNL     1     -15.418 -23.494  12.768  0.00  0.00    +0.000 OA
ATOM     35  H   UNL     1     -15.582 -23.972  13.603  0.00  0.00    +0.000 HD
ENDBRANCH  33  34
ENDBRANCH  17  33
BRANCH  24  36
ATOM     36  C   UNL     1     -17.504 -14.899  13.508  0.00  0.00    +0.000 C 
BRANCH  36  37
ATOM     37  C   UNL     1     -18.466 -14.709  14.685  0.00  0.00    +0.000 C 
ATOM     38  C   UNL     1     -19.199 -14.533  15.619  0.00  0.00    +0.000 C 
BRANCH  38  39
ATOM     39  C   UNL     1     -20.121 -14.285  16.817  0.00  0.00    +0.000 C 
ATOM     40  C   UNL     1     -20.832 -14.095  17.765  0.00  0.00    +0.000 C 
BRANCH  40  41
ATOM     41  C   UNL     1     -21.733 -13.854  18.980  0.00  0.00    +0.000 C 
ATOM     42  C   UNL     1     -22.517 -13.641  20.037  0.00  0.00    +0.000 C 
ENDBRANCH  40  41
ENDBRANCH  38  39
ENDBRANCH  36  37
ENDBRANCH  24  36
BRANCH  15  43
ATOM     43  O   UNL     1     -12.847 -19.680  16.708  0.00  0.00    +0.000 OA
BRANCH  43  45
ATOM     44  O   UNL     1     -12.987 -17.542  17.622  0.00  0.00    +0.000 OA
ATOM     45  C   UNL     1     -12.400 -18.593  17.408  0.00  0.00    +0.000 C 
BRANCH  45  46
ATOM     46  C   UNL     1     -11.075 -18.796  17.909  0.00  0.00    +0.000 C 
ATOM     47  C   UNL     1      -9.969 -18.968  18.333  0.00  0.00    +0.000 C 
ATOM     48  C   UNL     1      -8.549 -19.178  18.865  0.00  0.00    +0.000 C 
ENDBRANCH  45  46
ENDBRANCH  43  45
ENDBRANCH  15  43
TORSDOF 10
ENDMDL
