MODEL 1
REMARK VINA RESULT:      -5.5      0.000      0.000
REMARK  Name = Thioguanosine.pdbqt.pdb
REMARK  5 active torsions:
REMARK  status: ('A' for Active; 'I' for Inactive)
REMARK    1  A    between atoms: N_2  and  C1*_12
REMARK    2  A    between atoms: C4*_14  and  C5*_17
REMARK    3  A    between atoms: C3*_15  and  O3*_20
REMARK    4  A    between atoms: C2*_16  and  O2*_22
REMARK    5  A    between atoms: C5*_17  and  O5*_18
REMARK                            x       y       z     vdW  Elec       q    Type
REMARK                         _______ _______ _______ _____ _____    ______ ____
ROOT
ATOM      1  S   UNL     1     -11.045 -10.741  -2.586  0.00  0.00    +0.000 S 
ATOM      2  N   UNL     1     -12.753  -8.849   1.597  0.00  0.00    +0.000 N 
ATOM      3  N   UNL     1     -10.394  -8.338   1.114  0.00  0.00    +0.000 N 
ATOM      4  N   UNL     1     -13.141 -10.045  -0.286  0.00  0.00    +0.000 NA
ATOM      5  N   UNL     1      -9.502  -9.269  -0.884  0.00  0.00    +0.000 NA
ATOM      6  C   UNL     1     -11.597  -8.885   0.860  0.00  0.00    +0.000 A 
ATOM      7  C   UNL     1     -13.659  -9.561   0.826  0.00  0.00    +0.000 A 
ATOM      8  C   UNL     1     -11.833  -9.628  -0.269  0.00  0.00    +0.000 A 
ATOM      9  C   UNL     1     -10.733  -9.842  -1.211  0.00  0.00    +0.000 A 
ATOM     10  C   UNL     1      -9.395  -8.571   0.209  0.00  0.00    +0.000 A 
ATOM     11  H   UNL     1     -10.194  -7.817   1.965  0.00  0.00    +0.000 HD
ATOM     12  N   UNL     1      -8.214  -7.999   0.546  0.00  0.00    +0.000 N 
ATOM     13  H   UNL     1      -8.286  -7.031   0.832  0.00  0.00    +0.000 HD
ATOM     14  H   UNL     1      -7.542  -8.099  -0.211  0.00  0.00    +0.000 HD
ENDROOT
BRANCH   2  15
ATOM     15  C1* UNL     1     -13.024  -8.282   2.827  0.00  0.00    +0.000 A 
ATOM     16  O4* UNL     1     -13.616  -7.002   2.946  0.00  0.00    +0.000 OA
ATOM     17  C4* UNL     1     -13.758  -6.681   4.307  0.00  0.00    +0.000 A 
ATOM     18  C3* UNL     1     -13.253  -7.780   5.080  0.00  0.00    +0.000 A 
ATOM     19  C2* UNL     1     -12.806  -8.782   4.162  0.00  0.00    +0.000 A 
BRANCH  18  20
ATOM     20  O3* UNL     1     -12.638  -7.631   6.294  0.00  0.00    +0.000 OA
ATOM     21  H3* UNL     1     -12.954  -6.835   6.760  0.00  0.00    +0.000 HD
ENDBRANCH  18  20
BRANCH  19  22
ATOM     22  O2* UNL     1     -11.771  -9.615   4.487  0.00  0.00    +0.000 OA
ATOM     23  H2* UNL     1     -11.134  -9.646   3.744  0.00  0.00    +0.000 HD
ENDBRANCH  19  22
BRANCH  17  24
ATOM     24  C5* UNL     1     -14.080  -5.388   4.756  0.00  0.00    +0.000 C 
BRANCH  24  25
ATOM     25  O5* UNL     1     -14.362  -4.161   5.183  0.00  0.00    +0.000 OA
ATOM     26  H5* UNL     1     -14.244  -3.513   4.466  0.00  0.00    +0.000 HD
ENDBRANCH  24  25
ENDBRANCH  17  24
ENDBRANCH   2  15
TORSDOF 5
ENDMDL
MODEL 2
REMARK VINA RESULT:      -5.5     15.110     15.905
REMARK  Name = Thioguanosine.pdbqt.pdb
REMARK  5 active torsions:
REMARK  status: ('A' for Active; 'I' for Inactive)
REMARK    1  A    between atoms: N_2  and  C1*_12
REMARK    2  A    between atoms: C4*_14  and  C5*_17
REMARK    3  A    between atoms: C3*_15  and  O3*_20
REMARK    4  A    between atoms: C2*_16  and  O2*_22
REMARK    5  A    between atoms: C5*_17  and  O5*_18
REMARK                            x       y       z     vdW  Elec       q    Type
REMARK                         _______ _______ _______ _____ _____    ______ ____
ROOT
ATOM      1  S   UNL     1     -14.519   7.744   3.013  0.00  0.00    +0.000 S 
ATOM      2  N   UNL     1     -10.427   6.005   5.068  0.00  0.00    +0.000 N 
ATOM      3  N   UNL     1     -12.256   6.483   6.643  0.00  0.00    +0.000 N 
ATOM      4  N   UNL     1     -11.548   6.598   3.193  0.00  0.00    +0.000 NA
ATOM      5  N   UNL     1     -14.252   7.372   5.702  0.00  0.00    +0.000 NA
ATOM      6  C   UNL     1     -11.686   6.413   5.427  0.00  0.00    +0.000 A 
ATOM      7  C   UNL     1     -10.421   6.125   3.687  0.00  0.00    +0.000 A 
ATOM      8  C   UNL     1     -12.353   6.791   4.289  0.00  0.00    +0.000 A 
ATOM      9  C   UNL     1     -13.720   7.301   4.412  0.00  0.00    +0.000 A 
ATOM     10  C   UNL     1     -13.532   6.973   6.711  0.00  0.00    +0.000 A 
ATOM     11  H   UNL     1     -11.762   6.244   7.499  0.00  0.00    +0.000 HD
ATOM     12  N   UNL     1     -14.027   7.026   7.971  0.00  0.00    +0.000 N 
ATOM     13  H   UNL     1     -13.887   6.181   8.509  0.00  0.00    +0.000 HD
ATOM     14  H   UNL     1     -15.012   7.281   7.956  0.00  0.00    +0.000 HD
ENDROOT
BRANCH   2  15
ATOM     15  C1* UNL     1      -9.360   5.582   5.837  0.00  0.00    +0.000 A 
ATOM     16  O4* UNL     1      -9.463   5.431   7.240  0.00  0.00    +0.000 OA
ATOM     17  C4* UNL     1      -8.226   5.006   7.753  0.00  0.00    +0.000 A 
ATOM     18  C3* UNL     1      -7.309   4.874   6.657  0.00  0.00    +0.000 A 
ATOM     19  C2* UNL     1      -8.014   5.222   5.463  0.00  0.00    +0.000 A 
BRANCH  18  20
ATOM     20  O3* UNL     1      -5.966   5.117   6.762  0.00  0.00    +0.000 OA
ATOM     21  H3* UNL     1      -5.582   4.675   7.542  0.00  0.00    +0.000 HD
ENDBRANCH  18  20
BRANCH  19  22
ATOM     22  O2* UNL     1      -7.359   5.785   4.402  0.00  0.00    +0.000 OA
ATOM     23  H2* UNL     1      -6.903   6.599   4.699  0.00  0.00    +0.000 HD
ENDBRANCH  19  22
BRANCH  17  24
ATOM     24  C5* UNL     1      -7.932   5.004   9.129  0.00  0.00    +0.000 C 
BRANCH  24  25
ATOM     25  O5* UNL     1      -7.647   4.980  10.426  0.00  0.00    +0.000 OA
ATOM     26  H5* UNL     1      -6.776   5.384  10.594  0.00  0.00    +0.000 HD
ENDBRANCH  24  25
ENDBRANCH  17  24
ENDBRANCH   2  15
TORSDOF 5
ENDMDL
MODEL 3
REMARK VINA RESULT:      -5.1      3.863      5.793
REMARK  Name = Thioguanosine.pdbqt.pdb
REMARK  5 active torsions:
REMARK  status: ('A' for Active; 'I' for Inactive)
REMARK    1  A    between atoms: N_2  and  C1*_12
REMARK    2  A    between atoms: C4*_14  and  C5*_17
REMARK    3  A    between atoms: C3*_15  and  O3*_20
REMARK    4  A    between atoms: C2*_16  and  O2*_22
REMARK    5  A    between atoms: C5*_17  and  O5*_18
REMARK                            x       y       z     vdW  Elec       q    Type
REMARK                         _______ _______ _______ _____ _____    ______ ____
ROOT
ATOM      1  S   UNL     1     -15.972 -13.448   2.128  0.00  0.00    +0.000 S 
ATOM      2  N   UNL     1     -14.716  -9.078   3.948  0.00  0.00    +0.000 N 
ATOM      3  N   UNL     1     -16.837  -9.987   4.804  0.00  0.00    +0.000 N 
ATOM      4  N   UNL     1     -14.216 -10.829   2.604  0.00  0.00    +0.000 NA
ATOM      5  N   UNL     1     -17.515 -12.088   3.919  0.00  0.00    +0.000 NA
ATOM      6  C   UNL     1     -15.718 -10.008   4.058  0.00  0.00    +0.000 A 
ATOM      7  C   UNL     1     -13.823  -9.656   3.059  0.00  0.00    +0.000 A 
ATOM      8  C   UNL     1     -15.419 -11.057   3.226  0.00  0.00    +0.000 A 
ATOM      9  C   UNL     1     -16.360 -12.175   3.139  0.00  0.00    +0.000 A 
ATOM     10  C   UNL     1     -17.690 -11.050   4.684  0.00  0.00    +0.000 A 
ATOM     11  H   UNL     1     -17.091  -9.200   5.395  0.00  0.00    +0.000 HD
ATOM     12  N   UNL     1     -18.799 -10.944   5.455  0.00  0.00    +0.000 N 
ATOM     13  H   UNL     1     -18.617 -10.675   6.413  0.00  0.00    +0.000 HD
ATOM     14  H   UNL     1     -19.339 -11.806   5.423  0.00  0.00    +0.000 HD
ENDROOT
BRANCH   2  15
ATOM     15  C1* UNL     1     -14.569  -7.834   4.531  0.00  0.00    +0.000 A 
ATOM     16  O4* UNL     1     -15.039  -7.561   5.838  0.00  0.00    +0.000 OA
ATOM     17  C4* UNL     1     -14.767  -6.220   6.158  0.00  0.00    +0.000 A 
ATOM     18  C3* UNL     1     -14.101  -5.619   5.038  0.00  0.00    +0.000 A 
ATOM     19  C2* UNL     1     -13.968  -6.624   4.028  0.00  0.00    +0.000 A 
BRANCH  18  20
ATOM     20  O3* UNL     1     -14.247  -4.304   4.689  0.00  0.00    +0.000 OA
ATOM     21  H3* UNL     1     -15.138  -3.972   4.907  0.00  0.00    +0.000 HD
ENDBRANCH  18  20
BRANCH  19  22
ATOM     22  O2* UNL     1     -13.966  -6.286   2.703  0.00  0.00    +0.000 OA
ATOM     23  H2* UNL     1     -14.859  -5.976   2.446  0.00  0.00    +0.000 HD
ENDBRANCH  19  22
BRANCH  17  24
ATOM     24  C5* UNL     1     -15.325  -5.575   7.277  0.00  0.00    +0.000 C 
BRANCH  24  25
ATOM     25  O5* UNL     1     -15.872  -4.964   8.322  0.00  0.00    +0.000 OA
ATOM     26  H5* UNL     1     -15.984  -5.585   9.063  0.00  0.00    +0.000 HD
ENDBRANCH  24  25
ENDBRANCH  17  24
ENDBRANCH   2  15
TORSDOF 5
ENDMDL
MODEL 4
REMARK VINA RESULT:      -4.5      4.825      5.589
REMARK  Name = Thioguanosine.pdbqt.pdb
REMARK  5 active torsions:
REMARK  status: ('A' for Active; 'I' for Inactive)
REMARK    1  A    between atoms: N_2  and  C1*_12
REMARK    2  A    between atoms: C4*_14  and  C5*_17
REMARK    3  A    between atoms: C3*_15  and  O3*_20
REMARK    4  A    between atoms: C2*_16  and  O2*_22
REMARK    5  A    between atoms: C5*_17  and  O5*_18
REMARK                            x       y       z     vdW  Elec       q    Type
REMARK                         _______ _______ _______ _____ _____    ______ ____
ROOT
ATOM      1  S   UNL     1     -19.164 -12.472   1.336  0.00  0.00    +0.000 S 
ATOM      2  N   UNL     1     -15.928  -9.707   3.760  0.00  0.00    +0.000 N 
ATOM      3  N   UNL     1     -17.190  -8.529   2.005  0.00  0.00    +0.000 N 
ATOM      4  N   UNL     1     -16.929 -11.719   3.482  0.00  0.00    +0.000 NA
ATOM      5  N   UNL     1     -18.744  -9.837   0.768  0.00  0.00    +0.000 NA
ATOM      6  C   UNL     1     -16.854  -9.595   2.754  0.00  0.00    +0.000 A 
ATOM      7  C   UNL     1     -16.044 -11.026   4.171  0.00  0.00    +0.000 A 
ATOM      8  C   UNL     1     -17.441 -10.822   2.577  0.00  0.00    +0.000 A 
ATOM      9  C   UNL     1     -18.452 -10.972   1.527  0.00  0.00    +0.000 A 
ATOM     10  C   UNL     1     -18.134  -8.718   1.033  0.00  0.00    +0.000 A 
ATOM     11  H   UNL     1     -16.736  -7.624   2.099  0.00  0.00    +0.000 HD
ATOM     12  N   UNL     1     -18.403  -7.601   0.315  0.00  0.00    +0.000 N 
ATOM     13  H   UNL     1     -18.557  -6.773   0.875  0.00  0.00    +0.000 HD
ATOM     14  H   UNL     1     -19.190  -7.762  -0.310  0.00  0.00    +0.000 HD
ENDROOT
BRANCH   2  15
ATOM     15  C1* UNL     1     -15.042  -8.783   4.280  0.00  0.00    +0.000 A 
ATOM     16  O4* UNL     1     -15.350  -7.403   4.339  0.00  0.00    +0.000 OA
ATOM     17  C4* UNL     1     -14.264  -6.709   4.899  0.00  0.00    +0.000 A 
ATOM     18  C3* UNL     1     -13.238  -7.663   5.213  0.00  0.00    +0.000 A 
ATOM     19  C2* UNL     1     -13.724  -8.955   4.839  0.00  0.00    +0.000 A 
BRANCH  18  20
ATOM     20  O3* UNL     1     -11.900  -7.382   5.149  0.00  0.00    +0.000 OA
ATOM     21  H3* UNL     1     -11.678  -6.875   4.347  0.00  0.00    +0.000 HD
ENDBRANCH  18  20
BRANCH  19  22
ATOM     22  O2* UNL     1     -12.861  -9.934   4.429  0.00  0.00    +0.000 OA
ATOM     23  H2* UNL     1     -12.206  -9.550   3.812  0.00  0.00    +0.000 HD
ENDBRANCH  19  22
BRANCH  17  24
ATOM     24  C5* UNL     1     -14.156  -5.307   4.865  0.00  0.00    +0.000 C 
BRANCH  24  25
ATOM     25  O5* UNL     1     -14.032  -3.984   4.834  0.00  0.00    +0.000 OA
ATOM     26  H5* UNL     1     -14.557  -3.574   5.544  0.00  0.00    +0.000 HD
ENDBRANCH  24  25
ENDBRANCH  17  24
ENDBRANCH   2  15
TORSDOF 5
ENDMDL
MODEL 5
REMARK VINA RESULT:      -4.5     25.130     26.473
REMARK  Name = Thioguanosine.pdbqt.pdb
REMARK  5 active torsions:
REMARK  status: ('A' for Active; 'I' for Inactive)
REMARK    1  A    between atoms: N_2  and  C1*_12
REMARK    2  A    between atoms: C4*_14  and  C5*_17
REMARK    3  A    between atoms: C3*_15  and  O3*_20
REMARK    4  A    between atoms: C2*_16  and  O2*_22
REMARK    5  A    between atoms: C5*_17  and  O5*_18
REMARK                            x       y       z     vdW  Elec       q    Type
REMARK                         _______ _______ _______ _____ _____    ______ ____
ROOT
ATOM      1  S   UNL     1     -17.514  -4.195  29.096  0.00  0.00    +0.000 S 
ATOM      2  N   UNL     1     -13.764  -7.102  27.883  0.00  0.00    +0.000 N 
ATOM      3  N   UNL     1     -13.187  -4.725  28.158  0.00  0.00    +0.000 N 
ATOM      4  N   UNL     1     -15.960  -6.888  28.390  0.00  0.00    +0.000 NA
ATOM      5  N   UNL     1     -14.981  -3.262  28.705  0.00  0.00    +0.000 NA
ATOM      6  C   UNL     1     -14.019  -5.782  28.157  0.00  0.00    +0.000 A 
ATOM      7  C   UNL     1     -14.991  -7.721  28.065  0.00  0.00    +0.000 A 
ATOM      8  C   UNL     1     -15.354  -5.656  28.442  0.00  0.00    +0.000 A 
ATOM      9  C   UNL     1     -15.886  -4.325  28.739  0.00  0.00    +0.000 A 
ATOM     10  C   UNL     1     -13.730  -3.500  28.434  0.00  0.00    +0.000 A 
ATOM     11  H   UNL     1     -12.203  -4.797  27.911  0.00  0.00    +0.000 HD
ATOM     12  N   UNL     1     -12.830  -2.488  28.400  0.00  0.00    +0.000 N 
ATOM     13  H   UNL     1     -11.972  -2.675  28.904  0.00  0.00    +0.000 HD
ATOM     14  H   UNL     1     -13.255  -1.623  28.727  0.00  0.00    +0.000 HD
ENDROOT
BRANCH   2  15
ATOM     15  C1* UNL     1     -12.600  -7.736  27.494  0.00  0.00    +0.000 A 
ATOM     16  O4* UNL     1     -11.375  -7.538  28.175  0.00  0.00    +0.000 OA
ATOM     17  C4* UNL     1     -10.369  -8.294  27.552  0.00  0.00    +0.000 A 
ATOM     18  C3* UNL     1     -10.958  -9.000  26.450  0.00  0.00    +0.000 A 
ATOM     19  C2* UNL     1     -12.348  -8.663  26.418  0.00  0.00    +0.000 A 
BRANCH  18  20
ATOM     20  O3* UNL     1     -10.289  -9.284  25.290  0.00  0.00    +0.000 OA
ATOM     21  H3* UNL     1     -10.665 -10.065  24.842  0.00  0.00    +0.000 HD
ENDBRANCH  18  20
BRANCH  19  22
ATOM     22  O2* UNL     1     -13.034  -8.637  25.234  0.00  0.00    +0.000 OA
ATOM     23  H2* UNL     1     -13.634  -9.408  25.191  0.00  0.00    +0.000 HD
ENDBRANCH  19  22
BRANCH  17  24
ATOM     24  C5* UNL     1      -9.001  -8.122  27.833  0.00  0.00    +0.000 C 
BRANCH  24  25
ATOM     25  O5* UNL     1      -7.706  -7.982  28.094  0.00  0.00    +0.000 OA
ATOM     26  H5* UNL     1      -7.170  -8.464  27.440  0.00  0.00    +0.000 HD
ENDBRANCH  24  25
ENDBRANCH  17  24
ENDBRANCH   2  15
TORSDOF 5
ENDMDL
MODEL 6
REMARK VINA RESULT:      -4.4     15.624     17.469
REMARK  Name = Thioguanosine.pdbqt.pdb
REMARK  5 active torsions:
REMARK  status: ('A' for Active; 'I' for Inactive)
REMARK    1  A    between atoms: N_2  and  C1*_12
REMARK    2  A    between atoms: C4*_14  and  C5*_17
REMARK    3  A    between atoms: C3*_15  and  O3*_20
REMARK    4  A    between atoms: C2*_16  and  O2*_22
REMARK    5  A    between atoms: C5*_17  and  O5*_18
REMARK                            x       y       z     vdW  Elec       q    Type
REMARK                         _______ _______ _______ _____ _____    ______ ____
ROOT
ATOM      1  S   UNL     1      -4.127  10.835   1.684  0.00  0.00    +0.000 S 
ATOM      2  N   UNL     1      -6.985   7.593   3.990  0.00  0.00    +0.000 N 
ATOM      3  N   UNL     1      -5.487   8.884   5.457  0.00  0.00    +0.000 N 
ATOM      4  N   UNL     1      -6.353   8.581   2.054  0.00  0.00    +0.000 NA
ATOM      5  N   UNL     1      -4.047  10.441   4.383  0.00  0.00    +0.000 NA
ATOM      6  C   UNL     1      -6.025   8.531   4.275  0.00  0.00    +0.000 A 
ATOM      7  C   UNL     1      -7.149   7.694   2.618  0.00  0.00    +0.000 A 
ATOM      8  C   UNL     1      -5.632   9.111   3.096  0.00  0.00    +0.000 A 
ATOM      9  C   UNL     1      -4.583  10.132   3.131  0.00  0.00    +0.000 A 
ATOM     10  C   UNL     1      -4.505   9.836   5.440  0.00  0.00    +0.000 A 
ATOM     11  H   UNL     1      -5.740   8.435   6.334  0.00  0.00    +0.000 HD
ATOM     12  N   UNL     1      -4.006  10.122   6.666  0.00  0.00    +0.000 N 
ATOM     13  H   UNL     1      -4.709  10.276   7.377  0.00  0.00    +0.000 HD
ATOM     14  H   UNL     1      -3.370  10.915   6.615  0.00  0.00    +0.000 HD
ENDROOT
BRANCH   2  15
ATOM     15  C1* UNL     1      -7.656   6.708   4.812  0.00  0.00    +0.000 A 
ATOM     16  O4* UNL     1      -9.059   6.537   4.738  0.00  0.00    +0.000 OA
ATOM     17  C4* UNL     1      -9.462   5.591   5.696  0.00  0.00    +0.000 A 
ATOM     18  C3* UNL     1      -8.294   5.139   6.397  0.00  0.00    +0.000 A 
ATOM     19  C2* UNL     1      -7.168   5.824   5.842  0.00  0.00    +0.000 A 
BRANCH  18  20
ATOM     20  O3* UNL     1      -8.299   4.772   7.715  0.00  0.00    +0.000 OA
ATOM     21  H3* UNL     1      -8.496   3.823   7.823  0.00  0.00    +0.000 HD
ENDBRANCH  18  20
BRANCH  19  22
ATOM     22  O2* UNL     1      -6.074   6.109   6.612  0.00  0.00    +0.000 OA
ATOM     23  H2* UNL     1      -5.587   6.861   6.218  0.00  0.00    +0.000 HD
ENDBRANCH  19  22
BRANCH  17  24
ATOM     24  C5* UNL     1     -10.810   5.384   6.043  0.00  0.00    +0.000 C 
BRANCH  24  25
ATOM     25  O5* UNL     1     -12.081   5.206   6.386  0.00  0.00    +0.000 OA
ATOM     26  H5* UNL     1     -12.158   4.517   7.070  0.00  0.00    +0.000 HD
ENDBRANCH  24  25
ENDBRANCH  17  24
ENDBRANCH   2  15
TORSDOF 5
ENDMDL
MODEL 7
REMARK VINA RESULT:      -4.4     21.160     22.367
REMARK  Name = Thioguanosine.pdbqt.pdb
REMARK  5 active torsions:
REMARK  status: ('A' for Active; 'I' for Inactive)
REMARK    1  A    between atoms: N_2  and  C1*_12
REMARK    2  A    between atoms: C4*_14  and  C5*_17
REMARK    3  A    between atoms: C3*_15  and  O3*_20
REMARK    4  A    between atoms: C2*_16  and  O2*_22
REMARK    5  A    between atoms: C5*_17  and  O5*_18
REMARK                            x       y       z     vdW  Elec       q    Type
REMARK                         _______ _______ _______ _____ _____    ______ ____
ROOT
ATOM      1  S   UNL     1       1.682  11.645   4.559  0.00  0.00    +0.000 S 
ATOM      2  N   UNL     1       3.558   7.189   3.772  0.00  0.00    +0.000 N 
ATOM      3  N   UNL     1       1.967   7.329   5.645  0.00  0.00    +0.000 N 
ATOM      4  N   UNL     1       3.417   9.364   3.160  0.00  0.00    +0.000 NA
ATOM      5  N   UNL     1       1.060   9.480   6.098  0.00  0.00    +0.000 NA
ATOM      6  C   UNL     1       2.677   7.820   4.614  0.00  0.00    +0.000 A 
ATOM      7  C   UNL     1       3.954   8.189   2.898  0.00  0.00    +0.000 A 
ATOM      8  C   UNL     1       2.613   9.141   4.251  0.00  0.00    +0.000 A 
ATOM      9  C   UNL     1       1.756  10.041   5.026  0.00  0.00    +0.000 A 
ATOM     10  C   UNL     1       1.186   8.208   6.345  0.00  0.00    +0.000 A 
ATOM     11  H   UNL     1       2.034   6.361   5.950  0.00  0.00    +0.000 HD
ATOM     12  N   UNL     1       0.517   7.638   7.376  0.00  0.00    +0.000 N 
ATOM     13  H   UNL     1       0.046   6.774   7.140  0.00  0.00    +0.000 HD
ATOM     14  H   UNL     1      -0.136   8.301   7.786  0.00  0.00    +0.000 HD
ENDROOT
BRANCH   2  15
ATOM     15  C1* UNL     1       4.009   5.883   3.750  0.00  0.00    +0.000 A 
ATOM     16  O4* UNL     1       4.389   5.244   2.546  0.00  0.00    +0.000 OA
ATOM     17  C4* UNL     1       4.788   3.926   2.826  0.00  0.00    +0.000 A 
ATOM     18  C3* UNL     1       4.670   3.715   4.240  0.00  0.00    +0.000 A 
ATOM     19  C2* UNL     1       4.196   4.934   4.819  0.00  0.00    +0.000 A 
BRANCH  18  20
ATOM     20  O3* UNL     1       4.339   2.510   4.800  0.00  0.00    +0.000 OA
ATOM     21  H3* UNL     1       3.938   2.622   5.681  0.00  0.00    +0.000 HD
ENDBRANCH  18  20
BRANCH  19  22
ATOM     22  O2* UNL     1       3.421   4.918   5.946  0.00  0.00    +0.000 OA
ATOM     23  H2* UNL     1       3.686   4.164   6.511  0.00  0.00    +0.000 HD
ENDBRANCH  19  22
BRANCH  17  24
ATOM     24  C5* UNL     1       4.983   2.959   1.823  0.00  0.00    +0.000 C 
BRANCH  24  25
ATOM     25  O5* UNL     1       5.168   2.030   0.892  0.00  0.00    +0.000 OA
ATOM     26  H5* UNL     1       4.671   1.222   1.111  0.00  0.00    +0.000 HD
ENDBRANCH  24  25
ENDBRANCH  17  24
ENDBRANCH   2  15
TORSDOF 5
ENDMDL
MODEL 8
REMARK VINA RESULT:      -4.4     16.522     18.480
REMARK  Name = Thioguanosine.pdbqt.pdb
REMARK  5 active torsions:
REMARK  status: ('A' for Active; 'I' for Inactive)
REMARK    1  A    between atoms: N_2  and  C1*_12
REMARK    2  A    between atoms: C4*_14  and  C5*_17
REMARK    3  A    between atoms: C3*_15  and  O3*_20
REMARK    4  A    between atoms: C2*_16  and  O2*_22
REMARK    5  A    between atoms: C5*_17  and  O5*_18
REMARK                            x       y       z     vdW  Elec       q    Type
REMARK                         _______ _______ _______ _____ _____    ______ ____
ROOT
ATOM      1  S   UNL     1      -6.264  13.072   3.999  0.00  0.00    +0.000 S 
ATOM      2  N   UNL     1      -7.494   8.717   5.872  0.00  0.00    +0.000 N 
ATOM      3  N   UNL     1      -5.083   9.211   5.891  0.00  0.00    +0.000 N 
ATOM      4  N   UNL     1      -8.145  10.678   4.947  0.00  0.00    +0.000 NA
ATOM      5  N   UNL     1      -4.427  11.295   4.953  0.00  0.00    +0.000 NA
ATOM      6  C   UNL     1      -6.378   9.480   5.644  0.00  0.00    +0.000 A 
ATOM      7  C   UNL     1      -8.538   9.521   5.441  0.00  0.00    +0.000 A 
ATOM      8  C   UNL     1      -6.777  10.658   5.065  0.00  0.00    +0.000 A 
ATOM      9  C   UNL     1      -5.756  11.638   4.692  0.00  0.00    +0.000 A 
ATOM     10  C   UNL     1      -4.164  10.153   5.519  0.00  0.00    +0.000 A 
ATOM     11  H   UNL     1      -4.769   8.326   6.284  0.00  0.00    +0.000 HD
ATOM     12  N   UNL     1      -2.884   9.799   5.789  0.00  0.00    +0.000 N 
ATOM     13  H   UNL     1      -2.740   9.436   6.722  0.00  0.00    +0.000 HD
ATOM     14  H   UNL     1      -2.254  10.576   5.605  0.00  0.00    +0.000 HD
ENDROOT
BRANCH   2  15
ATOM     15  C1* UNL     1      -7.628   7.440   6.383  0.00  0.00    +0.000 A 
ATOM     16  O4* UNL     1      -7.877   7.206   7.756  0.00  0.00    +0.000 OA
ATOM     17  C4* UNL     1      -7.949   5.822   7.986  0.00  0.00    +0.000 A 
ATOM     18  C3* UNL     1      -7.751   5.150   6.733  0.00  0.00    +0.000 A 
ATOM     19  C2* UNL     1      -7.561   6.155   5.733  0.00  0.00    +0.000 A 
BRANCH  18  20
ATOM     20  O3* UNL     1      -7.134   3.934   6.617  0.00  0.00    +0.000 OA
ATOM     21  H3* UNL     1      -6.631   3.709   7.422  0.00  0.00    +0.000 HD
ENDBRANCH  18  20
BRANCH  19  22
ATOM     22  O2* UNL     1      -6.777   5.912   4.638  0.00  0.00    +0.000 OA
ATOM     23  H2* UNL     1      -7.334   5.570   3.910  0.00  0.00    +0.000 HD
ENDBRANCH  19  22
BRANCH  17  24
ATOM     24  C5* UNL     1      -7.938   5.262   9.276  0.00  0.00    +0.000 C 
BRANCH  24  25
ATOM     25  O5* UNL     1      -7.907   4.721  10.489  0.00  0.00    +0.000 OA
ATOM     26  H5* UNL     1      -8.770   4.328  10.711  0.00  0.00    +0.000 HD
ENDBRANCH  24  25
ENDBRANCH  17  24
ENDBRANCH   2  15
TORSDOF 5
ENDMDL
MODEL 9
REMARK VINA RESULT:      -4.0     24.833     26.322
REMARK  Name = Thioguanosine.pdbqt.pdb
REMARK  5 active torsions:
REMARK  status: ('A' for Active; 'I' for Inactive)
REMARK    1  A    between atoms: N_2  and  C1*_12
REMARK    2  A    between atoms: C4*_14  and  C5*_17
REMARK    3  A    between atoms: C3*_15  and  O3*_20
REMARK    4  A    between atoms: C2*_16  and  O2*_22
REMARK    5  A    between atoms: C5*_17  and  O5*_18
REMARK                            x       y       z     vdW  Elec       q    Type
REMARK                         _______ _______ _______ _____ _____    ______ ____
ROOT
ATOM      1  S   UNL     1     -18.248 -11.776  30.031  0.00  0.00    +0.000 S 
ATOM      2  N   UNL     1     -13.996  -9.859  28.535  0.00  0.00    +0.000 N 
ATOM      3  N   UNL     1     -15.521 -10.539  26.726  0.00  0.00    +0.000 N 
ATOM      4  N   UNL     1     -15.361 -10.437  30.246  0.00  0.00    +0.000 NA
ATOM      5  N   UNL     1     -17.582 -11.516  27.399  0.00  0.00    +0.000 NA
ATOM      6  C   UNL     1     -15.155 -10.371  28.010  0.00  0.00    +0.000 A 
ATOM      7  C   UNL     1     -14.201  -9.912  29.905  0.00  0.00    +0.000 A 
ATOM      8  C   UNL     1     -15.969 -10.738  29.052  0.00  0.00    +0.000 A 
ATOM      9  C   UNL     1     -17.266 -11.347  28.748  0.00  0.00    +0.000 A 
ATOM     10  C   UNL     1     -16.738 -11.118  26.491  0.00  0.00    +0.000 A 
ATOM     11  H   UNL     1     -14.913 -10.307  25.945  0.00  0.00    +0.000 HD
ATOM     12  N   UNL     1     -17.023 -11.265  25.175  0.00  0.00    +0.000 N 
ATOM     13  H   UNL     1     -16.852 -10.440  24.616  0.00  0.00    +0.000 HD
ATOM     14  H   UNL     1     -17.981 -11.587  25.053  0.00  0.00    +0.000 HD
ENDROOT
BRANCH   2  15
ATOM     15  C1* UNL     1     -12.848  -9.402  27.916  0.00  0.00    +0.000 A 
ATOM     16  O4* UNL     1     -12.379  -8.079  28.094  0.00  0.00    +0.000 OA
ATOM     17  C4* UNL     1     -11.210  -7.896  27.338  0.00  0.00    +0.000 A 
ATOM     18  C3* UNL     1     -10.915  -9.128  26.665  0.00  0.00    +0.000 A 
ATOM     19  C2* UNL     1     -11.926 -10.070  27.031  0.00  0.00    +0.000 A 
BRANCH  18  20
ATOM     20  O3* UNL     1     -10.323  -9.194  25.432  0.00  0.00    +0.000 OA
ATOM     21  H3* UNL     1      -9.994 -10.091  25.239  0.00  0.00    +0.000 HD
ENDBRANCH  18  20
BRANCH  19  22
ATOM     22  O2* UNL     1     -12.307 -11.060  26.166  0.00  0.00    +0.000 OA
ATOM     23  H2* UNL     1     -11.655 -11.788  26.201  0.00  0.00    +0.000 HD
ENDBRANCH  19  22
BRANCH  17  24
ATOM     24  C5* UNL     1     -10.643  -6.629  27.105  0.00  0.00    +0.000 C 
BRANCH  24  25
ATOM     25  O5* UNL     1     -10.128  -5.423  26.891  0.00  0.00    +0.000 OA
ATOM     26  H5* UNL     1     -10.629  -4.954  26.200  0.00  0.00    +0.000 HD
ENDBRANCH  24  25
ENDBRANCH  17  24
ENDBRANCH   2  15
TORSDOF 5
ENDMDL
