MODEL 1
REMARK VINA RESULT:      -4.5      0.000      0.000
REMARK  Name = Trichostatin_A.pdbqt.pdb
REMARK  6 active torsions:
REMARK  status: ('A' for Active; 'I' for Inactive)
REMARK    1  A    between atoms: C_1  and  C_15
REMARK    2  A    between atoms: C_4  and  C_6
REMARK    3  A    between atoms: C_7  and  C_10
REMARK    4  A    between atoms: N_9  and  O_12
REMARK    5  A    between atoms: C_15  and  C_16
REMARK    6  A    between atoms: C_17  and  N_22
REMARK                            x       y       z     vdW  Elec       q    Type
REMARK                         _______ _______ _______ _____ _____    ______ ____
ROOT
ATOM      1  C   UNL     1       7.642 -11.795  11.572  0.00  0.00    +0.000 C 
ATOM      2  C   UNL     1       7.458 -10.873  10.383  0.00  0.00    +0.000 C 
ATOM      3  C   UNL     1       7.232 -13.136  11.383  0.00  0.00    +0.000 C 
ATOM      4  C   UNL     1       6.868 -14.370  11.266  0.00  0.00    +0.000 C 
ATOM      5  C   UNL     1       7.888 -15.411  10.921  0.00  0.00    +0.000 C 
ENDROOT
BRANCH   4   6
ATOM      6  C   UNL     1       5.566 -14.766  11.653  0.00  0.00    +0.000 C 
ATOM      7  C   UNL     1       4.462 -15.104  11.984  0.00  0.00    +0.000 C 
BRANCH   7  10
ATOM      8  O   UNL     1       2.740 -15.268  13.519  0.00  0.00    +0.000 OA
ATOM      9  N   UNL     1       2.389 -16.139  11.434  0.00  0.00    +0.000 N 
ATOM     10  C   UNL     1       3.138 -15.502  12.383  0.00  0.00    +0.000 C 
ATOM     11  H   UNL     1       2.704 -16.348  10.494  0.00  0.00    +0.000 HD
BRANCH   9  12
ATOM     12  O   UNL     1       1.089 -16.552  11.795  0.00  0.00    +0.000 OA
ATOM     13  H   UNL     1       1.148 -16.632  12.771  0.00  0.00    +0.000 HD
ENDBRANCH   9  12
ENDBRANCH   7  10
ENDBRANCH   4   6
BRANCH   1  15
ATOM     14  O   UNL     1       9.000 -10.691  13.178  0.00  0.00    +0.000 OA
ATOM     15  C   UNL     1       7.962 -11.312  12.949  0.00  0.00    +0.000 C 
BRANCH  15  16
ATOM     16  C   UNL     1       7.024 -11.562  14.063  0.00  0.00    +0.000 A 
ATOM     17  C   UNL     1       5.100 -12.084  16.071  0.00  0.00    +0.000 A 
ATOM     18  C   UNL     1       7.242 -12.573  14.994  0.00  0.00    +0.000 A 
ATOM     19  C   UNL     1       5.841 -10.829  14.108  0.00  0.00    +0.000 A 
ATOM     20  C   UNL     1       6.296 -12.817  15.989  0.00  0.00    +0.000 A 
ATOM     21  C   UNL     1       4.903 -11.082  15.108  0.00  0.00    +0.000 A 
BRANCH  17  22
ATOM     22  N   UNL     1       4.151 -12.326  17.096  0.00  0.00    +0.000 N 
ATOM     23  C   UNL     1       2.983 -11.474  17.249  0.00  0.00    +0.000 C 
ATOM     24  C   UNL     1       4.497 -13.115  18.267  0.00  0.00    +0.000 C 
ENDBRANCH  17  22
ENDBRANCH  15  16
ENDBRANCH   1  15
TORSDOF 6
ENDMDL
MODEL 2
REMARK VINA RESULT:      -4.5     26.928     28.175
REMARK  Name = Trichostatin_A.pdbqt.pdb
REMARK  6 active torsions:
REMARK  status: ('A' for Active; 'I' for Inactive)
REMARK    1  A    between atoms: C_1  and  C_15
REMARK    2  A    between atoms: C_4  and  C_6
REMARK    3  A    between atoms: C_7  and  C_10
REMARK    4  A    between atoms: N_9  and  O_12
REMARK    5  A    between atoms: C_15  and  C_16
REMARK    6  A    between atoms: C_17  and  N_22
REMARK                            x       y       z     vdW  Elec       q    Type
REMARK                         _______ _______ _______ _____ _____    ______ ____
ROOT
ATOM      1  C   UNL     1     -12.983   3.260  -0.417  0.00  0.00    +0.000 C 
ATOM      2  C   UNL     1     -13.068   4.489  -1.300  0.00  0.00    +0.000 C 
ATOM      3  C   UNL     1     -13.699   2.125  -0.867  0.00  0.00    +0.000 C 
ATOM      4  C   UNL     1     -14.340   1.063  -1.229  0.00  0.00    +0.000 C 
ATOM      5  C   UNL     1     -13.616  -0.019  -1.970  0.00  0.00    +0.000 C 
ENDROOT
BRANCH   4   6
ATOM      6  C   UNL     1     -15.655   0.833  -0.760  0.00  0.00    +0.000 C 
ATOM      7  C   UNL     1     -16.773   0.641  -0.364  0.00  0.00    +0.000 C 
BRANCH   7  10
ATOM      8  O   UNL     1     -18.852   1.347   0.360  0.00  0.00    +0.000 OA
ATOM      9  N   UNL     1     -18.477  -0.907   0.246  0.00  0.00    +0.000 N 
ATOM     10  C   UNL     1     -18.112   0.403   0.107  0.00  0.00    +0.000 C 
ATOM     11  H   UNL     1     -17.876  -1.698   0.049  0.00  0.00    +0.000 HD
BRANCH   9  12
ATOM     12  O   UNL     1     -19.780  -1.176   0.715  0.00  0.00    +0.000 OA
ATOM     13  H   UNL     1     -19.804  -0.706   1.577  0.00  0.00    +0.000 HD
ENDBRANCH   9  12
ENDBRANCH   7  10
ENDBRANCH   4   6
BRANCH   1  15
ATOM     14  O   UNL     1     -12.798   2.449   1.808  0.00  0.00    +0.000 OA
ATOM     15  C   UNL     1     -12.434   3.278   0.973  0.00  0.00    +0.000 C 
BRANCH  15  16
ATOM     16  C   UNL     1     -11.432   4.289   1.365  0.00  0.00    +0.000 A 
ATOM     17  C   UNL     1      -9.559   6.197   2.293  0.00  0.00    +0.000 A 
ATOM     18  C   UNL     1     -10.073   4.108   1.127  0.00  0.00    +0.000 A 
ATOM     19  C   UNL     1     -11.862   5.399   2.088  0.00  0.00    +0.000 A 
ATOM     20  C   UNL     1      -9.156   5.059   1.576  0.00  0.00    +0.000 A 
ATOM     21  C   UNL     1     -10.935   6.343   2.530  0.00  0.00    +0.000 A 
BRANCH  17  22
ATOM     22  N   UNL     1      -8.623   7.168   2.730  0.00  0.00    +0.000 N 
ATOM     23  C   UNL     1      -7.543   6.810   3.634  0.00  0.00    +0.000 C 
ATOM     24  C   UNL     1      -8.931   8.587   2.667  0.00  0.00    +0.000 C 
ENDBRANCH  17  22
ENDBRANCH  15  16
ENDBRANCH   1  15
TORSDOF 6
ENDMDL
MODEL 3
REMARK VINA RESULT:      -4.3     25.220     26.788
REMARK  Name = Trichostatin_A.pdbqt.pdb
REMARK  6 active torsions:
REMARK  status: ('A' for Active; 'I' for Inactive)
REMARK    1  A    between atoms: C_1  and  C_15
REMARK    2  A    between atoms: C_4  and  C_6
REMARK    3  A    between atoms: C_7  and  C_10
REMARK    4  A    between atoms: N_9  and  O_12
REMARK    5  A    between atoms: C_15  and  C_16
REMARK    6  A    between atoms: C_17  and  N_22
REMARK                            x       y       z     vdW  Elec       q    Type
REMARK                         _______ _______ _______ _____ _____    ______ ____
ROOT
ATOM      1  C   UNL     1      -4.161  11.357   0.996  0.00  0.00    +0.000 C 
ATOM      2  C   UNL     1      -5.081  12.560   0.941  0.00  0.00    +0.000 C 
ATOM      3  C   UNL     1      -4.709  10.138   0.531  0.00  0.00    +0.000 C 
ATOM      4  C   UNL     1      -5.164   8.999   0.124  0.00  0.00    +0.000 C 
ATOM      5  C   UNL     1      -4.873   8.545  -1.274  0.00  0.00    +0.000 C 
ENDROOT
BRANCH   4   6
ATOM      6  C   UNL     1      -5.755   8.101   1.043  0.00  0.00    +0.000 C 
ATOM      7  C   UNL     1      -6.255   7.339   1.826  0.00  0.00    +0.000 C 
BRANCH   7  10
ATOM      8  O   UNL     1      -6.579   6.502   3.957  0.00  0.00    +0.000 OA
ATOM      9  N   UNL     1      -7.732   5.518   2.245  0.00  0.00    +0.000 N 
ATOM     10  C   UNL     1      -6.858   6.431   2.766  0.00  0.00    +0.000 C 
ATOM     11  H   UNL     1      -7.968   5.440   1.263  0.00  0.00    +0.000 HD
BRANCH   9  12
ATOM     12  O   UNL     1      -8.334   4.606   3.137  0.00  0.00    +0.000 OA
ATOM     13  H   UNL     1      -8.307   5.087   3.993  0.00  0.00    +0.000 HD
ENDBRANCH   9  12
ENDBRANCH   7  10
ENDBRANCH   4   6
BRANCH   1  15
ATOM     14  O   UNL     1      -1.813  11.662   1.180  0.00  0.00    +0.000 OA
ATOM     15  C   UNL     1      -2.863  11.343   1.737  0.00  0.00    +0.000 C 
BRANCH  15  16
ATOM     16  C   UNL     1      -2.823  10.955   3.161  0.00  0.00    +0.000 A 
ATOM     17  C   UNL     1      -2.704  10.387   5.931  0.00  0.00    +0.000 A 
ATOM     18  C   UNL     1      -3.949  10.482   3.827  0.00  0.00    +0.000 A 
ATOM     19  C   UNL     1      -1.645  11.174   3.872  0.00  0.00    +0.000 A 
ATOM     20  C   UNL     1      -3.881  10.192   5.189  0.00  0.00    +0.000 A 
ATOM     21  C   UNL     1      -1.590  10.880   5.234  0.00  0.00    +0.000 A 
BRANCH  17  22
ATOM     22  N   UNL     1      -2.637  10.073   7.311  0.00  0.00    +0.000 N 
ATOM     23  C   UNL     1      -3.806  10.203   8.165  0.00  0.00    +0.000 C 
ATOM     24  C   UNL     1      -1.363  10.038   8.011  0.00  0.00    +0.000 C 
ENDBRANCH  17  22
ENDBRANCH  15  16
ENDBRANCH   1  15
TORSDOF 6
ENDMDL
MODEL 4
REMARK VINA RESULT:      -4.2     24.886     27.020
REMARK  Name = Trichostatin_A.pdbqt.pdb
REMARK  6 active torsions:
REMARK  status: ('A' for Active; 'I' for Inactive)
REMARK    1  A    between atoms: C_1  and  C_15
REMARK    2  A    between atoms: C_4  and  C_6
REMARK    3  A    between atoms: C_7  and  C_10
REMARK    4  A    between atoms: N_9  and  O_12
REMARK    5  A    between atoms: C_15  and  C_16
REMARK    6  A    between atoms: C_17  and  N_22
REMARK                            x       y       z     vdW  Elec       q    Type
REMARK                         _______ _______ _______ _____ _____    ______ ____
ROOT
ATOM      1  C   UNL     1     -14.492   6.197  14.922  0.00  0.00    +0.000 C 
ATOM      2  C   UNL     1     -14.855   6.293  13.454  0.00  0.00    +0.000 C 
ATOM      3  C   UNL     1     -13.792   7.304  15.460  0.00  0.00    +0.000 C 
ATOM      4  C   UNL     1     -13.147   8.285  15.998  0.00  0.00    +0.000 C 
ATOM      5  C   UNL     1     -13.900   9.336  16.755  0.00  0.00    +0.000 C 
ENDROOT
BRANCH   4   6
ATOM      6  C   UNL     1     -11.734   8.265  16.045  0.00  0.00    +0.000 C 
ATOM      7  C   UNL     1     -10.533   8.247  16.089  0.00  0.00    +0.000 C 
BRANCH   7  10
ATOM      8  O   UNL     1      -8.473   9.197  16.534  0.00  0.00    +0.000 OA
ATOM      9  N   UNL     1      -8.501   7.060  15.722  0.00  0.00    +0.000 N 
ATOM     10  C   UNL     1      -9.095   8.218  16.138  0.00  0.00    +0.000 C 
ATOM     11  H   UNL     1      -8.999   6.245  15.384  0.00  0.00    +0.000 HD
BRANCH   9  12
ATOM     12  O   UNL     1      -7.092   7.001  15.747  0.00  0.00    +0.000 OA
ATOM     13  H   UNL     1      -6.877   6.551  14.902  0.00  0.00    +0.000 HD
ENDBRANCH   9  12
ENDBRANCH   7  10
ENDBRANCH   4   6
BRANCH   1  15
ATOM     14  O   UNL     1     -15.293   3.999  15.334  0.00  0.00    +0.000 OA
ATOM     15  C   UNL     1     -14.589   4.935  15.716  0.00  0.00    +0.000 C 
BRANCH  15  16
ATOM     16  C   UNL     1     -13.828   4.784  16.973  0.00  0.00    +0.000 A 
ATOM     17  C   UNL     1     -12.515   4.406  19.451  0.00  0.00    +0.000 A 
ATOM     18  C   UNL     1     -12.645   4.055  17.033  0.00  0.00    +0.000 A 
ATOM     19  C   UNL     1     -14.378   5.302  18.143  0.00  0.00    +0.000 A 
ATOM     20  C   UNL     1     -11.996   3.883  18.256  0.00  0.00    +0.000 A 
ATOM     21  C   UNL     1     -13.718   5.124  19.360  0.00  0.00    +0.000 A 
BRANCH  17  22
ATOM     22  N   UNL     1     -11.841   4.243  20.687  0.00  0.00    +0.000 N 
ATOM     23  C   UNL     1     -12.533   4.448  21.949  0.00  0.00    +0.000 C 
ATOM     24  C   UNL     1     -10.390   4.299  20.762  0.00  0.00    +0.000 C 
ENDBRANCH  17  22
ENDBRANCH  15  16
ENDBRANCH   1  15
TORSDOF 6
ENDMDL
MODEL 5
REMARK VINA RESULT:      -3.9     24.532     26.213
REMARK  Name = Trichostatin_A.pdbqt.pdb
REMARK  6 active torsions:
REMARK  status: ('A' for Active; 'I' for Inactive)
REMARK    1  A    between atoms: C_1  and  C_15
REMARK    2  A    between atoms: C_4  and  C_6
REMARK    3  A    between atoms: C_7  and  C_10
REMARK    4  A    between atoms: N_9  and  O_12
REMARK    5  A    between atoms: C_15  and  C_16
REMARK    6  A    between atoms: C_17  and  N_22
REMARK                            x       y       z     vdW  Elec       q    Type
REMARK                         _______ _______ _______ _____ _____    ______ ____
ROOT
ATOM      1  C   UNL     1      -4.011  10.577   9.261  0.00  0.00    +0.000 C 
ATOM      2  C   UNL     1      -2.704  10.096   9.859  0.00  0.00    +0.000 C 
ATOM      3  C   UNL     1      -5.177   9.907   9.704  0.00  0.00    +0.000 C 
ATOM      4  C   UNL     1      -6.270   9.325  10.071  0.00  0.00    +0.000 C 
ATOM      5  C   UNL     1      -7.105   9.937  11.154  0.00  0.00    +0.000 C 
ENDROOT
BRANCH   4   6
ATOM      6  C   UNL     1      -6.778   8.235   9.327  0.00  0.00    +0.000 C 
ATOM      7  C   UNL     1      -7.206   7.307   8.694  0.00  0.00    +0.000 C 
BRANCH   7  10
ATOM      8  O   UNL     1      -8.890   6.196   7.565  0.00  0.00    +0.000 OA
ATOM      9  N   UNL     1      -6.848   5.175   7.695  0.00  0.00    +0.000 N 
ATOM     10  C   UNL     1      -7.724   6.195   7.942  0.00  0.00    +0.000 C 
ATOM     11  H   UNL     1      -5.884   5.154   8.006  0.00  0.00    +0.000 HD
BRANCH   9  12
ATOM     12  O   UNL     1      -7.325   4.064   6.968  0.00  0.00    +0.000 OA
ATOM     13  H   UNL     1      -6.850   4.142   6.113  0.00  0.00    +0.000 HD
ENDBRANCH   9  12
ENDBRANCH   7  10
ENDBRANCH   4   6
BRANCH   1  15
ATOM     14  O   UNL     1      -3.856  12.692   8.192  0.00  0.00    +0.000 OA
ATOM     15  C   UNL     1      -4.093  11.489   8.080  0.00  0.00    +0.000 C 
BRANCH  15  16
ATOM     16  C   UNL     1      -4.450  10.956   6.750  0.00  0.00    +0.000 A 
ATOM     17  C   UNL     1      -5.023   9.791   4.235  0.00  0.00    +0.000 A 
ATOM     18  C   UNL     1      -5.753  10.588   6.430  0.00  0.00    +0.000 A 
ATOM     19  C   UNL     1      -3.425  10.722   5.836  0.00  0.00    +0.000 A 
ATOM     20  C   UNL     1      -6.031  10.026   5.184  0.00  0.00    +0.000 A 
ATOM     21  C   UNL     1      -3.716  10.159   4.593  0.00  0.00    +0.000 A 
BRANCH  17  22
ATOM     22  N   UNL     1      -5.316   9.236   2.964  0.00  0.00    +0.000 N 
ATOM     23  C   UNL     1      -4.809   9.848   1.747  0.00  0.00    +0.000 C 
ATOM     24  C   UNL     1      -6.445   8.339   2.781  0.00  0.00    +0.000 C 
ENDBRANCH  17  22
ENDBRANCH  15  16
ENDBRANCH   1  15
TORSDOF 6
ENDMDL
MODEL 6
REMARK VINA RESULT:      -3.9     28.231     30.099
REMARK  Name = Trichostatin_A.pdbqt.pdb
REMARK  6 active torsions:
REMARK  status: ('A' for Active; 'I' for Inactive)
REMARK    1  A    between atoms: C_1  and  C_15
REMARK    2  A    between atoms: C_4  and  C_6
REMARK    3  A    between atoms: C_7  and  C_10
REMARK    4  A    between atoms: N_9  and  O_12
REMARK    5  A    between atoms: C_15  and  C_16
REMARK    6  A    between atoms: C_17  and  N_22
REMARK                            x       y       z     vdW  Elec       q    Type
REMARK                         _______ _______ _______ _____ _____    ______ ____
ROOT
ATOM      1  C   UNL     1     -13.244   1.960  -4.595  0.00  0.00    +0.000 C 
ATOM      2  C   UNL     1     -14.423   2.553  -5.340  0.00  0.00    +0.000 C 
ATOM      3  C   UNL     1     -13.470   1.641  -3.235  0.00  0.00    +0.000 C 
ATOM      4  C   UNL     1     -13.621   1.338  -1.988  0.00  0.00    +0.000 C 
ATOM      5  C   UNL     1     -13.948  -0.073  -1.605  0.00  0.00    +0.000 C 
ENDROOT
BRANCH   4   6
ATOM      6  C   UNL     1     -13.287   2.276  -0.984  0.00  0.00    +0.000 C 
ATOM      7  C   UNL     1     -13.003   3.077  -0.133  0.00  0.00    +0.000 C 
BRANCH   7  10
ATOM      8  O   UNL     1     -11.525   4.093   1.326  0.00  0.00    +0.000 OA
ATOM      9  N   UNL     1     -13.688   4.834   1.320  0.00  0.00    +0.000 N 
ATOM     10  C   UNL     1     -12.669   4.032   0.890  0.00  0.00    +0.000 C 
ATOM     11  H   UNL     1     -14.640   4.792   0.976  0.00  0.00    +0.000 HD
BRANCH   9  12
ATOM     12  O   UNL     1     -13.399   5.776   2.329  0.00  0.00    +0.000 OA
ATOM     13  H   UNL     1     -14.277   5.936   2.738  0.00  0.00    +0.000 HD
ENDBRANCH   9  12
ENDBRANCH   7  10
ENDBRANCH   4   6
BRANCH   1  15
ATOM     14  O   UNL     1     -11.299   0.900  -5.453  0.00  0.00    +0.000 OA
ATOM     15  C   UNL     1     -11.848   1.953  -5.129  0.00  0.00    +0.000 C 
BRANCH  15  16
ATOM     16  C   UNL     1     -11.106   3.220  -5.287  0.00  0.00    +0.000 A 
ATOM     17  C   UNL     1      -9.800   5.692  -5.726  0.00  0.00    +0.000 A 
ATOM     18  C   UNL     1     -11.043   4.168  -4.270  0.00  0.00    +0.000 A 
ATOM     19  C   UNL     1     -10.548   3.507  -6.530  0.00  0.00    +0.000 A 
ATOM     20  C   UNL     1     -10.387   5.379  -4.489  0.00  0.00    +0.000 A 
ATOM     21  C   UNL     1      -9.894   4.722  -6.736  0.00  0.00    +0.000 A 
BRANCH  17  22
ATOM     22  N   UNL     1      -9.119   6.918  -5.935  0.00  0.00    +0.000 N 
ATOM     23  C   UNL     1      -7.680   7.013  -5.757  0.00  0.00    +0.000 C 
ATOM     24  C   UNL     1      -9.831   8.185  -5.901  0.00  0.00    +0.000 C 
ENDBRANCH  17  22
ENDBRANCH  15  16
ENDBRANCH   1  15
TORSDOF 6
ENDMDL
MODEL 7
REMARK VINA RESULT:      -3.7     28.158     29.619
REMARK  Name = Trichostatin_A.pdbqt.pdb
REMARK  6 active torsions:
REMARK  status: ('A' for Active; 'I' for Inactive)
REMARK    1  A    between atoms: C_1  and  C_15
REMARK    2  A    between atoms: C_4  and  C_6
REMARK    3  A    between atoms: C_7  and  C_10
REMARK    4  A    between atoms: N_9  and  O_12
REMARK    5  A    between atoms: C_15  and  C_16
REMARK    6  A    between atoms: C_17  and  N_22
REMARK                            x       y       z     vdW  Elec       q    Type
REMARK                         _______ _______ _______ _____ _____    ______ ____
ROOT
ATOM      1  C   UNL     1     -13.215   2.542  -2.590  0.00  0.00    +0.000 C 
ATOM      2  C   UNL     1     -12.515   2.366  -3.922  0.00  0.00    +0.000 C 
ATOM      3  C   UNL     1     -12.915   3.733  -1.886  0.00  0.00    +0.000 C 
ATOM      4  C   UNL     1     -12.671   4.800  -1.200  0.00  0.00    +0.000 C 
ATOM      5  C   UNL     1     -13.607   5.967  -1.292  0.00  0.00    +0.000 C 
ENDROOT
BRANCH   4   6
ATOM      6  C   UNL     1     -11.649   4.798  -0.223  0.00  0.00    +0.000 C 
ATOM      7  C   UNL     1     -10.778   4.798   0.605  0.00  0.00    +0.000 C 
BRANCH   7  10
ATOM      8  O   UNL     1      -9.869   5.466   2.623  0.00  0.00    +0.000 OA
ATOM      9  N   UNL     1      -8.641   4.035   1.330  0.00  0.00    +0.000 N 
ATOM     10  C   UNL     1      -9.740   4.801   1.602  0.00  0.00    +0.000 C 
ATOM     11  H   UNL     1      -8.515   3.485   0.489  0.00  0.00    +0.000 HD
BRANCH   9  12
ATOM     12  O   UNL     1      -7.600   4.022   2.282  0.00  0.00    +0.000 OA
ATOM     13  H   UNL     1      -7.882   4.710   2.923  0.00  0.00    +0.000 HD
ENDBRANCH   9  12
ENDBRANCH   7  10
ENDBRANCH   4   6
BRANCH   1  15
ATOM     14  O   UNL     1     -13.470   0.318  -1.796  0.00  0.00    +0.000 OA
ATOM     15  C   UNL     1     -13.955   1.445  -1.895  0.00  0.00    +0.000 C 
BRANCH  15  16
ATOM     16  C   UNL     1     -15.282   1.702  -1.300  0.00  0.00    +0.000 A 
ATOM     17  C   UNL     1     -17.890   2.222  -0.331  0.00  0.00    +0.000 A 
ATOM     18  C   UNL     1     -15.977   0.720  -0.601  0.00  0.00    +0.000 A 
ATOM     19  C   UNL     1     -15.889   2.932  -1.545  0.00  0.00    +0.000 A 
ATOM     20  C   UNL     1     -17.257   0.988  -0.115  0.00  0.00    +0.000 A 
ATOM     21  C   UNL     1     -17.169   3.187  -1.053  0.00  0.00    +0.000 A 
BRANCH  17  22
ATOM     22  N   UNL     1     -19.183   2.492   0.182  0.00  0.00    +0.000 N 
ATOM     23  C   UNL     1     -19.367   3.382   1.317  0.00  0.00    +0.000 C 
ATOM     24  C   UNL     1     -20.298   1.600  -0.090  0.00  0.00    +0.000 C 
ENDBRANCH  17  22
ENDBRANCH  15  16
ENDBRANCH   1  15
TORSDOF 6
ENDMDL
MODEL 8
REMARK VINA RESULT:      -3.6     16.687     20.597
REMARK  Name = Trichostatin_A.pdbqt.pdb
REMARK  6 active torsions:
REMARK  status: ('A' for Active; 'I' for Inactive)
REMARK    1  A    between atoms: C_1  and  C_15
REMARK    2  A    between atoms: C_4  and  C_6
REMARK    3  A    between atoms: C_7  and  C_10
REMARK    4  A    between atoms: N_9  and  O_12
REMARK    5  A    between atoms: C_15  and  C_16
REMARK    6  A    between atoms: C_17  and  N_22
REMARK                            x       y       z     vdW  Elec       q    Type
REMARK                         _______ _______ _______ _____ _____    ______ ____
ROOT
ATOM      1  C   UNL     1     -15.392 -15.224  10.728  0.00  0.00    +0.000 C 
ATOM      2  C   UNL     1     -15.682 -13.738  10.662  0.00  0.00    +0.000 C 
ATOM      3  C   UNL     1     -14.205 -15.593  11.407  0.00  0.00    +0.000 C 
ATOM      4  C   UNL     1     -13.131 -15.982  12.010  0.00  0.00    +0.000 C 
ATOM      5  C   UNL     1     -13.208 -16.430  13.437  0.00  0.00    +0.000 C 
ENDROOT
BRANCH   4   6
ATOM      6  C   UNL     1     -11.937 -16.174  11.278  0.00  0.00    +0.000 C 
ATOM      7  C   UNL     1     -10.919 -16.338  10.659  0.00  0.00    +0.000 C 
BRANCH   7  10
ATOM      8  O   UNL     1      -8.965 -15.593   9.673  0.00  0.00    +0.000 OA
ATOM      9  N   UNL     1      -9.449 -17.822   9.517  0.00  0.00    +0.000 N 
ATOM     10  C   UNL     1      -9.704 -16.540   9.916  0.00  0.00    +0.000 C 
ATOM     11  H   UNL     1     -10.051 -18.615   9.703  0.00  0.00    +0.000 HD
BRANCH   9  12
ATOM     12  O   UNL     1      -8.270 -18.055   8.777  0.00  0.00    +0.000 OA
ATOM     13  H   UNL     1      -8.531 -17.802   7.866  0.00  0.00    +0.000 HD
ENDBRANCH   9  12
ENDBRANCH   7  10
ENDBRANCH   4   6
BRANCH   1  15
ATOM     14  O   UNL     1     -17.345 -16.227   9.822  0.00  0.00    +0.000 OA
ATOM     15  C   UNL     1     -16.117 -16.244   9.912  0.00  0.00    +0.000 C 
BRANCH  15  16
ATOM     16  C   UNL     1     -15.367 -17.289   9.186  0.00  0.00    +0.000 A 
ATOM     17  C   UNL     1     -13.776 -19.193   7.826  0.00  0.00    +0.000 A 
ATOM     18  C   UNL     1     -15.300 -18.600   9.645  0.00  0.00    +0.000 A 
ATOM     19  C   UNL     1     -14.624 -16.912   8.070  0.00  0.00    +0.000 A 
ATOM     20  C   UNL     1     -14.524 -19.537   8.963  0.00  0.00    +0.000 A 
ATOM     21  C   UNL     1     -13.852 -17.859   7.396  0.00  0.00    +0.000 A 
BRANCH  17  22
ATOM     22  N   UNL     1     -13.003 -20.155   7.128  0.00  0.00    +0.000 N 
ATOM     23  C   UNL     1     -11.614 -20.396   7.480  0.00  0.00    +0.000 C 
ATOM     24  C   UNL     1     -13.392 -20.609   5.802  0.00  0.00    +0.000 C 
ENDBRANCH  17  22
ENDBRANCH  15  16
ENDBRANCH   1  15
TORSDOF 6
ENDMDL
MODEL 9
REMARK VINA RESULT:      -3.6     28.497     29.897
REMARK  Name = Trichostatin_A.pdbqt.pdb
REMARK  6 active torsions:
REMARK  status: ('A' for Active; 'I' for Inactive)
REMARK    1  A    between atoms: C_1  and  C_15
REMARK    2  A    between atoms: C_4  and  C_6
REMARK    3  A    between atoms: C_7  and  C_10
REMARK    4  A    between atoms: N_9  and  O_12
REMARK    5  A    between atoms: C_15  and  C_16
REMARK    6  A    between atoms: C_17  and  N_22
REMARK                            x       y       z     vdW  Elec       q    Type
REMARK                         _______ _______ _______ _____ _____    ______ ____
ROOT
ATOM      1  C   UNL     1     -13.324   0.413  -6.347  0.00  0.00    +0.000 C 
ATOM      2  C   UNL     1     -13.728   1.133  -7.617  0.00  0.00    +0.000 C 
ATOM      3  C   UNL     1     -14.231  -0.567  -5.876  0.00  0.00    +0.000 C 
ATOM      4  C   UNL     1     -15.027  -1.467  -5.402  0.00  0.00    +0.000 C 
ATOM      5  C   UNL     1     -14.781  -2.911  -5.718  0.00  0.00    +0.000 C 
ENDROOT
BRANCH   4   6
ATOM      6  C   UNL     1     -15.997  -1.117  -4.434  0.00  0.00    +0.000 C 
ATOM      7  C   UNL     1     -16.824  -0.823  -3.613  0.00  0.00    +0.000 C 
BRANCH   7  10
ATOM      8  O   UNL     1     -18.485  -1.341  -2.090  0.00  0.00    +0.000 OA
ATOM      9  N   UNL     1     -17.923   0.862  -2.338  0.00  0.00    +0.000 N 
ATOM     10  C   UNL     1     -17.807  -0.470  -2.623  0.00  0.00    +0.000 C 
ATOM     11  H   UNL     1     -17.377   1.595  -2.774  0.00  0.00    +0.000 HD
BRANCH   9  12
ATOM     12  O   UNL     1     -18.885   1.244  -1.379  0.00  0.00    +0.000 OA
ATOM     13  H   UNL     1     -18.732   0.605  -0.650  0.00  0.00    +0.000 HD
ENDBRANCH   9  12
ENDBRANCH   7  10
ENDBRANCH   4   6
BRANCH   1  15
ATOM     14  O   UNL     1     -11.032   0.725  -5.808  0.00  0.00    +0.000 OA
ATOM     15  C   UNL     1     -12.205   0.861  -5.463  0.00  0.00    +0.000 C 
BRANCH  15  16
ATOM     16  C   UNL     1     -12.493   1.491  -4.158  0.00  0.00    +0.000 A 
ATOM     17  C   UNL     1     -13.171   2.801  -1.743  0.00  0.00    +0.000 A 
ATOM     18  C   UNL     1     -12.996   0.762  -3.085  0.00  0.00    +0.000 A 
ATOM     19  C   UNL     1     -12.352   2.872  -4.047  0.00  0.00    +0.000 A 
ATOM     20  C   UNL     1     -13.316   1.412  -1.893  0.00  0.00    +0.000 A 
ATOM     21  C   UNL     1     -12.676   3.510  -2.849  0.00  0.00    +0.000 A 
BRANCH  17  22
ATOM     22  N   UNL     1     -13.481   3.452  -0.523  0.00  0.00    +0.000 N 
ATOM     23  C   UNL     1     -13.011   2.924   0.747  0.00  0.00    +0.000 C 
ATOM     24  C   UNL     1     -14.600   4.376  -0.430  0.00  0.00    +0.000 C 
ENDBRANCH  17  22
ENDBRANCH  15  16
ENDBRANCH   1  15
TORSDOF 6
ENDMDL
