MODEL 1
REMARK VINA RESULT:      -5.4      0.000      0.000
REMARK  Name = Trifluridine.pdbqt.pdb
REMARK  5 active torsions:
REMARK  status: ('A' for Active; 'I' for Inactive)
REMARK    1  A    between atoms: N_3  and  C1*_10
REMARK    2  A    between atoms: C_7  and  C_20
REMARK    3  A    between atoms: C4*_12  and  C5*_15
REMARK    4  A    between atoms: C3*_13  and  O3*_18
REMARK    5  A    between atoms: C5*_15  and  O5*_16
REMARK                            x       y       z     vdW  Elec       q    Type
REMARK                         _______ _______ _______ _____ _____    ______ ____
ROOT
ATOM      1  O   UNL     1       8.322  -9.405  10.260  0.00  0.00    +0.000 OA
ATOM      2  O   UNL     1       5.841 -12.461  12.620  0.00  0.00    +0.000 OA
ATOM      3  N   UNL     1       6.098  -8.828  10.835  0.00  0.00    +0.000 N 
ATOM      4  N   UNL     1       7.034 -10.888  11.448  0.00  0.00    +0.000 N 
ATOM      5  C   UNL     1       5.019  -9.321  11.474  0.00  0.00    +0.000 A 
ATOM      6  C   UNL     1       7.245  -9.654  10.789  0.00  0.00    +0.000 A 
ATOM      7  C   UNL     1       4.733 -10.419  12.092  0.00  0.00    +0.000 A 
ATOM      8  C   UNL     1       5.883 -11.357  12.095  0.00  0.00    +0.000 A 
ATOM      9  H   UNL     1       7.825 -11.517  11.441  0.00  0.00    +0.000 HD
ENDROOT
BRANCH   3  10
ATOM     10  C1* UNL     1       6.028  -7.586  10.271  0.00  0.00    +0.000 A 
ATOM     11  O4* UNL     1       6.541  -6.451  10.908  0.00  0.00    +0.000 OA
ATOM     12  C4* UNL     1       6.277  -5.359  10.071  0.00  0.00    +0.000 A 
ATOM     13  C3* UNL     1       5.591  -5.825   8.892  0.00  0.00    +0.000 A 
ATOM     14  C2* UNL     1       5.440  -7.215   9.046  0.00  0.00    +0.000 A 
BRANCH  13  15
ATOM     15  O3* UNL     1       4.699  -5.025   8.235  0.00  0.00    +0.000 OA
ATOM     16  H3* UNL     1       4.896  -4.085   8.388  0.00  0.00    +0.000 HD
ENDBRANCH  13  15
BRANCH  12  17
ATOM     17  C5* UNL     1       6.467  -4.027  10.485  0.00  0.00    +0.000 C 
BRANCH  17  18
ATOM     18  O5* UNL     1       6.641  -2.768  10.875  0.00  0.00    +0.000 OA
ATOM     19  H5* UNL     1       7.056  -2.250  10.165  0.00  0.00    +0.000 HD
ENDBRANCH  17  18
ENDBRANCH  12  17
ENDBRANCH   3  10
BRANCH   7  20
ATOM     20  C   UNL     1       3.482 -10.846  12.733  0.00  0.00    +0.000 C 
ATOM     21  F   UNL     1       3.654 -11.194  14.032  0.00  0.00    +0.000 F 
ATOM     22  F   UNL     1       2.551  -9.852  12.730  0.00  0.00    +0.000 F 
ATOM     23  F   UNL     1       2.908 -11.899  12.101  0.00  0.00    +0.000 F 
ENDBRANCH   7  20
TORSDOF 5
ENDMDL
MODEL 2
REMARK VINA RESULT:      -5.2     21.063     23.285
REMARK  Name = Trifluridine.pdbqt.pdb
REMARK  5 active torsions:
REMARK  status: ('A' for Active; 'I' for Inactive)
REMARK    1  A    between atoms: N_3  and  C1*_10
REMARK    2  A    between atoms: C_7  and  C_20
REMARK    3  A    between atoms: C4*_12  and  C5*_15
REMARK    4  A    between atoms: C3*_13  and  O3*_18
REMARK    5  A    between atoms: C5*_15  and  O5*_16
REMARK                            x       y       z     vdW  Elec       q    Type
REMARK                         _______ _______ _______ _____ _____    ______ ____
ROOT
ATOM      1  O   UNL     1     -12.526  -6.211  28.157  0.00  0.00    +0.000 OA
ATOM      2  O   UNL     1      -8.720  -3.862  27.130  0.00  0.00    +0.000 OA
ATOM      3  N   UNL     1     -10.793  -7.347  27.010  0.00  0.00    +0.000 N 
ATOM      4  N   UNL     1     -10.594  -5.092  27.623  0.00  0.00    +0.000 N 
ATOM      5  C   UNL     1      -9.560  -7.142  26.507  0.00  0.00    +0.000 A 
ATOM      6  C   UNL     1     -11.416  -6.245  27.641  0.00  0.00    +0.000 A 
ATOM      7  C   UNL     1      -8.744  -6.143  26.440  0.00  0.00    +0.000 A 
ATOM      8  C   UNL     1      -9.314  -4.930  27.078  0.00  0.00    +0.000 A 
ATOM      9  H   UNL     1     -10.995  -4.275  28.061  0.00  0.00    +0.000 HD
ENDROOT
BRANCH   3  10
ATOM     10  C1* UNL     1     -11.368  -8.578  26.882  0.00  0.00    +0.000 A 
ATOM     11  O4* UNL     1     -12.443  -8.810  26.016  0.00  0.00    +0.000 OA
ATOM     12  C4* UNL     1     -12.795 -10.159  26.156  0.00  0.00    +0.000 A 
ATOM     13  C3* UNL     1     -11.921 -10.776  27.123  0.00  0.00    +0.000 A 
ATOM     14  C2* UNL     1     -11.048  -9.767  27.567  0.00  0.00    +0.000 A 
BRANCH  13  15
ATOM     15  O3* UNL     1     -12.354 -11.812  27.900  0.00  0.00    +0.000 OA
ATOM     16  H3* UNL     1     -12.074 -12.667  27.529  0.00  0.00    +0.000 HD
ENDBRANCH  13  15
BRANCH  12  17
ATOM     17  C5* UNL     1     -13.968 -10.696  25.591  0.00  0.00    +0.000 C 
BRANCH  17  18
ATOM     18  O5* UNL     1     -15.078 -11.198  25.059  0.00  0.00    +0.000 OA
ATOM     19  H5* UNL     1     -15.494 -10.545  24.473  0.00  0.00    +0.000 HD
ENDBRANCH  17  18
ENDBRANCH  12  17
ENDBRANCH   3  10
BRANCH   7  20
ATOM     20  C   UNL     1      -7.413  -6.048  25.825  0.00  0.00    +0.000 C 
ATOM     21  F   UNL     1      -6.439  -5.782  26.731  0.00  0.00    +0.000 F 
ATOM     22  F   UNL     1      -7.055  -7.214  25.219  0.00  0.00    +0.000 F 
ATOM     23  F   UNL     1      -7.350  -5.092  24.866  0.00  0.00    +0.000 F 
ENDBRANCH   7  20
TORSDOF 5
ENDMDL
MODEL 3
REMARK VINA RESULT:      -5.1     19.722     21.069
REMARK  Name = Trifluridine.pdbqt.pdb
REMARK  5 active torsions:
REMARK  status: ('A' for Active; 'I' for Inactive)
REMARK    1  A    between atoms: N_3  and  C1*_10
REMARK    2  A    between atoms: C_7  and  C_20
REMARK    3  A    between atoms: C4*_12  and  C5*_15
REMARK    4  A    between atoms: C3*_13  and  O3*_18
REMARK    5  A    between atoms: C5*_15  and  O5*_16
REMARK                            x       y       z     vdW  Elec       q    Type
REMARK                         _______ _______ _______ _____ _____    ______ ____
ROOT
ATOM      1  O   UNL     1     -16.515  -8.988   3.341  0.00  0.00    +0.000 OA
ATOM      2  O   UNL     1     -13.016 -10.078   0.579  0.00  0.00    +0.000 OA
ATOM      3  N   UNL     1     -14.347  -8.256   3.950  0.00  0.00    +0.000 N 
ATOM      4  N   UNL     1     -14.726  -9.495   1.995  0.00  0.00    +0.000 N 
ATOM      5  C   UNL     1     -13.068  -8.299   3.525  0.00  0.00    +0.000 A 
ATOM      6  C   UNL     1     -15.309  -8.903   3.141  0.00  0.00    +0.000 A 
ATOM      7  C   UNL     1     -12.448  -8.809   2.514  0.00  0.00    +0.000 A 
ATOM      8  C   UNL     1     -13.382  -9.515   1.602  0.00  0.00    +0.000 A 
ATOM      9  H   UNL     1     -15.373  -9.973   1.384  0.00  0.00    +0.000 HD
ENDROOT
BRANCH   3  10
ATOM     10  C1* UNL     1     -14.639  -7.611   5.117  0.00  0.00    +0.000 A 
ATOM     11  O4* UNL     1     -14.720  -6.216   5.195  0.00  0.00    +0.000 OA
ATOM     12  C4* UNL     1     -15.007  -5.898   6.529  0.00  0.00    +0.000 A 
ATOM     13  C3* UNL     1     -15.109  -7.117   7.292  0.00  0.00    +0.000 A 
ATOM     14  C2* UNL     1     -14.867  -8.169   6.390  0.00  0.00    +0.000 A 
BRANCH  13  15
ATOM     15  O3* UNL     1     -14.773  -7.148   8.615  0.00  0.00    +0.000 OA
ATOM     16  H3* UNL     1     -15.410  -7.678   9.125  0.00  0.00    +0.000 HD
ENDBRANCH  13  15
BRANCH  12  17
ATOM     17  C5* UNL     1     -14.955  -4.579   7.019  0.00  0.00    +0.000 C 
BRANCH  17  18
ATOM     18  O5* UNL     1     -14.901  -3.335   7.484  0.00  0.00    +0.000 OA
ATOM     19  H5* UNL     1     -15.707  -2.850   7.239  0.00  0.00    +0.000 HD
ENDBRANCH  17  18
ENDBRANCH  12  17
ENDBRANCH   3  10
BRANCH   7  20
ATOM     20  C   UNL     1     -11.017  -8.803   2.181  0.00  0.00    +0.000 C 
ATOM     21  F   UNL     1     -10.765  -8.242   0.972  0.00  0.00    +0.000 F 
ATOM     22  F   UNL     1     -10.293  -8.088   3.086  0.00  0.00    +0.000 F 
ATOM     23  F   UNL     1     -10.481 -10.049   2.172  0.00  0.00    +0.000 F 
ENDBRANCH   7  20
TORSDOF 5
ENDMDL
MODEL 4
REMARK VINA RESULT:      -4.9     21.275     22.960
REMARK  Name = Trifluridine.pdbqt.pdb
REMARK  5 active torsions:
REMARK  status: ('A' for Active; 'I' for Inactive)
REMARK    1  A    between atoms: N_3  and  C1*_10
REMARK    2  A    between atoms: C_7  and  C_20
REMARK    3  A    between atoms: C4*_12  and  C5*_15
REMARK    4  A    between atoms: C3*_13  and  O3*_18
REMARK    5  A    between atoms: C5*_15  and  O5*_16
REMARK                            x       y       z     vdW  Elec       q    Type
REMARK                         _______ _______ _______ _____ _____    ______ ____
ROOT
ATOM      1  O   UNL     1     -10.362  -6.364  29.759  0.00  0.00    +0.000 OA
ATOM      2  O   UNL     1      -8.159  -2.546  28.482  0.00  0.00    +0.000 OA
ATOM      3  N   UNL     1      -9.617  -6.206  27.516  0.00  0.00    +0.000 N 
ATOM      4  N   UNL     1      -9.246  -4.483  29.063  0.00  0.00    +0.000 N 
ATOM      5  C   UNL     1      -8.967  -5.368  26.684  0.00  0.00    +0.000 A 
ATOM      6  C   UNL     1      -9.801  -5.767  28.848  0.00  0.00    +0.000 A 
ATOM      7  C   UNL     1      -8.437  -4.194  26.784  0.00  0.00    +0.000 A 
ATOM      8  C   UNL     1      -8.582  -3.646  28.156  0.00  0.00    +0.000 A 
ATOM      9  H   UNL     1      -9.353  -4.122  30.000  0.00  0.00    +0.000 HD
ENDROOT
BRANCH   3  10
ATOM     10  C1* UNL     1     -10.061  -7.406  27.039  0.00  0.00    +0.000 A 
ATOM     11  O4* UNL     1     -11.364  -7.578  26.559  0.00  0.00    +0.000 OA
ATOM     12  C4* UNL     1     -11.483  -8.922  26.180  0.00  0.00    +0.000 A 
ATOM     13  C3* UNL     1     -10.232  -9.594  26.427  0.00  0.00    +0.000 A 
ATOM     14  C2* UNL     1      -9.366  -8.629  26.971  0.00  0.00    +0.000 A 
BRANCH  13  15
ATOM     15  O3* UNL     1     -10.199 -10.922  26.746  0.00  0.00    +0.000 OA
ATOM     16  H3* UNL     1     -10.538 -11.073  27.646  0.00  0.00    +0.000 HD
ENDBRANCH  13  15
BRANCH  12  17
ATOM     17  C5* UNL     1     -12.721  -9.505  25.845  0.00  0.00    +0.000 C 
BRANCH  17  18
ATOM     18  O5* UNL     1     -13.891 -10.050  25.527  0.00  0.00    +0.000 OA
ATOM     19  H5* UNL     1     -13.905 -10.987  25.783  0.00  0.00    +0.000 HD
ENDBRANCH  17  18
ENDBRANCH  12  17
ENDBRANCH   3  10
BRANCH   7  20
ATOM     20  C   UNL     1      -7.770  -3.368  25.769  0.00  0.00    +0.000 C 
ATOM     21  F   UNL     1      -6.594  -2.854  26.206  0.00  0.00    +0.000 F 
ATOM     22  F   UNL     1      -7.475  -4.087  24.651  0.00  0.00    +0.000 F 
ATOM     23  F   UNL     1      -8.540  -2.330  25.356  0.00  0.00    +0.000 F 
ENDBRANCH   7  20
TORSDOF 5
ENDMDL
MODEL 5
REMARK VINA RESULT:      -4.6      6.448      9.315
REMARK  Name = Trifluridine.pdbqt.pdb
REMARK  5 active torsions:
REMARK  status: ('A' for Active; 'I' for Inactive)
REMARK    1  A    between atoms: N_3  and  C1*_10
REMARK    2  A    between atoms: C_7  and  C_20
REMARK    3  A    between atoms: C4*_12  and  C5*_15
REMARK    4  A    between atoms: C3*_13  and  O3*_18
REMARK    5  A    between atoms: C5*_15  and  O5*_16
REMARK                            x       y       z     vdW  Elec       q    Type
REMARK                         _______ _______ _______ _____ _____    ______ ____
ROOT
ATOM      1  O   UNL     1       9.526  -2.192   8.330  0.00  0.00    +0.000 OA
ATOM      2  O   UNL     1       8.129   2.152   8.817  0.00  0.00    +0.000 OA
ATOM      3  N   UNL     1       7.435  -1.806   9.373  0.00  0.00    +0.000 N 
ATOM      4  N   UNL     1       8.770  -0.041   8.594  0.00  0.00    +0.000 N 
ATOM      5  C   UNL     1       6.616  -0.800   9.736  0.00  0.00    +0.000 A 
ATOM      6  C   UNL     1       8.645  -1.444   8.735  0.00  0.00    +0.000 A 
ATOM      7  C   UNL     1       6.643   0.489   9.656  0.00  0.00    +0.000 A 
ATOM      8  C   UNL     1       7.885   0.967   8.998  0.00  0.00    +0.000 A 
ATOM      9  H   UNL     1       9.619   0.270   8.146  0.00  0.00    +0.000 HD
ENDROOT
BRANCH   3  10
ATOM     10  C1* UNL     1       7.068  -3.093   9.639  0.00  0.00    +0.000 A 
ATOM     11  O4* UNL     1       6.833  -4.024   8.620  0.00  0.00    +0.000 OA
ATOM     12  C4* UNL     1       6.453  -5.221   9.242  0.00  0.00    +0.000 A 
ATOM     13  C3* UNL     1       6.454  -5.030  10.671  0.00  0.00    +0.000 A 
ATOM     14  C2* UNL     1       6.832  -3.693  10.891  0.00  0.00    +0.000 A 
BRANCH  13  15
ATOM     15  O3* UNL     1       5.597  -5.727  11.474  0.00  0.00    +0.000 OA
ATOM     16  H3* UNL     1       5.993  -6.567  11.762  0.00  0.00    +0.000 HD
ENDBRANCH  13  15
BRANCH  12  17
ATOM     17  C5* UNL     1       5.940  -6.317   8.521  0.00  0.00    +0.000 C 
BRANCH  17  18
ATOM     18  O5* UNL     1       5.451  -7.348   7.841  0.00  0.00    +0.000 OA
ATOM     19  H5* UNL     1       4.524  -7.505   8.088  0.00  0.00    +0.000 HD
ENDBRANCH  17  18
ENDBRANCH  12  17
ENDBRANCH   3  10
BRANCH   7  20
ATOM     20  C   UNL     1       5.674   1.487  10.128  0.00  0.00    +0.000 C 
ATOM     21  F   UNL     1       5.407   2.435   9.196  0.00  0.00    +0.000 F 
ATOM     22  F   UNL     1       4.477   0.917  10.440  0.00  0.00    +0.000 F 
ATOM     23  F   UNL     1       6.090   2.125  11.251  0.00  0.00    +0.000 F 
ENDBRANCH   7  20
TORSDOF 5
ENDMDL
MODEL 6
REMARK VINA RESULT:      -4.5     18.535     19.764
REMARK  Name = Trifluridine.pdbqt.pdb
REMARK  5 active torsions:
REMARK  status: ('A' for Active; 'I' for Inactive)
REMARK    1  A    between atoms: N_3  and  C1*_10
REMARK    2  A    between atoms: C_7  and  C_20
REMARK    3  A    between atoms: C4*_12  and  C5*_15
REMARK    4  A    between atoms: C3*_13  and  O3*_18
REMARK    5  A    between atoms: C5*_15  and  O5*_16
REMARK                            x       y       z     vdW  Elec       q    Type
REMARK                         _______ _______ _______ _____ _____    ______ ____
ROOT
ATOM      1  O   UNL     1     -12.703 -12.045   2.512  0.00  0.00    +0.000 OA
ATOM      2  O   UNL     1     -15.333  -9.757   5.496  0.00  0.00    +0.000 OA
ATOM      3  N   UNL     1     -12.285  -9.734   2.820  0.00  0.00    +0.000 N 
ATOM      4  N   UNL     1     -13.979 -10.848   3.997  0.00  0.00    +0.000 N 
ATOM      5  C   UNL     1     -12.730  -8.673   3.522  0.00  0.00    +0.000 A 
ATOM      6  C   UNL     1     -12.942 -10.967   3.042  0.00  0.00    +0.000 A 
ATOM      7  C   UNL     1     -13.657  -8.468   4.398  0.00  0.00    +0.000 A 
ATOM      8  C   UNL     1     -14.407  -9.713   4.698  0.00  0.00    +0.000 A 
ATOM      9  H   UNL     1     -14.482 -11.703   4.191  0.00  0.00    +0.000 HD
ENDROOT
BRANCH   3  10
ATOM     10  C1* UNL     1     -11.252  -9.566   1.943  0.00  0.00    +0.000 A 
ATOM     11  O4* UNL     1     -10.036  -8.991   2.329  0.00  0.00    +0.000 OA
ATOM     12  C4* UNL     1      -9.225  -8.950   1.188  0.00  0.00    +0.000 A 
ATOM     13  C3* UNL     1      -9.948  -9.512   0.075  0.00  0.00    +0.000 A 
ATOM     14  C2* UNL     1     -11.212  -9.880   0.570  0.00  0.00    +0.000 A 
BRANCH  13  15
ATOM     15  O3* UNL     1      -9.720  -9.081  -1.201  0.00  0.00    +0.000 OA
ATOM     16  H3* UNL     1      -8.898  -9.461  -1.556  0.00  0.00    +0.000 HD
ENDBRANCH  13  15
BRANCH  12  17
ATOM     17  C5* UNL     1      -8.005  -8.246   1.153  0.00  0.00    +0.000 C 
BRANCH  17  18
ATOM     18  O5* UNL     1      -6.852  -7.585   1.118  0.00  0.00    +0.000 OA
ATOM     19  H5* UNL     1      -6.498  -7.479   2.016  0.00  0.00    +0.000 HD
ENDBRANCH  17  18
ENDBRANCH  12  17
ENDBRANCH   3  10
BRANCH   7  20
ATOM     20  C   UNL     1     -14.059  -7.229   5.077  0.00  0.00    +0.000 C 
ATOM     21  F   UNL     1     -13.890  -7.293   6.421  0.00  0.00    +0.000 F 
ATOM     22  F   UNL     1     -13.323  -6.163   4.656  0.00  0.00    +0.000 F 
ATOM     23  F   UNL     1     -15.355  -6.906   4.844  0.00  0.00    +0.000 F 
ENDBRANCH   7  20
TORSDOF 5
ENDMDL
MODEL 7
REMARK VINA RESULT:      -4.2     25.645     26.945
REMARK  Name = Trifluridine.pdbqt.pdb
REMARK  5 active torsions:
REMARK  status: ('A' for Active; 'I' for Inactive)
REMARK    1  A    between atoms: N_3  and  C1*_10
REMARK    2  A    between atoms: C_7  and  C_20
REMARK    3  A    between atoms: C4*_12  and  C5*_15
REMARK    4  A    between atoms: C3*_13  and  O3*_18
REMARK    5  A    between atoms: C5*_15  and  O5*_16
REMARK                            x       y       z     vdW  Elec       q    Type
REMARK                         _______ _______ _______ _____ _____    ______ ____
ROOT
ATOM      1  O   UNL     1     -18.669   6.480  15.861  0.00  0.00    +0.000 OA
ATOM      2  O   UNL     1     -21.490   4.105  13.129  0.00  0.00    +0.000 OA
ATOM      3  N   UNL     1     -17.805   4.568  14.761  0.00  0.00    +0.000 N 
ATOM      4  N   UNL     1     -20.029   5.256  14.474  0.00  0.00    +0.000 N 
ATOM      5  C   UNL     1     -18.178   3.591  13.911  0.00  0.00    +0.000 A 
ATOM      6  C   UNL     1     -18.791   5.520  15.109  0.00  0.00    +0.000 A 
ATOM      7  C   UNL     1     -19.265   3.268  13.293  0.00  0.00    +0.000 A 
ATOM      8  C   UNL     1     -20.366   4.216  13.599  0.00  0.00    +0.000 A 
ATOM      9  H   UNL     1     -20.769   5.908  14.692  0.00  0.00    +0.000 HD
ENDROOT
BRANCH   3  10
ATOM     10  C1* UNL     1     -16.526   4.585  15.236  0.00  0.00    +0.000 A 
ATOM     11  O4* UNL     1     -16.175   3.977  16.447  0.00  0.00    +0.000 OA
ATOM     12  C4* UNL     1     -14.807   4.208  16.638  0.00  0.00    +0.000 A 
ATOM     13  C3* UNL     1     -14.298   4.970  15.525  0.00  0.00    +0.000 A 
ATOM     14  C2* UNL     1     -15.392   5.200  14.671  0.00  0.00    +0.000 A 
BRANCH  13  15
ATOM     15  O3* UNL     1     -13.255   5.837  15.685  0.00  0.00    +0.000 OA
ATOM     16  H3* UNL     1     -12.479   5.384  16.057  0.00  0.00    +0.000 HD
ENDBRANCH  13  15
BRANCH  12  17
ATOM     17  C5* UNL     1     -14.154   3.920  17.852  0.00  0.00    +0.000 C 
BRANCH  17  18
ATOM     18  O5* UNL     1     -13.543   3.646  19.000  0.00  0.00    +0.000 OA
ATOM     19  H5* UNL     1     -13.667   4.376  19.630  0.00  0.00    +0.000 HD
ENDBRANCH  17  18
ENDBRANCH  12  17
ENDBRANCH   3  10
BRANCH   7  20
ATOM     20  C   UNL     1     -19.546   2.136  12.399  0.00  0.00    +0.000 C 
ATOM     21  F   UNL     1     -20.719   1.522  12.690  0.00  0.00    +0.000 F 
ATOM     22  F   UNL     1     -19.639   2.533  11.100  0.00  0.00    +0.000 F 
ATOM     23  F   UNL     1     -18.572   1.193  12.434  0.00  0.00    +0.000 F 
ENDBRANCH   7  20
TORSDOF 5
ENDMDL
MODEL 8
REMARK VINA RESULT:      -4.1     21.976     24.117
REMARK  Name = Trifluridine.pdbqt.pdb
REMARK  5 active torsions:
REMARK  status: ('A' for Active; 'I' for Inactive)
REMARK    1  A    between atoms: N_3  and  C1*_10
REMARK    2  A    between atoms: C_7  and  C_20
REMARK    3  A    between atoms: C4*_12  and  C5*_15
REMARK    4  A    between atoms: C3*_13  and  O3*_18
REMARK    5  A    between atoms: C5*_15  and  O5*_16
REMARK                            x       y       z     vdW  Elec       q    Type
REMARK                         _______ _______ _______ _____ _____    ______ ____
ROOT
ATOM      1  O   UNL     1     -10.944   7.631   2.490  0.00  0.00    +0.000 OA
ATOM      2  O   UNL     1     -15.299   7.834   3.923  0.00  0.00    +0.000 OA
ATOM      3  N   UNL     1     -11.400   7.077   4.747  0.00  0.00    +0.000 N 
ATOM      4  N   UNL     1     -13.104   7.706   3.264  0.00  0.00    +0.000 N 
ATOM      5  C   UNL     1     -12.426   6.978   5.615  0.00  0.00    +0.000 A 
ATOM      6  C   UNL     1     -11.717   7.477   3.428  0.00  0.00    +0.000 A 
ATOM      7  C   UNL     1     -13.702   7.167   5.562  0.00  0.00    +0.000 A 
ATOM      8  C   UNL     1     -14.133   7.594   4.207  0.00  0.00    +0.000 A 
ATOM      9  H   UNL     1     -13.383   7.996   2.337  0.00  0.00    +0.000 HD
ENDROOT
BRANCH   3  10
ATOM     10  C1* UNL     1     -10.134   6.799   5.177  0.00  0.00    +0.000 A 
ATOM     11  O4* UNL     1      -9.165   7.796   5.328  0.00  0.00    +0.000 OA
ATOM     12  C4* UNL     1      -7.991   7.162   5.754  0.00  0.00    +0.000 A 
ATOM     13  C3* UNL     1      -8.236   5.747   5.873  0.00  0.00    +0.000 A 
ATOM     14  C2* UNL     1      -9.577   5.546   5.498  0.00  0.00    +0.000 A 
BRANCH  13  15
ATOM     15  O3* UNL     1      -7.237   4.840   5.661  0.00  0.00    +0.000 OA
ATOM     16  H3* UNL     1      -7.551   3.932   5.816  0.00  0.00    +0.000 HD
ENDBRANCH  13  15
BRANCH  12  17
ATOM     17  C5* UNL     1      -6.750   7.827   5.808  0.00  0.00    +0.000 C 
BRANCH  17  18
ATOM     18  O5* UNL     1      -5.577   8.450   5.858  0.00  0.00    +0.000 OA
ATOM     19  H5* UNL     1      -5.058   8.130   6.615  0.00  0.00    +0.000 HD
ENDBRANCH  17  18
ENDBRANCH  12  17
ENDBRANCH   3  10
BRANCH   7  20
ATOM     20  C   UNL     1     -14.721   7.047   6.614  0.00  0.00    +0.000 C 
ATOM     21  F   UNL     1     -15.677   6.134   6.311  0.00  0.00    +0.000 F 
ATOM     22  F   UNL     1     -14.178   6.646   7.796  0.00  0.00    +0.000 F 
ATOM     23  F   UNL     1     -15.347   8.223   6.868  0.00  0.00    +0.000 F 
ENDBRANCH   7  20
TORSDOF 5
ENDMDL
MODEL 9
REMARK VINA RESULT:      -4.1     20.185     21.109
REMARK  Name = Trifluridine.pdbqt.pdb
REMARK  5 active torsions:
REMARK  status: ('A' for Active; 'I' for Inactive)
REMARK    1  A    between atoms: N_3  and  C1*_10
REMARK    2  A    between atoms: C_7  and  C_20
REMARK    3  A    between atoms: C4*_12  and  C5*_15
REMARK    4  A    between atoms: C3*_13  and  O3*_18
REMARK    5  A    between atoms: C5*_15  and  O5*_16
REMARK                            x       y       z     vdW  Elec       q    Type
REMARK                         _______ _______ _______ _____ _____    ______ ____
ROOT
ATOM      1  O   UNL     1      -5.605  10.010   6.301  0.00  0.00    +0.000 OA
ATOM      2  O   UNL     1      -7.994   6.302   5.034  0.00  0.00    +0.000 OA
ATOM      3  N   UNL     1      -6.223   8.457   7.979  0.00  0.00    +0.000 N 
ATOM      4  N   UNL     1      -6.793   8.131   5.728  0.00  0.00    +0.000 N 
ATOM      5  C   UNL     1      -6.878   7.289   8.137  0.00  0.00    +0.000 A 
ATOM      6  C   UNL     1      -6.145   8.971   6.664  0.00  0.00    +0.000 A 
ATOM      7  C   UNL     1      -7.495   6.464   7.358  0.00  0.00    +0.000 A 
ATOM      8  C   UNL     1      -7.468   6.923   5.947  0.00  0.00    +0.000 A 
ATOM      9  H   UNL     1      -6.768   8.456   4.772  0.00  0.00    +0.000 HD
ENDROOT
BRANCH   3  10
ATOM     10  C1* UNL     1      -5.687   9.073   9.073  0.00  0.00    +0.000 A 
ATOM     11  O4* UNL     1      -6.483   9.558  10.117  0.00  0.00    +0.000 OA
ATOM     12  C4* UNL     1      -5.618  10.146  11.049  0.00  0.00    +0.000 A 
ATOM     13  C3* UNL     1      -4.262  10.020  10.578  0.00  0.00    +0.000 A 
ATOM     14  C2* UNL     1      -4.333   9.356   9.340  0.00  0.00    +0.000 A 
BRANCH  13  15
ATOM     15  O3* UNL     1      -3.319  10.957  10.892  0.00  0.00    +0.000 OA
ATOM     16  H3* UNL     1      -2.969  11.383  10.089  0.00  0.00    +0.000 HD
ENDBRANCH  13  15
BRANCH  12  17
ATOM     17  C5* UNL     1      -6.085  10.921  12.129  0.00  0.00    +0.000 C 
BRANCH  17  18
ATOM     18  O5* UNL     1      -6.530  11.652  13.146  0.00  0.00    +0.000 OA
ATOM     19  H5* UNL     1      -6.883  12.498  12.822  0.00  0.00    +0.000 HD
ENDBRANCH  17  18
ENDBRANCH  12  17
ENDBRANCH   3  10
BRANCH   7  20
ATOM     20  C   UNL     1      -8.203   5.216   7.673  0.00  0.00    +0.000 C 
ATOM     21  F   UNL     1      -9.477   5.207   7.207  0.00  0.00    +0.000 F 
ATOM     22  F   UNL     1      -7.590   4.136   7.115  0.00  0.00    +0.000 F 
ATOM     23  F   UNL     1      -8.255   4.970   9.006  0.00  0.00    +0.000 F 
ENDBRANCH   7  20
TORSDOF 5
ENDMDL
