MODEL 1
REMARK VINA RESULT:      -6.8      0.000      0.000
REMARK  Name = Troglitazone.pdbqt.pdb
REMARK  4 active torsions:
REMARK  status: ('A' for Active; 'I' for Inactive)
REMARK    1  A    between atoms: C_1  and  O_2
REMARK    2  A    between atoms: C_1  and  C_18
REMARK    3  A    between atoms: O_2  and  C_3
REMARK    4  A    between atoms: C_26  and  O_32
REMARK                            x       y       z     vdW  Elec       q    Type
REMARK                         _______ _______ _______ _____ _____    ______ ____
ROOT
ATOM      1  C   UNL     1     -10.628 -18.445   9.008  0.00  0.00    +0.000 C 
ENDROOT
BRANCH   1   2
ATOM      2  C   UNL     1     -11.003 -17.063   9.353  0.00  0.00    +0.000 C 
ATOM      3  O   UNL     1     -11.748 -17.120  10.623  0.00  0.00    +0.000 OA
ATOM      4  C   UNL     1     -12.795 -16.248  10.946  0.00  0.00    +0.000 A 
ATOM      5  C   UNL     1     -13.546 -15.514   9.981  0.00  0.00    +0.000 A 
ATOM      6  C   UNL     1     -13.146 -16.152  12.309  0.00  0.00    +0.000 A 
ATOM      7  C   UNL     1     -13.118 -15.699   8.641  0.00  0.00    +0.000 C 
ATOM      8  C   UNL     1     -14.605 -14.680  10.360  0.00  0.00    +0.000 A 
ATOM      9  C   UNL     1     -11.873 -16.467   8.347  0.00  0.00    +0.000 C 
ATOM     10  C   UNL     1     -14.933 -14.578  11.720  0.00  0.00    +0.000 A 
ATOM     11  C   UNL     1     -15.386 -13.912   9.314  0.00  0.00    +0.000 C 
ATOM     12  C   UNL     1     -14.212 -15.307  12.689  0.00  0.00    +0.000 A 
ATOM     13  C   UNL     1     -14.670 -15.130  14.137  0.00  0.00    +0.000 C 
ATOM     14  C   UNL     1     -12.370 -16.978  13.327  0.00  0.00    +0.000 C 
ATOM     15  C   UNL     1      -9.756 -16.180   9.606  0.00  0.00    +0.000 C 
BRANCH  10  16
ATOM     16  O   UNL     1     -15.978 -13.761  12.121  0.00  0.00    +0.000 OA
ATOM     17  H   UNL     1     -15.735 -12.831  11.918  0.00  0.00    +0.000 HD
ENDBRANCH  10  16
ENDBRANCH   1   2
BRANCH   1  18
ATOM     18  O   UNL     1     -10.286 -19.698   8.707  0.00  0.00    +0.000 OA
BRANCH  18  19
ATOM     19  C   UNL     1      -9.103 -19.819   8.019  0.00  0.00    +0.000 C 
ATOM     20  C   UNL     1      -8.988 -20.344   6.730  0.00  0.00    +0.000 C 
ATOM     21  C   UNL     1      -7.743 -20.419   6.112  0.00  0.00    +0.000 C 
ATOM     22  C   UNL     1      -6.609 -19.970   6.782  0.00  0.00    +0.000 C 
ATOM     23  C   UNL     1      -6.716 -19.446   8.069  0.00  0.00    +0.000 C 
ATOM     24  C   UNL     1      -7.964 -19.369   8.685  0.00  0.00    +0.000 C 
ATOM     25  C   UNL     1      -5.334 -20.044   6.151  0.00  0.00    +0.000 C 
ATOM     26  C   UNL     1      -4.066 -20.123   5.534  0.00  0.00    +0.000 C 
ATOM     27  S   UNL     1      -3.757 -19.798   3.871  0.00  0.00    +0.000 S 
ATOM     28  C   UNL     1      -2.045 -20.124   4.055  0.00  0.00    +0.000 C 
ATOM     29  O   UNL     1      -1.230 -20.046   3.152  0.00  0.00    +0.000 OA
ATOM     30  N   UNL     1      -1.777 -20.465   5.340  0.00  0.00    +0.000 N 
ATOM     31  C   UNL     1      -2.812 -20.487   6.227  0.00  0.00    +0.000 C 
ATOM     32  H   UNL     1      -0.837 -20.683   5.631  0.00  0.00    +0.000 HD
ATOM     33  O   UNL     1      -2.712 -20.760   7.411  0.00  0.00    +0.000 OA
ENDBRANCH  18  19
ENDBRANCH   1  18
TORSDOF 4
ENDMDL
MODEL 2
REMARK VINA RESULT:      -6.6      5.945     10.811
REMARK  Name = Troglitazone.pdbqt.pdb
REMARK  4 active torsions:
REMARK  status: ('A' for Active; 'I' for Inactive)
REMARK    1  A    between atoms: C_1  and  O_2
REMARK    2  A    between atoms: C_1  and  C_18
REMARK    3  A    between atoms: O_2  and  C_3
REMARK    4  A    between atoms: C_26  and  O_32
REMARK                            x       y       z     vdW  Elec       q    Type
REMARK                         _______ _______ _______ _____ _____    ______ ____
ROOT
ATOM      1  C   UNL     1      -8.874 -17.128   6.848  0.00  0.00    +0.000 C 
ENDROOT
BRANCH   1   2
ATOM      2  C   UNL     1      -9.182 -16.538   5.534  0.00  0.00    +0.000 C 
ATOM      3  O   UNL     1      -8.045 -16.838   4.647  0.00  0.00    +0.000 OA
ATOM      4  C   UNL     1      -7.612 -15.979   3.629  0.00  0.00    +0.000 A 
ATOM      5  C   UNL     1      -7.896 -14.582   3.590  0.00  0.00    +0.000 A 
ATOM      6  C   UNL     1      -6.796 -16.543   2.625  0.00  0.00    +0.000 A 
ATOM      7  C   UNL     1      -8.710 -14.120   4.658  0.00  0.00    +0.000 C 
ATOM      8  C   UNL     1      -7.409 -13.765   2.564  0.00  0.00    +0.000 A 
ATOM      9  C   UNL     1      -9.328 -15.090   5.608  0.00  0.00    +0.000 C 
ATOM     10  C   UNL     1      -6.614 -14.340   1.560  0.00  0.00    +0.000 A 
ATOM     11  C   UNL     1      -7.727 -12.284   2.546  0.00  0.00    +0.000 C 
ATOM     12  C   UNL     1      -6.307 -15.717   1.589  0.00  0.00    +0.000 A 
ATOM     13  C   UNL     1      -5.420 -16.228   0.454  0.00  0.00    +0.000 C 
ATOM     14  C   UNL     1      -6.456 -18.026   2.703  0.00  0.00    +0.000 C 
ATOM     15  C   UNL     1     -10.432 -17.192   4.895  0.00  0.00    +0.000 C 
BRANCH  10  16
ATOM     16  O   UNL     1      -6.117 -13.553   0.534  0.00  0.00    +0.000 OA
ATOM     17  H   UNL     1      -6.138 -12.616   0.829  0.00  0.00    +0.000 HD
ENDBRANCH  10  16
ENDBRANCH   1   2
BRANCH   1  18
ATOM     18  O   UNL     1      -8.584 -17.657   8.038  0.00  0.00    +0.000 OA
BRANCH  18  19
ATOM     19  C   UNL     1      -9.467 -17.335   9.038  0.00  0.00    +0.000 C 
ATOM     20  C   UNL     1      -9.685 -16.040   9.514  0.00  0.00    +0.000 C 
ATOM     21  C   UNL     1     -10.609 -15.812  10.531  0.00  0.00    +0.000 C 
ATOM     22  C   UNL     1     -11.318 -16.880  11.074  0.00  0.00    +0.000 C 
ATOM     23  C   UNL     1     -11.106 -18.174  10.604  0.00  0.00    +0.000 C 
ATOM     24  C   UNL     1     -10.181 -18.400   9.586  0.00  0.00    +0.000 C 
ATOM     25  C   UNL     1     -12.265 -16.649  12.112  0.00  0.00    +0.000 C 
ATOM     26  C   UNL     1     -13.200 -16.428  13.148  0.00  0.00    +0.000 C 
ATOM     27  S   UNL     1     -14.281 -15.089  13.231  0.00  0.00    +0.000 S 
ATOM     28  C   UNL     1     -14.978 -15.658  14.735  0.00  0.00    +0.000 C 
ATOM     29  O   UNL     1     -15.874 -15.090  15.335  0.00  0.00    +0.000 OA
ATOM     30  N   UNL     1     -14.376 -16.814  15.113  0.00  0.00    +0.000 N 
ATOM     31  C   UNL     1     -13.398 -17.320  14.309  0.00  0.00    +0.000 C 
ATOM     32  H   UNL     1     -14.655 -17.288  15.957  0.00  0.00    +0.000 HD
ATOM     33  O   UNL     1     -12.787 -18.354  14.520  0.00  0.00    +0.000 OA
ENDBRANCH  18  19
ENDBRANCH   1  18
TORSDOF 4
ENDMDL
MODEL 3
REMARK VINA RESULT:      -6.3     23.656     26.419
REMARK  Name = Troglitazone.pdbqt.pdb
REMARK  4 active torsions:
REMARK  status: ('A' for Active; 'I' for Inactive)
REMARK    1  A    between atoms: C_1  and  O_2
REMARK    2  A    between atoms: C_1  and  C_18
REMARK    3  A    between atoms: O_2  and  C_3
REMARK    4  A    between atoms: C_26  and  O_32
REMARK                            x       y       z     vdW  Elec       q    Type
REMARK                         _______ _______ _______ _____ _____    ______ ____
ROOT
ATOM      1  C   UNL     1      -9.940   3.488  25.832  0.00  0.00    +0.000 C 
ENDROOT
BRANCH   1   2
ATOM      2  C   UNL     1     -10.126   2.297  26.678  0.00  0.00    +0.000 C 
ATOM      3  O   UNL     1      -8.811   1.961  27.250  0.00  0.00    +0.000 OA
ATOM      4  C   UNL     1      -8.396   0.651  27.516  0.00  0.00    +0.000 A 
ATOM      5  C   UNL     1      -8.962  -0.505  26.902  0.00  0.00    +0.000 A 
ATOM      6  C   UNL     1      -7.312   0.496  28.405  0.00  0.00    +0.000 A 
ATOM      7  C   UNL     1     -10.034  -0.230  26.013  0.00  0.00    +0.000 C 
ATOM      8  C   UNL     1      -8.484  -1.791  27.183  0.00  0.00    +0.000 A 
ATOM      9  C   UNL     1     -10.590   1.150  25.908  0.00  0.00    +0.000 C 
ATOM     10  C   UNL     1      -7.417  -1.934  28.084  0.00  0.00    +0.000 A 
ATOM     11  C   UNL     1      -9.104  -3.001  26.517  0.00  0.00    +0.000 C 
ATOM     12  C   UNL     1      -6.833  -0.803  28.690  0.00  0.00    +0.000 A 
ATOM     13  C   UNL     1      -5.668  -1.080  29.640  0.00  0.00    +0.000 C 
ATOM     14  C   UNL     1      -6.680   1.740  29.018  0.00  0.00    +0.000 C 
ATOM     15  C   UNL     1     -11.071   2.587  27.870  0.00  0.00    +0.000 C 
BRANCH  10  16
ATOM     16  O   UNL     1      -6.925  -3.195  28.378  0.00  0.00    +0.000 OA
ATOM     17  H   UNL     1      -6.931  -3.727  27.552  0.00  0.00    +0.000 HD
ENDBRANCH  10  16
ENDBRANCH   1   2
BRANCH   1  18
ATOM     18  O   UNL     1      -9.759   4.567  25.068  0.00  0.00    +0.000 OA
BRANCH  18  19
ATOM     19  C   UNL     1     -10.310   4.478  23.813  0.00  0.00    +0.000 C 
ATOM     20  C   UNL     1     -11.681   4.426  23.553  0.00  0.00    +0.000 C 
ATOM     21  C   UNL     1     -12.145   4.343  22.243  0.00  0.00    +0.000 C 
ATOM     22  C   UNL     1     -11.236   4.313  21.188  0.00  0.00    +0.000 C 
ATOM     23  C   UNL     1      -9.867   4.365  21.440  0.00  0.00    +0.000 C 
ATOM     24  C   UNL     1      -9.405   4.448  22.752  0.00  0.00    +0.000 C 
ATOM     25  C   UNL     1     -11.708   4.230  19.847  0.00  0.00    +0.000 C 
ATOM     26  C   UNL     1     -12.169   4.140  18.514  0.00  0.00    +0.000 C 
ATOM     27  S   UNL     1     -13.547   4.964  17.890  0.00  0.00    +0.000 S 
ATOM     28  C   UNL     1     -13.313   4.285  16.292  0.00  0.00    +0.000 C 
ATOM     29  O   UNL     1     -14.028   4.522  15.333  0.00  0.00    +0.000 OA
ATOM     30  N   UNL     1     -12.227   3.472  16.291  0.00  0.00    +0.000 N 
ATOM     31  C   UNL     1     -11.529   3.333  17.454  0.00  0.00    +0.000 C 
ATOM     32  H   UNL     1     -11.938   2.998  15.450  0.00  0.00    +0.000 HD
ATOM     33  O   UNL     1     -10.529   2.650  17.591  0.00  0.00    +0.000 OA
ENDBRANCH  18  19
ENDBRANCH   1  18
TORSDOF 4
ENDMDL
MODEL 4
REMARK VINA RESULT:      -6.2      2.609      4.719
REMARK  Name = Troglitazone.pdbqt.pdb
REMARK  4 active torsions:
REMARK  status: ('A' for Active; 'I' for Inactive)
REMARK    1  A    between atoms: C_1  and  O_2
REMARK    2  A    between atoms: C_1  and  C_18
REMARK    3  A    between atoms: O_2  and  C_3
REMARK    4  A    between atoms: C_26  and  O_32
REMARK                            x       y       z     vdW  Elec       q    Type
REMARK                         _______ _______ _______ _____ _____    ______ ____
ROOT
ATOM      1  C   UNL     1     -12.897 -16.725  11.234  0.00  0.00    +0.000 C 
ENDROOT
BRANCH   1   2
ATOM      2  C   UNL     1     -13.600 -17.405  12.335  0.00  0.00    +0.000 C 
ATOM      3  O   UNL     1     -14.448 -16.398  12.995  0.00  0.00    +0.000 OA
ATOM      4  C   UNL     1     -14.727 -16.402  14.368  0.00  0.00    +0.000 A 
ATOM      5  C   UNL     1     -13.927 -17.068  15.342  0.00  0.00    +0.000 A 
ATOM      6  C   UNL     1     -15.839 -15.644  14.793  0.00  0.00    +0.000 A 
ATOM      7  C   UNL     1     -12.826 -17.784  14.804  0.00  0.00    +0.000 C 
ATOM      8  C   UNL     1     -14.236 -17.011  16.706  0.00  0.00    +0.000 A 
ATOM      9  C   UNL     1     -12.673 -17.935  13.327  0.00  0.00    +0.000 C 
ATOM     10  C   UNL     1     -15.355 -16.270  17.115  0.00  0.00    +0.000 A 
ATOM     11  C   UNL     1     -13.369 -17.728  17.719  0.00  0.00    +0.000 C 
ATOM     12  C   UNL     1     -16.151 -15.590  16.169  0.00  0.00    +0.000 A 
ATOM     13  C   UNL     1     -17.334 -14.802  16.733  0.00  0.00    +0.000 C 
ATOM     14  C   UNL     1     -16.659 -14.894  13.750  0.00  0.00    +0.000 C 
ATOM     15  C   UNL     1     -14.547 -18.512  11.809  0.00  0.00    +0.000 C 
BRANCH  10  16
ATOM     16  O   UNL     1     -15.682 -16.195  18.460  0.00  0.00    +0.000 OA
ATOM     17  H   UNL     1     -15.379 -15.325  18.801  0.00  0.00    +0.000 HD
ENDBRANCH  10  16
ENDBRANCH   1   2
BRANCH   1  18
ATOM     18  O   UNL     1     -12.262 -16.117  10.231  0.00  0.00    +0.000 OA
BRANCH  18  19
ATOM     19  C   UNL     1     -11.307 -16.883   9.609  0.00  0.00    +0.000 C 
ATOM     20  C   UNL     1     -11.502 -18.201   9.188  0.00  0.00    +0.000 C 
ATOM     21  C   UNL     1     -10.473 -18.896   8.558  0.00  0.00    +0.000 C 
ATOM     22  C   UNL     1      -9.245 -18.274   8.349  0.00  0.00    +0.000 C 
ATOM     23  C   UNL     1      -9.044 -16.960   8.766  0.00  0.00    +0.000 C 
ATOM     24  C   UNL     1     -10.075 -16.266   9.395  0.00  0.00    +0.000 C 
ATOM     25  C   UNL     1      -8.191 -18.982   7.703  0.00  0.00    +0.000 C 
ATOM     26  C   UNL     1      -7.139 -19.682   7.071  0.00  0.00    +0.000 C 
ATOM     27  S   UNL     1      -7.330 -20.752   5.735  0.00  0.00    +0.000 S 
ATOM     28  C   UNL     1      -5.611 -21.083   5.668  0.00  0.00    +0.000 C 
ATOM     29  O   UNL     1      -5.085 -21.826   4.855  0.00  0.00    +0.000 OA
ATOM     30  N   UNL     1      -4.970 -20.392   6.643  0.00  0.00    +0.000 N 
ATOM     31  C   UNL     1      -5.715 -19.591   7.457  0.00  0.00    +0.000 C 
ATOM     32  H   UNL     1      -3.970 -20.458   6.751  0.00  0.00    +0.000 HD
ATOM     33  O   UNL     1      -5.269 -18.905   8.361  0.00  0.00    +0.000 OA
ENDBRANCH  18  19
ENDBRANCH   1  18
TORSDOF 4
ENDMDL
MODEL 5
REMARK VINA RESULT:      -6.2      6.888      9.478
REMARK  Name = Troglitazone.pdbqt.pdb
REMARK  4 active torsions:
REMARK  status: ('A' for Active; 'I' for Inactive)
REMARK    1  A    between atoms: C_1  and  O_2
REMARK    2  A    between atoms: C_1  and  C_18
REMARK    3  A    between atoms: O_2  and  C_3
REMARK    4  A    between atoms: C_26  and  O_32
REMARK                            x       y       z     vdW  Elec       q    Type
REMARK                         _______ _______ _______ _____ _____    ______ ____
ROOT
ATOM      1  C   UNL     1     -16.380 -13.594   6.564  0.00  0.00    +0.000 C 
ENDROOT
BRANCH   1   2
ATOM      2  C   UNL     1     -15.982 -14.737   7.405  0.00  0.00    +0.000 C 
ATOM      3  O   UNL     1     -15.983 -14.268   8.801  0.00  0.00    +0.000 OA
ATOM      4  C   UNL     1     -15.093 -14.738   9.775  0.00  0.00    +0.000 A 
ATOM      5  C   UNL     1     -13.846 -15.364   9.480  0.00  0.00    +0.000 A 
ATOM      6  C   UNL     1     -15.448 -14.514  11.122  0.00  0.00    +0.000 A 
ATOM      7  C   UNL     1     -13.585 -15.523   8.094  0.00  0.00    +0.000 C 
ATOM      8  C   UNL     1     -12.981 -15.786  10.496  0.00  0.00    +0.000 A 
ATOM      9  C   UNL     1     -14.639 -15.204   7.087  0.00  0.00    +0.000 C 
ATOM     10  C   UNL     1     -13.352 -15.574  11.833  0.00  0.00    +0.000 A 
ATOM     11  C   UNL     1     -11.663 -16.448  10.154  0.00  0.00    +0.000 C 
ATOM     12  C   UNL     1     -14.574 -14.942  12.146  0.00  0.00    +0.000 A 
ATOM     13  C   UNL     1     -14.865 -14.750  13.635  0.00  0.00    +0.000 C 
ATOM     14  C   UNL     1     -16.758 -13.798  11.427  0.00  0.00    +0.000 C 
ATOM     15  C   UNL     1     -17.009 -15.892   7.320  0.00  0.00    +0.000 C 
BRANCH  10  16
ATOM     16  O   UNL     1     -12.513 -15.980  12.857  0.00  0.00    +0.000 OA
ATOM     17  H   UNL     1     -12.233 -15.183  13.358  0.00  0.00    +0.000 HD
ENDBRANCH  10  16
ENDBRANCH   1   2
BRANCH   1  18
ATOM     18  O   UNL     1     -16.736 -12.553   5.811  0.00  0.00    +0.000 OA
BRANCH  18  19
ATOM     19  C   UNL     1     -15.752 -12.086   4.976  0.00  0.00    +0.000 C 
ATOM     20  C   UNL     1     -15.092 -12.861   4.021  0.00  0.00    +0.000 C 
ATOM     21  C   UNL     1     -14.109 -12.294   3.213  0.00  0.00    +0.000 C 
ATOM     22  C   UNL     1     -13.784 -10.949   3.360  0.00  0.00    +0.000 C 
ATOM     23  C   UNL     1     -14.438 -10.169   4.312  0.00  0.00    +0.000 C 
ATOM     24  C   UNL     1     -15.422 -10.738   5.118  0.00  0.00    +0.000 C 
ATOM     25  C   UNL     1     -12.780 -10.366   2.535  0.00  0.00    +0.000 C 
ATOM     26  C   UNL     1     -11.779  -9.784   1.724  0.00  0.00    +0.000 C 
ATOM     27  S   UNL     1     -11.551 -10.117   0.050  0.00  0.00    +0.000 S 
ATOM     28  C   UNL     1     -10.200  -9.005  -0.055  0.00  0.00    +0.000 C 
ATOM     29  O   UNL     1      -9.571  -8.783  -1.076  0.00  0.00    +0.000 OA
ATOM     30  N   UNL     1      -9.973  -8.440   1.157  0.00  0.00    +0.000 N 
ATOM     31  C   UNL     1     -10.787  -8.795   2.192  0.00  0.00    +0.000 C 
ATOM     32  H   UNL     1      -9.232  -7.769   1.283  0.00  0.00    +0.000 HD
ATOM     33  O   UNL     1     -10.705  -8.355   3.326  0.00  0.00    +0.000 OA
ENDBRANCH  18  19
ENDBRANCH   1  18
TORSDOF 4
ENDMDL
MODEL 6
REMARK VINA RESULT:      -5.9      6.866     10.668
REMARK  Name = Troglitazone.pdbqt.pdb
REMARK  4 active torsions:
REMARK  status: ('A' for Active; 'I' for Inactive)
REMARK    1  A    between atoms: C_1  and  O_2
REMARK    2  A    between atoms: C_1  and  C_18
REMARK    3  A    between atoms: O_2  and  C_3
REMARK    4  A    between atoms: C_26  and  O_32
REMARK                            x       y       z     vdW  Elec       q    Type
REMARK                         _______ _______ _______ _____ _____    ______ ____
ROOT
ATOM      1  C   UNL     1     -16.399 -12.659   4.167  0.00  0.00    +0.000 C 
ENDROOT
BRANCH   1   2
ATOM      2  C   UNL     1     -16.184 -11.280   3.696  0.00  0.00    +0.000 C 
ATOM      3  O   UNL     1     -14.734 -11.112   3.495  0.00  0.00    +0.000 OA
ATOM      4  C   UNL     1     -14.058  -9.904   3.711  0.00  0.00    +0.000 A 
ATOM      5  C   UNL     1     -14.555  -8.849   4.531  0.00  0.00    +0.000 A 
ATOM      6  C   UNL     1     -12.785  -9.773   3.117  0.00  0.00    +0.000 A 
ATOM      7  C   UNL     1     -15.835  -9.096   5.091  0.00  0.00    +0.000 C 
ATOM      8  C   UNL     1     -13.820  -7.675   4.737  0.00  0.00    +0.000 A 
ATOM      9  C   UNL     1     -16.620 -10.296   4.679  0.00  0.00    +0.000 C 
ATOM     10  C   UNL     1     -12.563  -7.548   4.126  0.00  0.00    +0.000 A 
ATOM     11  C   UNL     1     -14.371  -6.570   5.613  0.00  0.00    +0.000 C 
ATOM     12  C   UNL     1     -12.047  -8.587   3.323  0.00  0.00    +0.000 A 
ATOM     13  C   UNL     1     -10.662  -8.343   2.723  0.00  0.00    +0.000 C 
ATOM     14  C   UNL     1     -12.241 -10.927   2.283  0.00  0.00    +0.000 C 
ATOM     15  C   UNL     1     -16.857 -11.034   2.324  0.00  0.00    +0.000 C 
BRANCH  10  16
ATOM     16  O   UNL     1     -11.815  -6.397   4.315  0.00  0.00    +0.000 OA
ATOM     17  H   UNL     1     -10.961  -6.506   3.843  0.00  0.00    +0.000 HD
ENDBRANCH  10  16
ENDBRANCH   1   2
BRANCH   1  18
ATOM     18  O   UNL     1     -16.595 -13.911   4.582  0.00  0.00    +0.000 OA
BRANCH  18  19
ATOM     19  C   UNL     1     -15.960 -14.232   5.756  0.00  0.00    +0.000 C 
ATOM     20  C   UNL     1     -16.404 -13.852   7.025  0.00  0.00    +0.000 C 
ATOM     21  C   UNL     1     -15.694 -14.232   8.161  0.00  0.00    +0.000 C 
ATOM     22  C   UNL     1     -14.535 -14.993   8.030  0.00  0.00    +0.000 C 
ATOM     23  C   UNL     1     -14.085 -15.374   6.767  0.00  0.00    +0.000 C 
ATOM     24  C   UNL     1     -14.799 -14.994   5.632  0.00  0.00    +0.000 C 
ATOM     25  C   UNL     1     -13.808 -15.384   9.190  0.00  0.00    +0.000 C 
ATOM     26  C   UNL     1     -13.077 -15.768  10.337  0.00  0.00    +0.000 C 
ATOM     27  S   UNL     1     -13.776 -16.275  11.827  0.00  0.00    +0.000 S 
ATOM     28  C   UNL     1     -12.202 -16.527  12.557  0.00  0.00    +0.000 C 
ATOM     29  O   UNL     1     -12.030 -16.926  13.696  0.00  0.00    +0.000 OA
ATOM     30  N   UNL     1     -11.227 -16.219  11.666  0.00  0.00    +0.000 N 
ATOM     31  C   UNL     1     -11.602 -15.802  10.423  0.00  0.00    +0.000 C 
ATOM     32  H   UNL     1     -10.254 -16.309  11.914  0.00  0.00    +0.000 HD
ATOM     33  O   UNL     1     -10.832 -15.508   9.524  0.00  0.00    +0.000 OA
ENDBRANCH  18  19
ENDBRANCH   1  18
TORSDOF 4
ENDMDL
MODEL 7
REMARK VINA RESULT:      -5.9      6.503     10.804
REMARK  Name = Troglitazone.pdbqt.pdb
REMARK  4 active torsions:
REMARK  status: ('A' for Active; 'I' for Inactive)
REMARK    1  A    between atoms: C_1  and  O_2
REMARK    2  A    between atoms: C_1  and  C_18
REMARK    3  A    between atoms: O_2  and  C_3
REMARK    4  A    between atoms: C_26  and  O_32
REMARK                            x       y       z     vdW  Elec       q    Type
REMARK                         _______ _______ _______ _____ _____    ______ ____
ROOT
ATOM      1  C   UNL     1     -14.507 -18.219  13.425  0.00  0.00    +0.000 C 
ENDROOT
BRANCH   1   2
ATOM      2  C   UNL     1     -14.006 -17.936  12.069  0.00  0.00    +0.000 C 
ATOM      3  O   UNL     1     -12.889 -18.863  11.817  0.00  0.00    +0.000 OA
ATOM      4  C   UNL     1     -11.774 -18.536  11.037  0.00  0.00    +0.000 A 
ATOM      5  C   UNL     1     -11.361 -17.199  10.758  0.00  0.00    +0.000 A 
ATOM      6  C   UNL     1     -10.995 -19.610  10.559  0.00  0.00    +0.000 A 
ATOM      7  C   UNL     1     -12.208 -16.199  11.303  0.00  0.00    +0.000 C 
ATOM      8  C   UNL     1     -10.216 -16.931   9.998  0.00  0.00    +0.000 A 
ATOM      9  C   UNL     1     -13.499 -16.575  11.949  0.00  0.00    +0.000 C 
ATOM     10  C   UNL     1      -9.459 -18.008   9.511  0.00  0.00    +0.000 A 
ATOM     11  C   UNL     1      -9.801 -15.503   9.717  0.00  0.00    +0.000 C 
ATOM     12  C   UNL     1      -9.842 -19.338   9.789  0.00  0.00    +0.000 A 
ATOM     13  C   UNL     1      -8.932 -20.428   9.222  0.00  0.00    +0.000 C 
ATOM     14  C   UNL     1     -11.415 -21.033  10.904  0.00  0.00    +0.000 C 
ATOM     15  C   UNL     1     -15.081 -18.227  10.992  0.00  0.00    +0.000 C 
BRANCH  10  16
ATOM     16  O   UNL     1      -8.321 -17.770   8.758  0.00  0.00    +0.000 OA
ATOM     17  H   UNL     1      -8.513 -17.032   8.139  0.00  0.00    +0.000 HD
ENDBRANCH  10  16
ENDBRANCH   1   2
BRANCH   1  18
ATOM     18  O   UNL     1     -14.954 -18.485  14.653  0.00  0.00    +0.000 OA
BRANCH  18  19
ATOM     19  C   UNL     1     -13.979 -18.542  15.618  0.00  0.00    +0.000 C 
ATOM     20  C   UNL     1     -12.717 -19.110  15.434  0.00  0.00    +0.000 C 
ATOM     21  C   UNL     1     -11.790 -19.114  16.474  0.00  0.00    +0.000 C 
ATOM     22  C   UNL     1     -12.125 -18.548  17.701  0.00  0.00    +0.000 C 
ATOM     23  C   UNL     1     -13.383 -17.980  17.891  0.00  0.00    +0.000 C 
ATOM     24  C   UNL     1     -14.308 -17.976  16.850  0.00  0.00    +0.000 C 
ATOM     25  C   UNL     1     -11.178 -18.550  18.765  0.00  0.00    +0.000 C 
ATOM     26  C   UNL     1     -10.247 -18.555  19.828  0.00  0.00    +0.000 C 
ATOM     27  S   UNL     1      -8.556 -18.277  19.657  0.00  0.00    +0.000 S 
ATOM     28  C   UNL     1      -8.283 -18.459  21.378  0.00  0.00    +0.000 C 
ATOM     29  O   UNL     1      -7.194 -18.356  21.916  0.00  0.00    +0.000 OA
ATOM     30  N   UNL     1      -9.457 -18.724  22.005  0.00  0.00    +0.000 N 
ATOM     31  C   UNL     1     -10.588 -18.788  21.246  0.00  0.00    +0.000 C 
ATOM     32  H   UNL     1      -9.491 -18.854  23.003  0.00  0.00    +0.000 HD
ATOM     33  O   UNL     1     -11.708 -19.003  21.679  0.00  0.00    +0.000 OA
ENDBRANCH  18  19
ENDBRANCH   1  18
TORSDOF 4
ENDMDL
MODEL 8
REMARK VINA RESULT:      -5.9     26.847     29.368
REMARK  Name = Troglitazone.pdbqt.pdb
REMARK  4 active torsions:
REMARK  status: ('A' for Active; 'I' for Inactive)
REMARK    1  A    between atoms: C_1  and  O_2
REMARK    2  A    between atoms: C_1  and  C_18
REMARK    3  A    between atoms: O_2  and  C_3
REMARK    4  A    between atoms: C_26  and  O_32
REMARK                            x       y       z     vdW  Elec       q    Type
REMARK                         _______ _______ _______ _____ _____    ______ ____
ROOT
ATOM      1  C   UNL     1       4.040   7.051  19.884  0.00  0.00    +0.000 C 
ENDROOT
BRANCH   1   2
ATOM      2  C   UNL     1       4.655   5.713  19.893  0.00  0.00    +0.000 C 
ATOM      3  O   UNL     1       4.724   5.258  18.494  0.00  0.00    +0.000 OA
ATOM      4  C   UNL     1       4.594   3.918  18.110  0.00  0.00    +0.000 A 
ATOM      5  C   UNL     1       3.969   2.917  18.910  0.00  0.00    +0.000 A 
ATOM      6  C   UNL     1       5.064   3.576  16.824  0.00  0.00    +0.000 A 
ATOM      7  C   UNL     1       3.518   3.375  20.175  0.00  0.00    +0.000 C 
ATOM      8  C   UNL     1       3.838   1.597  18.460  0.00  0.00    +0.000 A 
ATOM      9  C   UNL     1       3.856   4.752  20.642  0.00  0.00    +0.000 C 
ATOM     10  C   UNL     1       4.326   1.265  17.187  0.00  0.00    +0.000 A 
ATOM     11  C   UNL     1       3.170   0.554  19.331  0.00  0.00    +0.000 C 
ATOM     12  C   UNL     1       4.933   2.244  16.373  0.00  0.00    +0.000 A 
ATOM     13  C   UNL     1       5.412   1.770  15.001  0.00  0.00    +0.000 C 
ATOM     14  C   UNL     1       5.684   4.664  15.956  0.00  0.00    +0.000 C 
ATOM     15  C   UNL     1       6.111   5.759  20.421  0.00  0.00    +0.000 C 
BRANCH  10  16
ATOM     16  O   UNL     1       4.207  -0.033  16.717  0.00  0.00    +0.000 OA
ATOM     17  H   UNL     1       3.271  -0.180  16.458  0.00  0.00    +0.000 HD
ENDBRANCH  10  16
ENDBRANCH   1   2
BRANCH   1  18
ATOM     18  O   UNL     1       3.486   8.265  19.886  0.00  0.00    +0.000 OA
BRANCH  18  19
ATOM     19  C   UNL     1       2.243   8.328  19.307  0.00  0.00    +0.000 C 
ATOM     20  C   UNL     1       1.547   9.513  19.055  0.00  0.00    +0.000 C 
ATOM     21  C   UNL     1       0.290   9.475  18.456  0.00  0.00    +0.000 C 
ATOM     22  C   UNL     1      -0.274   8.251  18.108  0.00  0.00    +0.000 C 
ATOM     23  C   UNL     1       0.415   7.066  18.356  0.00  0.00    +0.000 C 
ATOM     24  C   UNL     1       1.672   7.105  18.954  0.00  0.00    +0.000 C 
ATOM     25  C   UNL     1      -1.558   8.211  17.494  0.00  0.00    +0.000 C 
ATOM     26  C   UNL     1      -2.836   8.163  16.892  0.00  0.00    +0.000 C 
ATOM     27  S   UNL     1      -3.407   9.271  15.703  0.00  0.00    +0.000 S 
ATOM     28  C   UNL     1      -4.950   8.449  15.581  0.00  0.00    +0.000 C 
ATOM     29  O   UNL     1      -5.852   8.788  14.834  0.00  0.00    +0.000 OA
ATOM     30  N   UNL     1      -4.977   7.392  16.432  0.00  0.00    +0.000 N 
ATOM     31  C   UNL     1      -3.868   7.147  17.185  0.00  0.00    +0.000 C 
ATOM     32  H   UNL     1      -5.790   6.799  16.492  0.00  0.00    +0.000 HD
ATOM     33  O   UNL     1      -3.751   6.226  17.976  0.00  0.00    +0.000 OA
ENDBRANCH  18  19
ENDBRANCH   1  18
TORSDOF 4
ENDMDL
MODEL 9
REMARK VINA RESULT:      -5.8      4.865     10.881
REMARK  Name = Troglitazone.pdbqt.pdb
REMARK  4 active torsions:
REMARK  status: ('A' for Active; 'I' for Inactive)
REMARK    1  A    between atoms: C_1  and  O_2
REMARK    2  A    between atoms: C_1  and  C_18
REMARK    3  A    between atoms: O_2  and  C_3
REMARK    4  A    between atoms: C_26  and  O_32
REMARK                            x       y       z     vdW  Elec       q    Type
REMARK                         _______ _______ _______ _____ _____    ______ ____
ROOT
ATOM      1  C   UNL     1      -8.307 -18.447   7.694  0.00  0.00    +0.000 C 
ENDROOT
BRANCH   1   2
ATOM      2  C   UNL     1      -7.851 -19.796   7.316  0.00  0.00    +0.000 C 
ATOM      3  O   UNL     1      -7.862 -20.615   8.540  0.00  0.00    +0.000 OA
ATOM      4  C   UNL     1      -6.943 -21.642   8.791  0.00  0.00    +0.000 A 
ATOM      5  C   UNL     1      -5.672 -21.748   8.154  0.00  0.00    +0.000 A 
ATOM      6  C   UNL     1      -7.297 -22.583   9.781  0.00  0.00    +0.000 A 
ATOM      7  C   UNL     1      -5.416 -20.739   7.189  0.00  0.00    +0.000 C 
ATOM      8  C   UNL     1      -4.780 -22.780   8.468  0.00  0.00    +0.000 A 
ATOM      9  C   UNL     1      -6.491 -19.783   6.793  0.00  0.00    +0.000 C 
ATOM     10  C   UNL     1      -5.150 -23.722   9.441  0.00  0.00    +0.000 A 
ATOM     11  C   UNL     1      -3.436 -22.868   7.775  0.00  0.00    +0.000 C 
ATOM     12  C   UNL     1      -6.396 -23.626  10.095  0.00  0.00    +0.000 A 
ATOM     13  C   UNL     1      -6.683 -24.697  11.147  0.00  0.00    +0.000 C 
ATOM     14  C   UNL     1      -8.636 -22.433  10.493  0.00  0.00    +0.000 C 
ATOM     15  C   UNL     1      -8.826 -20.469   6.319  0.00  0.00    +0.000 C 
BRANCH  10  16
ATOM     16  O   UNL     1      -4.284 -24.751   9.771  0.00  0.00    +0.000 OA
ATOM     17  H   UNL     1      -3.374 -24.385   9.812  0.00  0.00    +0.000 HD
ENDBRANCH  10  16
ENDBRANCH   1   2
BRANCH   1  18
ATOM     18  O   UNL     1      -8.712 -17.225   8.043  0.00  0.00    +0.000 OA
BRANCH  18  19
ATOM     19  C   UNL     1      -9.595 -17.192   9.094  0.00  0.00    +0.000 C 
ATOM     20  C   UNL     1     -10.235 -18.314   9.624  0.00  0.00    +0.000 C 
ATOM     21  C   UNL     1     -11.111 -18.180  10.698  0.00  0.00    +0.000 C 
ATOM     22  C   UNL     1     -11.349 -16.922  11.245  0.00  0.00    +0.000 C 
ATOM     23  C   UNL     1     -10.714 -15.798  10.721  0.00  0.00    +0.000 C 
ATOM     24  C   UNL     1      -9.836 -15.934   9.647  0.00  0.00    +0.000 C 
ATOM     25  C   UNL     1     -12.243 -16.783  12.344  0.00  0.00    +0.000 C 
ATOM     26  C   UNL     1     -13.136 -16.637  13.430  0.00  0.00    +0.000 C 
ATOM     27  S   UNL     1     -13.261 -17.729  14.756  0.00  0.00    +0.000 S 
ATOM     28  C   UNL     1     -14.517 -16.770  15.514  0.00  0.00    +0.000 C 
ATOM     29  O   UNL     1     -15.050 -17.050  16.574  0.00  0.00    +0.000 OA
ATOM     30  N   UNL     1     -14.794 -15.685  14.748  0.00  0.00    +0.000 N 
ATOM     31  C   UNL     1     -14.087 -15.518  13.594  0.00  0.00    +0.000 C 
ATOM     32  H   UNL     1     -15.492 -15.016  15.033  0.00  0.00    +0.000 HD
ATOM     33  O   UNL     1     -14.222 -14.584  12.822  0.00  0.00    +0.000 OA
ENDBRANCH  18  19
ENDBRANCH   1  18
TORSDOF 4
ENDMDL
