MODEL 1
REMARK VINA RESULT:      -6.3      0.000      0.000
REMARK  Name = 
REMARK  19 active torsions:
REMARK  status: ('A' for Active; 'I' for Inactive)
REMARK    1  A    between atoms: O_1  and  C_20
REMARK    2  A    between atoms: O_1  and  C_36
REMARK    3  A    between atoms: O_2  and  C_18
REMARK    4  A    between atoms: O_3  and  C_28
REMARK    5  A    between atoms: O_3  and  C_42
REMARK    6  A    between atoms: O_5  and  C_34
REMARK    7  A    between atoms: O_5  and  C_50
REMARK    8  A    between atoms: O_7  and  C_40
REMARK    9  A    between atoms: O_7  and  C_56
REMARK   10  A    between atoms: O_9  and  C_46
REMARK   11  A    between atoms: N_11  and  C_30
REMARK   12  A    between atoms: C_17  and  C_23
REMARK   13  A    between atoms: C_18  and  C_28
REMARK   14  A    between atoms: C_23  and  C_32
REMARK   15  A    between atoms: C_33  and  C_35
REMARK   16  A    between atoms: C_35  and  C_40
REMARK   17  A    between atoms: C_36  and  C_41
REMARK   18  A    between atoms: C_46  and  C_53
REMARK   19  A    between atoms: C_53  and  C_57
REMARK                            x       y       z     vdW  Elec       q    Type
REMARK                         _______ _______ _______ _____ _____    ______ ____
ROOT
ATOM      1  N   UNL     1      -9.159   6.599   6.639  0.00  0.00    +0.000 NA
ATOM      2  N   UNL     1      -6.738   9.783   4.035  0.00  0.00    +0.000 N 
ATOM      3  C   UNL     1      -8.005   8.154   5.341  0.00  0.00    +0.000 C 
ATOM      4  C   UNL     1      -9.421   7.609   5.597  0.00  0.00    +0.000 C 
ATOM      5  C   UNL     1      -7.955   8.918   4.003  0.00  0.00    +0.000 C 
ATOM      6  C   UNL     1     -10.171   7.119   4.273  0.00  0.00    +0.000 C 
ATOM      7  C   UNL     1      -8.231   8.083   2.741  0.00  0.00    +0.000 C 
ATOM      8  C   UNL     1      -7.066   6.957   5.584  0.00  0.00    +0.000 C 
ATOM      9  C   UNL     1      -9.184   6.881   3.046  0.00  0.00    +0.000 C 
ATOM     10  C   UNL     1      -7.494   9.288   6.208  0.00  0.00    +0.000 A 
ATOM     11  C   UNL     1      -7.916   5.914   6.306  0.00  0.00    +0.000 C 
ATOM     12  C   UNL     1      -6.728  10.154   5.415  0.00  0.00    +0.000 A 
ATOM     13  C   UNL     1     -10.936   5.815   4.512  0.00  0.00    +0.000 C 
ATOM     14  C   UNL     1     -10.273   5.706   6.917  0.00  0.00    +0.000 C 
ATOM     15  C   UNL     1     -10.983   5.202   5.703  0.00  0.00    +0.000 C 
ATOM     16  C   UNL     1      -7.652   9.487   7.576  0.00  0.00    +0.000 A 
ATOM     17  C   UNL     1      -6.684  10.909   3.104  0.00  0.00    +0.000 C 
ATOM     18  C   UNL     1      -6.073  11.218   6.004  0.00  0.00    +0.000 A 
ATOM     19  C   UNL     1      -7.002  10.567   8.206  0.00  0.00    +0.000 A 
ATOM     20  C   UNL     1      -6.201  11.418   7.389  0.00  0.00    +0.000 A 
ENDROOT
BRANCH  19  23
ATOM     21  N   UNL     1      -7.737  10.912  14.029  0.00  0.00    +0.000 NA
ATOM     22  N   UNL     1      -4.639  10.324   9.805  0.00  0.00    +0.000 N 
ATOM     23  C   UNL     1      -7.125  10.825   9.761  0.00  0.00    +0.000 C 
ATOM     24  C   UNL     1      -7.871   9.618  10.493  0.00  0.00    +0.000 C 
ATOM     25  C   UNL     1      -5.709  10.955  10.417  0.00  0.00    +0.000 A 
ATOM     26  C   UNL     1      -7.758   9.559  12.026  0.00  0.00    +0.000 C 
ATOM     27  C   UNL     1      -8.353   8.305  12.666  0.00  0.00    +0.000 C 
ATOM     28  C   UNL     1      -8.389  10.743  12.743  0.00  0.00    +0.000 C 
ATOM     29  C   UNL     1      -5.204  11.509  11.607  0.00  0.00    +0.000 A 
ATOM     30  C   UNL     1      -8.165   8.306  14.212  0.00  0.00    +0.000 C 
ATOM     31  C   UNL     1      -7.926   9.720  14.884  0.00  0.00    +0.000 C 
ATOM     32  C   UNL     1      -5.894  12.248  12.743  0.00  0.00    +0.000 C 
ATOM     33  C   UNL     1      -6.315  11.334  13.933  0.00  0.00    +0.000 C 
ATOM     34  C   UNL     1      -3.788  11.222  11.637  0.00  0.00    +0.000 A 
ATOM     35  C   UNL     1      -3.476  10.487  10.503  0.00  0.00    +0.000 A 
ATOM     36  C   UNL     1      -2.747  11.512  12.548  0.00  0.00    +0.000 A 
ATOM     37  C   UNL     1      -2.183  10.031  10.216  0.00  0.00    +0.000 A 
ATOM     38  C   UNL     1      -1.447  11.067  12.280  0.00  0.00    +0.000 A 
ATOM     39  C   UNL     1      -1.171  10.336  11.129  0.00  0.00    +0.000 A 
ATOM     40  H   UNL     1      -4.696   9.817   8.931  0.00  0.00    +0.000 HD
BRANCH  23  42
ATOM     41  O   UNL     1      -7.548  13.261  10.168  0.00  0.00    +0.000 OA
ATOM     42  C   UNL     1      -7.961  12.142   9.889  0.00  0.00    +0.000 C 
BRANCH  42  43
ATOM     43  O   UNL     1      -9.283  11.886   9.608  0.00  0.00    +0.000 OA
ATOM     44  C   UNL     1      -9.892  12.857   8.758  0.00  0.00    +0.000 C 
ENDBRANCH  42  43
ENDBRANCH  23  42
BRANCH  30  45
ATOM     45  O   UNL     1      -9.406   7.781  14.748  0.00  0.00    +0.000 OA
ATOM     46  H   UNL     1      -9.174   7.104  15.408  0.00  0.00    +0.000 HD
ENDBRANCH  30  45
BRANCH  30  47
ATOM     47  C   UNL     1      -7.105   7.271  14.656  0.00  0.00    +0.000 C 
ATOM     48  C   UNL     1      -5.827   7.825  15.263  0.00  0.00    +0.000 C 
ENDBRANCH  30  47
ENDBRANCH  19  23
BRANCH   7  49
ATOM     49  O   UNL     1      -8.973   8.969   1.842  0.00  0.00    +0.000 OA
ATOM     50  H   UNL     1      -8.317   9.604   1.488  0.00  0.00    +0.000 HD
ENDBRANCH   7  49
BRANCH   7  52
ATOM     51  O   UNL     1      -6.104   6.837   2.440  0.00  0.00    +0.000 OA
ATOM     52  C   UNL     1      -6.929   7.641   2.028  0.00  0.00    +0.000 C 
BRANCH  52  53
ATOM     53  O   UNL     1      -6.858   8.233   0.790  0.00  0.00    +0.000 OA
ATOM     54  C   UNL     1      -5.529   8.560   0.378  0.00  0.00    +0.000 C 
ENDBRANCH  52  53
ENDBRANCH   7  52
BRANCH  20  55
ATOM     55  O   UNL     1      -5.602  12.491   7.999  0.00  0.00    +0.000 OA
ATOM     56  C   UNL     1      -4.411  12.959   7.372  0.00  0.00    +0.000 C 
ENDBRANCH  20  55
BRANCH   6  57
ATOM     57  C   UNL     1     -11.247   8.184   3.849  0.00  0.00    +0.000 C 
ATOM     58  C   UNL     1     -11.606   9.245   4.892  0.00  0.00    +0.000 C 
ENDBRANCH   6  57
BRANCH   9  59
ATOM     59  O   UNL     1      -8.454   5.654   3.283  0.00  0.00    +0.000 OA
BRANCH  59  61
ATOM     60  O   UNL     1      -7.605   3.861   2.138  0.00  0.00    +0.000 OA
ATOM     61  C   UNL     1      -8.455   4.727   2.288  0.00  0.00    +0.000 C 
ATOM     62  C   UNL     1      -9.666   4.898   1.424  0.00  0.00    +0.000 C 
ENDBRANCH  59  61
ENDBRANCH   9  59
TORSDOF 12
ENDMDL
MODEL 2
REMARK VINA RESULT:      -6.2     22.601     25.559
REMARK  Name = 
REMARK  19 active torsions:
REMARK  status: ('A' for Active; 'I' for Inactive)
REMARK    1  A    between atoms: O_1  and  C_20
REMARK    2  A    between atoms: O_1  and  C_36
REMARK    3  A    between atoms: O_2  and  C_18
REMARK    4  A    between atoms: O_3  and  C_28
REMARK    5  A    between atoms: O_3  and  C_42
REMARK    6  A    between atoms: O_5  and  C_34
REMARK    7  A    between atoms: O_5  and  C_50
REMARK    8  A    between atoms: O_7  and  C_40
REMARK    9  A    between atoms: O_7  and  C_56
REMARK   10  A    between atoms: O_9  and  C_46
REMARK   11  A    between atoms: N_11  and  C_30
REMARK   12  A    between atoms: C_17  and  C_23
REMARK   13  A    between atoms: C_18  and  C_28
REMARK   14  A    between atoms: C_23  and  C_32
REMARK   15  A    between atoms: C_33  and  C_35
REMARK   16  A    between atoms: C_35  and  C_40
REMARK   17  A    between atoms: C_36  and  C_41
REMARK   18  A    between atoms: C_46  and  C_53
REMARK   19  A    between atoms: C_53  and  C_57
REMARK                            x       y       z     vdW  Elec       q    Type
REMARK                         _______ _______ _______ _____ _____    ______ ____
ROOT
ATOM      1  N   UNL     1       9.151  -7.526  13.614  0.00  0.00    +0.000 NA
ATOM      2  N   UNL     1       5.656  -7.661  10.366  0.00  0.00    +0.000 N 
ATOM      3  C   UNL     1       7.470  -7.585  11.999  0.00  0.00    +0.000 C 
ATOM      4  C   UNL     1       8.991  -7.743  12.164  0.00  0.00    +0.000 C 
ATOM      5  C   UNL     1       7.108  -7.350  10.519  0.00  0.00    +0.000 C 
ATOM      6  C   UNL     1       9.844  -6.809  11.186  0.00  0.00    +0.000 C 
ATOM      7  C   UNL     1       7.653  -6.056   9.892  0.00  0.00    +0.000 C 
ATOM      8  C   UNL     1       7.056  -6.556  13.070  0.00  0.00    +0.000 C 
ATOM      9  C   UNL     1       8.996  -5.614  10.563  0.00  0.00    +0.000 C 
ATOM     10  C   UNL     1       6.586  -8.801  12.203  0.00  0.00    +0.000 A 
ATOM     11  C   UNL     1       8.251  -6.451  14.015  0.00  0.00    +0.000 C 
ATOM     12  C   UNL     1       5.535  -8.755  11.277  0.00  0.00    +0.000 A 
ATOM     13  C   UNL     1      11.049  -6.196  11.904  0.00  0.00    +0.000 C 
ATOM     14  C   UNL     1      10.525  -7.347  14.057  0.00  0.00    +0.000 C 
ATOM     15  C   UNL     1      11.348  -6.456  13.184  0.00  0.00    +0.000 C 
ATOM     16  C   UNL     1       6.685  -9.808  13.158  0.00  0.00    +0.000 A 
ATOM     17  C   UNL     1       5.163  -7.937   9.017  0.00  0.00    +0.000 C 
ATOM     18  C   UNL     1       4.539  -9.711  11.329  0.00  0.00    +0.000 A 
ATOM     19  C   UNL     1       5.688 -10.800  13.233  0.00  0.00    +0.000 A 
ATOM     20  C   UNL     1       4.609 -10.720  12.304  0.00  0.00    +0.000 A 
ENDROOT
BRANCH  19  23
ATOM     21  N   UNL     1       5.195 -15.141  17.169  0.00  0.00    +0.000 NA
ATOM     22  N   UNL     1       6.654 -13.371  12.423  0.00  0.00    +0.000 N 
ATOM     23  C   UNL     1       5.736 -11.953  14.315  0.00  0.00    +0.000 C 
ATOM     24  C   UNL     1       4.271 -12.493  14.652  0.00  0.00    +0.000 C 
ATOM     25  C   UNL     1       6.566 -13.174  13.790  0.00  0.00    +0.000 A 
ATOM     26  C   UNL     1       4.181 -13.828  15.410  0.00  0.00    +0.000 C 
ATOM     27  C   UNL     1       2.765 -14.381  15.571  0.00  0.00    +0.000 C 
ATOM     28  C   UNL     1       4.786 -13.795  16.805  0.00  0.00    +0.000 C 
ATOM     29  C   UNL     1       7.224 -14.266  14.384  0.00  0.00    +0.000 A 
ATOM     30  C   UNL     1       2.764 -15.750  16.314  0.00  0.00    +0.000 C 
ATOM     31  C   UNL     1       4.035 -16.058  17.207  0.00  0.00    +0.000 C 
ATOM     32  C   UNL     1       7.396 -14.663  15.842  0.00  0.00    +0.000 C 
ATOM     33  C   UNL     1       6.323 -15.668  16.358  0.00  0.00    +0.000 C 
ATOM     34  C   UNL     1       7.745 -15.078  13.309  0.00  0.00    +0.000 A 
ATOM     35  C   UNL     1       7.373 -14.491  12.109  0.00  0.00    +0.000 A 
ATOM     36  C   UNL     1       8.490 -16.278  13.257  0.00  0.00    +0.000 A 
ATOM     37  C   UNL     1       7.706 -15.023  10.857  0.00  0.00    +0.000 A 
ATOM     38  C   UNL     1       8.836 -16.827  12.017  0.00  0.00    +0.000 A 
ATOM     39  C   UNL     1       8.448 -16.206  10.834  0.00  0.00    +0.000 A 
ATOM     40  H   UNL     1       6.255 -12.753  11.727  0.00  0.00    +0.000 HD
BRANCH  23  42
ATOM     41  O   UNL     1       7.547 -11.375  15.946  0.00  0.00    +0.000 OA
ATOM     42  C   UNL     1       6.381 -11.297  15.580  0.00  0.00    +0.000 C 
BRANCH  42  43
ATOM     43  O   UNL     1       5.438 -10.558  16.256  0.00  0.00    +0.000 OA
ATOM     44  C   UNL     1       5.657 -10.489  17.665  0.00  0.00    +0.000 C 
ENDBRANCH  42  43
ENDBRANCH  23  42
BRANCH  30  45
ATOM     45  O   UNL     1       1.619 -15.702  17.201  0.00  0.00    +0.000 OA
ATOM     46  H   UNL     1       1.659 -14.856  17.681  0.00  0.00    +0.000 HD
ENDBRANCH  30  45
BRANCH  30  47
ATOM     47  C   UNL     1       2.439 -16.918  15.353  0.00  0.00    +0.000 C 
ATOM     48  C   UNL     1       2.060 -16.541  13.931  0.00  0.00    +0.000 C 
ENDBRANCH  30  47
ENDBRANCH  19  23
BRANCH   7  49
ATOM     49  O   UNL     1       7.989  -6.403   8.509  0.00  0.00    +0.000 OA
ATOM     50  H   UNL     1       7.287  -7.017   8.208  0.00  0.00    +0.000 HD
ENDBRANCH   7  49
BRANCH   7  52
ATOM     51  O   UNL     1       5.697  -4.742  10.674  0.00  0.00    +0.000 OA
ATOM     52  C   UNL     1       6.600  -4.920   9.869  0.00  0.00    +0.000 C 
BRANCH  52  53
ATOM     53  O   UNL     1       6.871  -4.062   8.830  0.00  0.00    +0.000 OA
ATOM     54  C   UNL     1       6.458  -2.715   9.069  0.00  0.00    +0.000 C 
ENDBRANCH  52  53
ENDBRANCH   7  52
BRANCH  20  55
ATOM     55  O   UNL     1       3.663 -11.712  12.355  0.00  0.00    +0.000 OA
ATOM     56  C   UNL     1       2.487 -11.468  11.588  0.00  0.00    +0.000 C 
ENDBRANCH  20  55
BRANCH   6  57
ATOM     57  C   UNL     1      10.431  -7.671  10.009  0.00  0.00    +0.000 C 
ATOM     58  C   UNL     1      10.372  -9.190  10.180  0.00  0.00    +0.000 C 
ENDBRANCH   6  57
BRANCH   9  59
ATOM     59  O   UNL     1       8.787  -4.621  11.595  0.00  0.00    +0.000 OA
BRANCH  59  61
ATOM     60  O   UNL     1       9.722  -2.942  10.347  0.00  0.00    +0.000 OA
ATOM     61  C   UNL     1       9.388  -3.412  11.426  0.00  0.00    +0.000 C 
ATOM     62  C   UNL     1       9.549  -2.726  12.747  0.00  0.00    +0.000 C 
ENDBRANCH  59  61
ENDBRANCH   9  59
TORSDOF 12
ENDMDL
MODEL 3
REMARK VINA RESULT:      -5.7     12.995     18.311
REMARK  Name = 
REMARK  19 active torsions:
REMARK  status: ('A' for Active; 'I' for Inactive)
REMARK    1  A    between atoms: O_1  and  C_20
REMARK    2  A    between atoms: O_1  and  C_36
REMARK    3  A    between atoms: O_2  and  C_18
REMARK    4  A    between atoms: O_3  and  C_28
REMARK    5  A    between atoms: O_3  and  C_42
REMARK    6  A    between atoms: O_5  and  C_34
REMARK    7  A    between atoms: O_5  and  C_50
REMARK    8  A    between atoms: O_7  and  C_40
REMARK    9  A    between atoms: O_7  and  C_56
REMARK   10  A    between atoms: O_9  and  C_46
REMARK   11  A    between atoms: N_11  and  C_30
REMARK   12  A    between atoms: C_17  and  C_23
REMARK   13  A    between atoms: C_18  and  C_28
REMARK   14  A    between atoms: C_23  and  C_32
REMARK   15  A    between atoms: C_33  and  C_35
REMARK   16  A    between atoms: C_35  and  C_40
REMARK   17  A    between atoms: C_36  and  C_41
REMARK   18  A    between atoms: C_46  and  C_53
REMARK   19  A    between atoms: C_53  and  C_57
REMARK                            x       y       z     vdW  Elec       q    Type
REMARK                         _______ _______ _______ _____ _____    ______ ____
ROOT
ATOM      1  N   UNL     1     -13.764   4.531  20.658  0.00  0.00    +0.000 NA
ATOM      2  N   UNL     1     -16.214   4.358  16.565  0.00  0.00    +0.000 N 
ATOM      3  C   UNL     1     -14.929   4.434  18.640  0.00  0.00    +0.000 C 
ATOM      4  C   UNL     1     -13.684   3.865  19.344  0.00  0.00    +0.000 C 
ATOM      5  C   UNL     1     -14.834   4.218  17.117  0.00  0.00    +0.000 C 
ATOM      6  C   UNL     1     -12.333   4.051  18.511  0.00  0.00    +0.000 C 
ATOM      7  C   UNL     1     -13.680   4.945  16.406  0.00  0.00    +0.000 C 
ATOM      8  C   UNL     1     -15.097   5.855  19.212  0.00  0.00    +0.000 C 
ATOM      9  C   UNL     1     -12.454   5.143  17.357  0.00  0.00    +0.000 C 
ATOM     10  C   UNL     1     -16.259   3.730  18.833  0.00  0.00    +0.000 A 
ATOM     11  C   UNL     1     -14.200   5.906  20.446  0.00  0.00    +0.000 C 
ATOM     12  C   UNL     1     -16.971   3.772  17.627  0.00  0.00    +0.000 A 
ATOM     13  C   UNL     1     -11.167   4.460  19.414  0.00  0.00    +0.000 C 
ATOM     14  C   UNL     1     -12.570   4.405  21.480  0.00  0.00    +0.000 C 
ATOM     15  C   UNL     1     -11.286   4.601  20.742  0.00  0.00    +0.000 C 
ATOM     16  C   UNL     1     -16.794   3.166  19.986  0.00  0.00    +0.000 A 
ATOM     17  C   UNL     1     -16.476   3.785  15.246  0.00  0.00    +0.000 C 
ATOM     18  C   UNL     1     -18.260   3.277  17.578  0.00  0.00    +0.000 A 
ATOM     19  C   UNL     1     -18.104   2.647  19.968  0.00  0.00    +0.000 A 
ATOM     20  C   UNL     1     -18.825   2.727  18.741  0.00  0.00    +0.000 A 
ENDROOT
BRANCH  19  23
ATOM     21  N   UNL     1     -21.137   0.674  24.603  0.00  0.00    +0.000 NA
ATOM     22  N   UNL     1     -19.069  -0.044  19.808  0.00  0.00    +0.000 N 
ATOM     23  C   UNL     1     -18.772   2.017  21.256  0.00  0.00    +0.000 C 
ATOM     24  C   UNL     1     -20.223   2.632  21.517  0.00  0.00    +0.000 C 
ATOM     25  C   UNL     1     -18.954   0.470  21.088  0.00  0.00    +0.000 A 
ATOM     26  C   UNL     1     -21.127   1.883  22.509  0.00  0.00    +0.000 C 
ATOM     27  C   UNL     1     -22.555   2.418  22.607  0.00  0.00    +0.000 C 
ATOM     28  C   UNL     1     -20.590   1.840  23.932  0.00  0.00    +0.000 C 
ATOM     29  C   UNL     1     -19.137  -0.617  21.962  0.00  0.00    +0.000 A 
ATOM     30  C   UNL     1     -23.414   1.582  23.603  0.00  0.00    +0.000 C 
ATOM     31  C   UNL     1     -22.612   0.749  24.685  0.00  0.00    +0.000 C 
ATOM     32  C   UNL     1     -19.206  -0.684  23.479  0.00  0.00    +0.000 C 
ATOM     33  C   UNL     1     -20.654  -0.619  24.054  0.00  0.00    +0.000 C 
ATOM     34  C   UNL     1     -19.310  -1.792  21.140  0.00  0.00    +0.000 A 
ATOM     35  C   UNL     1     -19.261  -1.398  19.812  0.00  0.00    +0.000 A 
ATOM     36  C   UNL     1     -19.524  -3.161  21.418  0.00  0.00    +0.000 A 
ATOM     37  C   UNL     1     -19.402  -2.288  18.740  0.00  0.00    +0.000 A 
ATOM     38  C   UNL     1     -19.667  -4.070  20.363  0.00  0.00    +0.000 A 
ATOM     39  C   UNL     1     -19.606  -3.637  19.043  0.00  0.00    +0.000 A 
ATOM     40  H   UNL     1     -18.999   0.505  18.961  0.00  0.00    +0.000 HD
BRANCH  23  42
ATOM     41  O   UNL     1     -17.886   3.333  23.194  0.00  0.00    +0.000 OA
ATOM     42  C   UNL     1     -17.806   2.377  22.433  0.00  0.00    +0.000 C 
BRANCH  42  43
ATOM     43  O   UNL     1     -16.820   1.424  22.537  0.00  0.00    +0.000 OA
ATOM     44  C   UNL     1     -16.140   1.429  23.792  0.00  0.00    +0.000 C 
ENDBRANCH  42  43
ENDBRANCH  23  42
BRANCH  30  45
ATOM     45  O   UNL     1     -24.219   2.553  24.320  0.00  0.00    +0.000 OA
ATOM     46  H   UNL     1     -24.193   2.311  25.263  0.00  0.00    +0.000 HD
ENDBRANCH  30  45
BRANCH  30  47
ATOM     47  C   UNL     1     -24.457   0.713  22.862  0.00  0.00    +0.000 C 
ATOM     48  C   UNL     1     -23.941  -0.562  22.216  0.00  0.00    +0.000 C 
ENDBRANCH  30  47
ENDBRANCH  19  23
BRANCH   7  49
ATOM     49  O   UNL     1     -13.232   4.031  15.354  0.00  0.00    +0.000 OA
ATOM     50  H   UNL     1     -12.538   4.512  14.857  0.00  0.00    +0.000 HD
ENDBRANCH   7  49
BRANCH   7  52
ATOM     51  O   UNL     1     -14.738   7.188  16.279  0.00  0.00    +0.000 OA
ATOM     52  C   UNL     1     -14.135   6.269  15.742  0.00  0.00    +0.000 C 
BRANCH  52  53
ATOM     53  O   UNL     1     -13.686   6.311  14.444  0.00  0.00    +0.000 OA
ATOM     54  C   UNL     1     -14.717   6.543  13.482  0.00  0.00    +0.000 C 
ENDBRANCH  52  53
ENDBRANCH   7  52
BRANCH  20  55
ATOM     55  O   UNL     1     -20.085   2.184  18.717  0.00  0.00    +0.000 OA
ATOM     56  C   UNL     1     -21.003   2.820  17.833  0.00  0.00    +0.000 C 
ENDBRANCH  20  55
BRANCH   6  57
ATOM     57  C   UNL     1     -11.921   2.680  17.859  0.00  0.00    +0.000 C 
ATOM     58  C   UNL     1     -10.570   2.645  17.141  0.00  0.00    +0.000 C 
ENDBRANCH   6  57
BRANCH   9  59
ATOM     59  O   UNL     1     -12.447   6.453  17.972  0.00  0.00    +0.000 OA
BRANCH  59  61
ATOM     60  O   UNL     1     -10.511   7.060  16.908  0.00  0.00    +0.000 OA
ATOM     61  C   UNL     1     -11.333   7.215  17.799  0.00  0.00    +0.000 C 
ATOM     62  C   UNL     1     -11.280   8.293  18.837  0.00  0.00    +0.000 C 
ENDBRANCH  59  61
ENDBRANCH   9  59
TORSDOF 12
ENDMDL
MODEL 4
REMARK VINA RESULT:      -5.7     22.991     25.981
REMARK  Name = 
REMARK  19 active torsions:
REMARK  status: ('A' for Active; 'I' for Inactive)
REMARK    1  A    between atoms: O_1  and  C_20
REMARK    2  A    between atoms: O_1  and  C_36
REMARK    3  A    between atoms: O_2  and  C_18
REMARK    4  A    between atoms: O_3  and  C_28
REMARK    5  A    between atoms: O_3  and  C_42
REMARK    6  A    between atoms: O_5  and  C_34
REMARK    7  A    between atoms: O_5  and  C_50
REMARK    8  A    between atoms: O_7  and  C_40
REMARK    9  A    between atoms: O_7  and  C_56
REMARK   10  A    between atoms: O_9  and  C_46
REMARK   11  A    between atoms: N_11  and  C_30
REMARK   12  A    between atoms: C_17  and  C_23
REMARK   13  A    between atoms: C_18  and  C_28
REMARK   14  A    between atoms: C_23  and  C_32
REMARK   15  A    between atoms: C_33  and  C_35
REMARK   16  A    between atoms: C_35  and  C_40
REMARK   17  A    between atoms: C_36  and  C_41
REMARK   18  A    between atoms: C_46  and  C_53
REMARK   19  A    between atoms: C_53  and  C_57
REMARK                            x       y       z     vdW  Elec       q    Type
REMARK                         _______ _______ _______ _____ _____    ______ ____
ROOT
ATOM      1  N   UNL     1       5.688  -7.266  12.595  0.00  0.00    +0.000 NA
ATOM      2  N   UNL     1       9.445  -9.536  10.723  0.00  0.00    +0.000 N 
ATOM      3  C   UNL     1       7.547  -8.350  11.699  0.00  0.00    +0.000 C 
ATOM      4  C   UNL     1       7.125  -7.448  12.872  0.00  0.00    +0.000 C 
ATOM      5  C   UNL     1       9.080  -8.335  11.532  0.00  0.00    +0.000 C 
ATOM      6  C   UNL     1       8.015  -6.129  13.021  0.00  0.00    +0.000 C 
ATOM      7  C   UNL     1       9.701  -6.979  11.158  0.00  0.00    +0.000 C 
ATOM      8  C   UNL     1       6.636  -7.936  10.528  0.00  0.00    +0.000 C 
ATOM      9  C   UNL     1       8.854  -5.787  11.711  0.00  0.00    +0.000 C 
ATOM     10  C   UNL     1       7.403  -9.852  11.849  0.00  0.00    +0.000 A 
ATOM     11  C   UNL     1       5.518  -7.107  11.156  0.00  0.00    +0.000 C 
ATOM     12  C   UNL     1       8.489 -10.475  11.219  0.00  0.00    +0.000 A 
ATOM     13  C   UNL     1       7.156  -4.906  13.353  0.00  0.00    +0.000 C 
ATOM     14  C   UNL     1       5.039  -6.232  13.388  0.00  0.00    +0.000 C 
ATOM     15  C   UNL     1       5.828  -4.971  13.527  0.00  0.00    +0.000 C 
ATOM     16  C   UNL     1       6.375 -10.582  12.437  0.00  0.00    +0.000 A 
ATOM     17  C   UNL     1      10.833  -9.994  10.783  0.00  0.00    +0.000 C 
ATOM     18  C   UNL     1       8.531 -11.854  11.138  0.00  0.00    +0.000 A 
ATOM     19  C   UNL     1       6.391 -11.989  12.376  0.00  0.00    +0.000 A 
ATOM     20  C   UNL     1       7.488 -12.605  11.704  0.00  0.00    +0.000 A 
ENDROOT
BRANCH  19  23
ATOM     21  N   UNL     1       2.201 -15.688  14.201  0.00  0.00    +0.000 NA
ATOM     22  N   UNL     1       6.997 -13.557  14.694  0.00  0.00    +0.000 N 
ATOM     23  C   UNL     1       5.236 -12.867  13.004  0.00  0.00    +0.000 C 
ATOM     24  C   UNL     1       4.917 -14.142  12.096  0.00  0.00    +0.000 C 
ATOM     25  C   UNL     1       5.649 -13.403  14.417  0.00  0.00    +0.000 A 
ATOM     26  C   UNL     1       4.078 -15.260  12.738  0.00  0.00    +0.000 C 
ATOM     27  C   UNL     1       3.931 -16.521  11.889  0.00  0.00    +0.000 C 
ATOM     28  C   UNL     1       2.666 -14.838  13.120  0.00  0.00    +0.000 C 
ATOM     29  C   UNL     1       4.962 -13.895  15.541  0.00  0.00    +0.000 A 
ATOM     30  C   UNL     1       3.101 -17.616  12.624  0.00  0.00    +0.000 C 
ATOM     31  C   UNL     1       2.145 -17.105  13.778  0.00  0.00    +0.000 C 
ATOM     32  C   UNL     1       3.477 -14.072  15.812  0.00  0.00    +0.000 C 
ATOM     33  C   UNL     1       2.935 -15.495  15.478  0.00  0.00    +0.000 C 
ATOM     34  C   UNL     1       5.963 -14.293  16.505  0.00  0.00    +0.000 A 
ATOM     35  C   UNL     1       7.211 -14.067  15.944  0.00  0.00    +0.000 A 
ATOM     36  C   UNL     1       5.910 -14.844  17.805  0.00  0.00    +0.000 A 
ATOM     37  C   UNL     1       8.413 -14.350  16.605  0.00  0.00    +0.000 A 
ATOM     38  C   UNL     1       7.098 -15.134  18.486  0.00  0.00    +0.000 A 
ATOM     39  C   UNL     1       8.332 -14.889  17.892  0.00  0.00    +0.000 A 
ATOM     40  H   UNL     1       7.745 -13.306  14.060  0.00  0.00    +0.000 HD
BRANCH  23  42
ATOM     41  O   UNL     1       3.598 -11.276  14.034  0.00  0.00    +0.000 OA
ATOM     42  C   UNL     1       3.993 -11.919  13.069  0.00  0.00    +0.000 C 
BRANCH  42  43
ATOM     43  O   UNL     1       3.380 -11.865  11.840  0.00  0.00    +0.000 OA
ATOM     44  C   UNL     1       2.802 -10.596  11.535  0.00  0.00    +0.000 C 
ENDBRANCH  42  43
ENDBRANCH  23  42
BRANCH  30  45
ATOM     45  O   UNL     1       2.260 -18.208  11.602  0.00  0.00    +0.000 OA
ATOM     46  H   UNL     1       1.335 -18.023  11.844  0.00  0.00    +0.000 HD
ENDBRANCH  30  45
BRANCH  30  47
ATOM     47  C   UNL     1       3.995 -18.788  13.092  0.00  0.00    +0.000 C 
ATOM     48  C   UNL     1       4.797 -18.564  14.363  0.00  0.00    +0.000 C 
ENDBRANCH  30  47
ENDBRANCH  19  23
BRANCH   7  49
ATOM     49  O   UNL     1      10.981  -6.928  11.867  0.00  0.00    +0.000 OA
ATOM     50  H   UNL     1      10.761  -6.927  12.821  0.00  0.00    +0.000 HD
ENDBRANCH   7  49
BRANCH   7  52
ATOM     51  O   UNL     1       9.148  -6.844   8.741  0.00  0.00    +0.000 OA
ATOM     52  C   UNL     1       9.979  -6.855   9.639  0.00  0.00    +0.000 C 
BRANCH  52  53
ATOM     53  O   UNL     1      11.324  -6.671   9.430  0.00  0.00    +0.000 OA
ATOM     54  C   UNL     1      11.635  -5.543   8.609  0.00  0.00    +0.000 C 
ENDBRANCH  52  53
ENDBRANCH   7  52
BRANCH  20  55
ATOM     55  O   UNL     1       7.521 -13.976  11.682  0.00  0.00    +0.000 OA
ATOM     56  C   UNL     1       8.817 -14.550  11.542  0.00  0.00    +0.000 C 
ENDBRANCH  20  55
BRANCH   6  57
ATOM     57  C   UNL     1       9.015  -6.298  14.224  0.00  0.00    +0.000 C 
ATOM     58  C   UNL     1       8.731  -7.449  15.191  0.00  0.00    +0.000 C 
ENDBRANCH   6  57
BRANCH   9  59
ATOM     59  O   UNL     1       7.944  -5.258  10.717  0.00  0.00    +0.000 OA
BRANCH  59  61
ATOM     60  O   UNL     1       9.192  -3.389  10.269  0.00  0.00    +0.000 OA
ATOM     61  C   UNL     1       8.113  -3.959  10.349  0.00  0.00    +0.000 C 
ATOM     62  C   UNL     1       6.790  -3.340  10.020  0.00  0.00    +0.000 C 
ENDBRANCH  59  61
ENDBRANCH   9  59
TORSDOF 12
ENDMDL
MODEL 5
REMARK VINA RESULT:      -5.7     21.515     24.625
REMARK  Name = 
REMARK  19 active torsions:
REMARK  status: ('A' for Active; 'I' for Inactive)
REMARK    1  A    between atoms: O_1  and  C_20
REMARK    2  A    between atoms: O_1  and  C_36
REMARK    3  A    between atoms: O_2  and  C_18
REMARK    4  A    between atoms: O_3  and  C_28
REMARK    5  A    between atoms: O_3  and  C_42
REMARK    6  A    between atoms: O_5  and  C_34
REMARK    7  A    between atoms: O_5  and  C_50
REMARK    8  A    between atoms: O_7  and  C_40
REMARK    9  A    between atoms: O_7  and  C_56
REMARK   10  A    between atoms: O_9  and  C_46
REMARK   11  A    between atoms: N_11  and  C_30
REMARK   12  A    between atoms: C_17  and  C_23
REMARK   13  A    between atoms: C_18  and  C_28
REMARK   14  A    between atoms: C_23  and  C_32
REMARK   15  A    between atoms: C_33  and  C_35
REMARK   16  A    between atoms: C_35  and  C_40
REMARK   17  A    between atoms: C_36  and  C_41
REMARK   18  A    between atoms: C_46  and  C_53
REMARK   19  A    between atoms: C_53  and  C_57
REMARK                            x       y       z     vdW  Elec       q    Type
REMARK                         _______ _______ _______ _____ _____    ______ ____
ROOT
ATOM      1  N   UNL     1       7.811  -4.562  10.322  0.00  0.00    +0.000 NA
ATOM      2  N   UNL     1      11.515  -7.459   9.506  0.00  0.00    +0.000 N 
ATOM      3  C   UNL     1       9.644  -5.950   9.938  0.00  0.00    +0.000 C 
ATOM      4  C   UNL     1       9.188  -4.766  10.808  0.00  0.00    +0.000 C 
ATOM      5  C   UNL     1      11.180  -6.077   9.961  0.00  0.00    +0.000 C 
ATOM      6  C   UNL     1      10.176  -3.511  10.755  0.00  0.00    +0.000 C 
ATOM      7  C   UNL     1      11.961  -4.895   9.362  0.00  0.00    +0.000 C 
ATOM      8  C   UNL     1       8.902  -5.772   8.599  0.00  0.00    +0.000 C 
ATOM      9  C   UNL     1      11.175  -3.551   9.515  0.00  0.00    +0.000 C 
ATOM     10  C   UNL     1       9.346  -7.359  10.414  0.00  0.00    +0.000 A 
ATOM     11  C   UNL     1       7.807  -4.744   8.875  0.00  0.00    +0.000 C 
ATOM     12  C   UNL     1      10.429  -8.185  10.084  0.00  0.00    +0.000 A 
ATOM     13  C   UNL     1       9.405  -2.191  10.686  0.00  0.00    +0.000 C 
ATOM     14  C   UNL     1       7.183  -3.327  10.767  0.00  0.00    +0.000 C 
ATOM     15  C   UNL     1       8.067  -2.124  10.705  0.00  0.00    +0.000 C 
ATOM     16  C   UNL     1       8.199  -7.856  11.024  0.00  0.00    +0.000 A 
ATOM     17  C   UNL     1      12.840  -7.978   9.840  0.00  0.00    +0.000 C 
ATOM     18  C   UNL     1      10.351  -9.542  10.332  0.00  0.00    +0.000 A 
ATOM     19  C   UNL     1       8.091  -9.234  11.295  0.00  0.00    +0.000 A 
ATOM     20  C   UNL     1       9.189 -10.064  10.924  0.00  0.00    +0.000 A 
ENDROOT
BRANCH  19  23
ATOM     21  N   UNL     1       3.411 -12.102  13.403  0.00  0.00    +0.000 NA
ATOM     22  N   UNL     1       8.299 -10.214  13.977  0.00  0.00    +0.000 N 
ATOM     23  C   UNL     1       6.800  -9.857  11.962  0.00  0.00    +0.000 C 
ATOM     24  C   UNL     1       6.466 -11.294  11.352  0.00  0.00    +0.000 C 
ATOM     25  C   UNL     1       7.008 -10.050  13.503  0.00  0.00    +0.000 A 
ATOM     26  C   UNL     1       5.465 -12.165  12.130  0.00  0.00    +0.000 C 
ATOM     27  C   UNL     1       5.298 -13.586  11.595  0.00  0.00    +0.000 C 
ATOM     28  C   UNL     1       4.065 -11.575  12.218  0.00  0.00    +0.000 C 
ATOM     29  C   UNL     1       6.162 -10.205  14.616  0.00  0.00    +0.000 A 
ATOM     30  C   UNL     1       4.297 -14.411  12.459  0.00  0.00    +0.000 C 
ATOM     31  C   UNL     1       3.272 -13.573  13.327  0.00  0.00    +0.000 C 
ATOM     32  C   UNL     1       4.646 -10.218  14.731  0.00  0.00    +0.000 C 
ATOM     33  C   UNL     1       4.017 -11.643  14.680  0.00  0.00    +0.000 C 
ATOM     34  C   UNL     1       7.013 -10.413  15.765  0.00  0.00    +0.000 A 
ATOM     35  C   UNL     1       8.330 -10.410  15.329  0.00  0.00    +0.000 A 
ATOM     36  C   UNL     1       6.771 -10.621  17.142  0.00  0.00    +0.000 A 
ATOM     37  C   UNL     1       9.423 -10.594  16.186  0.00  0.00    +0.000 A 
ATOM     38  C   UNL     1       7.848 -10.805  18.017  0.00  0.00    +0.000 A 
ATOM     39  C   UNL     1       9.155 -10.792  17.543  0.00  0.00    +0.000 A 
ATOM     40  H   UNL     1       9.131 -10.173  13.402  0.00  0.00    +0.000 HD
BRANCH  23  42
ATOM     41  O   UNL     1       5.237  -7.938  12.352  0.00  0.00    +0.000 OA
ATOM     42  C   UNL     1       5.648  -8.847  11.642  0.00  0.00    +0.000 C 
BRANCH  42  43
ATOM     43  O   UNL     1       5.144  -9.095  10.386  0.00  0.00    +0.000 OA
ATOM     44  C   UNL     1       5.145  -7.956   9.527  0.00  0.00    +0.000 C 
ENDBRANCH  42  43
ENDBRANCH  23  42
BRANCH  30  45
ATOM     45  O   UNL     1       3.522 -15.185  11.510  0.00  0.00    +0.000 OA
ATOM     46  H   UNL     1       2.651 -15.350  11.912  0.00  0.00    +0.000 HD
ENDBRANCH  30  45
BRANCH  30  47
ATOM     47  C   UNL     1       5.026 -15.483  13.302  0.00  0.00    +0.000 C 
ATOM     48  C   UNL     1       5.706 -15.001  14.572  0.00  0.00    +0.000 C 
ENDBRANCH  30  47
ENDBRANCH  19  23
BRANCH   7  49
ATOM     49  O   UNL     1      13.160  -4.758  10.192  0.00  0.00    +0.000 OA
ATOM     50  H   UNL     1      13.752  -4.145   9.710  0.00  0.00    +0.000 HD
ENDBRANCH   7  49
BRANCH   7  52
ATOM     51  O   UNL     1      11.718  -5.615   6.998  0.00  0.00    +0.000 OA
ATOM     52  C   UNL     1      12.405  -5.160   7.902  0.00  0.00    +0.000 C 
BRANCH  52  53
ATOM     53  O   UNL     1      13.697  -4.726   7.727  0.00  0.00    +0.000 OA
ATOM     54  C   UNL     1      13.937  -4.114   6.458  0.00  0.00    +0.000 C 
ENDBRANCH  52  53
ENDBRANCH   7  52
BRANCH  20  55
ATOM     55  O   UNL     1       9.096 -11.399  11.226  0.00  0.00    +0.000 OA
ATOM     56  C   UNL     1      10.334 -12.044  11.513  0.00  0.00    +0.000 C 
ENDBRANCH  20  55
BRANCH   6  57
ATOM     57  C   UNL     1      11.026  -3.450  12.078  0.00  0.00    +0.000 C 
ATOM     58  C   UNL     1      10.561  -4.343  13.230  0.00  0.00    +0.000 C 
ENDBRANCH   6  57
BRANCH   9  59
ATOM     59  O   UNL     1      10.427  -3.219   8.321  0.00  0.00    +0.000 OA
BRANCH  59  61
ATOM     60  O   UNL     1      10.352  -1.770   6.548  0.00  0.00    +0.000 OA
ATOM     61  C   UNL     1      10.851  -2.148   7.599  0.00  0.00    +0.000 C 
ATOM     62  C   UNL     1      11.995  -1.477   8.294  0.00  0.00    +0.000 C 
ENDBRANCH  59  61
ENDBRANCH   9  59
TORSDOF 12
ENDMDL
MODEL 6
REMARK VINA RESULT:      -5.5     14.273     19.281
REMARK  Name = 
REMARK  19 active torsions:
REMARK  status: ('A' for Active; 'I' for Inactive)
REMARK    1  A    between atoms: O_1  and  C_20
REMARK    2  A    between atoms: O_1  and  C_36
REMARK    3  A    between atoms: O_2  and  C_18
REMARK    4  A    between atoms: O_3  and  C_28
REMARK    5  A    between atoms: O_3  and  C_42
REMARK    6  A    between atoms: O_5  and  C_34
REMARK    7  A    between atoms: O_5  and  C_50
REMARK    8  A    between atoms: O_7  and  C_40
REMARK    9  A    between atoms: O_7  and  C_56
REMARK   10  A    between atoms: O_9  and  C_46
REMARK   11  A    between atoms: N_11  and  C_30
REMARK   12  A    between atoms: C_17  and  C_23
REMARK   13  A    between atoms: C_18  and  C_28
REMARK   14  A    between atoms: C_23  and  C_32
REMARK   15  A    between atoms: C_33  and  C_35
REMARK   16  A    between atoms: C_35  and  C_40
REMARK   17  A    between atoms: C_36  and  C_41
REMARK   18  A    between atoms: C_46  and  C_53
REMARK   19  A    between atoms: C_53  and  C_57
REMARK                            x       y       z     vdW  Elec       q    Type
REMARK                         _______ _______ _______ _____ _____    ______ ____
ROOT
ATOM      1  N   UNL     1     -18.540   4.330  15.885  0.00  0.00    +0.000 NA
ATOM      2  N   UNL     1     -16.225   3.322  19.935  0.00  0.00    +0.000 N 
ATOM      3  C   UNL     1     -17.401   3.875  17.868  0.00  0.00    +0.000 C 
ATOM      4  C   UNL     1     -18.115   5.015  17.121  0.00  0.00    +0.000 C 
ATOM      5  C   UNL     1     -16.508   4.442  18.990  0.00  0.00    +0.000 C 
ATOM      6  C   UNL     1     -17.225   6.333  16.958  0.00  0.00    +0.000 C 
ATOM      7  C   UNL     1     -15.340   5.332  18.533  0.00  0.00    +0.000 C 
ATOM      8  C   UNL     1     -16.789   2.993  16.763  0.00  0.00    +0.000 C 
ATOM      9  C   UNL     1     -15.672   6.075  17.198  0.00  0.00    +0.000 C 
ATOM     10  C   UNL     1     -18.225   2.956  18.749  0.00  0.00    +0.000 A 
ATOM     11  C   UNL     1     -17.467   3.436  15.468  0.00  0.00    +0.000 C 
ATOM     12  C   UNL     1     -17.474   2.629  19.887  0.00  0.00    +0.000 A 
ATOM     13  C   UNL     1     -17.383   6.948  15.565  0.00  0.00    +0.000 C 
ATOM     14  C   UNL     1     -19.022   5.212  14.833  0.00  0.00    +0.000 C 
ATOM     15  C   UNL     1     -18.200   6.443  14.630  0.00  0.00    +0.000 C 
ATOM     16  C   UNL     1     -19.490   2.424  18.523  0.00  0.00    +0.000 A 
ATOM     17  C   UNL     1     -15.777   3.672  21.282  0.00  0.00    +0.000 C 
ATOM     18  C   UNL     1     -17.978   1.721  20.799  0.00  0.00    +0.000 A 
ATOM     19  C   UNL     1     -20.034   1.500  19.437  0.00  0.00    +0.000 A 
ATOM     20  C   UNL     1     -19.243   1.155  20.572  0.00  0.00    +0.000 A 
ENDROOT
BRANCH  19  23
ATOM     21  N   UNL     1     -25.310  -0.661  17.999  0.00  0.00    +0.000 NA
ATOM     22  N   UNL     1     -20.153  -1.307  18.883  0.00  0.00    +0.000 N 
ATOM     23  C   UNL     1     -21.456   0.844  19.216  0.00  0.00    +0.000 C 
ATOM     24  C   UNL     1     -22.072   1.255  17.801  0.00  0.00    +0.000 C 
ATOM     25  C   UNL     1     -21.357  -0.719  19.236  0.00  0.00    +0.000 A 
ATOM     26  C   UNL     1     -23.270   0.433  17.299  0.00  0.00    +0.000 C 
ATOM     27  C   UNL     1     -23.724   0.760  15.877  0.00  0.00    +0.000 C 
ATOM     28  C   UNL     1     -24.509   0.537  18.176  0.00  0.00    +0.000 C 
ATOM     29  C   UNL     1     -22.260  -1.777  19.445  0.00  0.00    +0.000 A 
ATOM     30  C   UNL     1     -24.915  -0.141  15.433  0.00  0.00    +0.000 C 
ATOM     31  C   UNL     1     -25.765  -0.796  16.597  0.00  0.00    +0.000 C 
ATOM     32  C   UNL     1     -23.745  -1.780  19.770  0.00  0.00    +0.000 C 
ATOM     33  C   UNL     1     -24.669  -1.896  18.520  0.00  0.00    +0.000 C 
ATOM     34  C   UNL     1     -21.522  -3.004  19.252  0.00  0.00    +0.000 A 
ATOM     35  C   UNL     1     -20.220  -2.672  18.906  0.00  0.00    +0.000 A 
ATOM     36  C   UNL     1     -21.859  -4.374  19.326  0.00  0.00    +0.000 A 
ATOM     37  C   UNL     1     -19.230  -3.625  18.638  0.00  0.00    +0.000 A 
ATOM     38  C   UNL     1     -20.885  -5.345  19.063  0.00  0.00    +0.000 A 
ATOM     39  C   UNL     1     -19.588  -4.972  18.724  0.00  0.00    +0.000 A 
ATOM     40  H   UNL     1     -19.311  -0.795  18.654  0.00  0.00    +0.000 HD
BRANCH  23  42
ATOM     41  O   UNL     1     -22.724   0.794  21.376  0.00  0.00    +0.000 OA
ATOM     42  C   UNL     1     -22.344   1.397  20.380  0.00  0.00    +0.000 C 
BRANCH  42  43
ATOM     43  O   UNL     1     -22.639   2.721  20.155  0.00  0.00    +0.000 OA
ATOM     44  C   UNL     1     -22.437   3.560  21.291  0.00  0.00    +0.000 C 
ENDBRANCH  42  43
ENDBRANCH  23  42
BRANCH  30  45
ATOM     45  O   UNL     1     -25.803   0.736  14.696  0.00  0.00    +0.000 OA
ATOM     46  H   UNL     1     -26.689   0.334  14.714  0.00  0.00    +0.000 HD
ENDBRANCH  30  45
BRANCH  30  47
ATOM     47  C   UNL     1     -24.474  -1.188  14.383  0.00  0.00    +0.000 C 
ATOM     48  C   UNL     1     -23.775  -2.428  14.912  0.00  0.00    +0.000 C 
ENDBRANCH  30  47
ENDBRANCH  19  23
BRANCH   7  49
ATOM     49  O   UNL     1     -15.220   6.374  19.555  0.00  0.00    +0.000 OA
ATOM     50  H   UNL     1     -14.551   6.050  20.193  0.00  0.00    +0.000 HD
ENDBRANCH   7  49
BRANCH   7  52
ATOM     51  O   UNL     1     -13.847   3.379  18.178  0.00  0.00    +0.000 OA
ATOM     52  C   UNL     1     -13.999   4.559  18.464  0.00  0.00    +0.000 C 
BRANCH  52  53
ATOM     53  O   UNL     1     -12.956   5.423  18.697  0.00  0.00    +0.000 OA
ATOM     54  C   UNL     1     -11.773   5.117  17.958  0.00  0.00    +0.000 C 
ENDBRANCH  52  53
ENDBRANCH   7  52
BRANCH  20  55
ATOM     55  O   UNL     1     -19.794   0.286  21.480  0.00  0.00    +0.000 OA
ATOM     56  C   UNL     1     -18.857  -0.488  22.224  0.00  0.00    +0.000 C 
ENDBRANCH  20  55
BRANCH   6  57
ATOM     57  C   UNL     1     -17.712   7.429  17.976  0.00  0.00    +0.000 C 
ATOM     58  C   UNL     1     -19.061   7.181  18.653  0.00  0.00    +0.000 C 
ENDBRANCH   6  57
BRANCH   9  59
ATOM     59  O   UNL     1     -15.146   5.380  16.042  0.00  0.00    +0.000 OA
BRANCH  59  61
ATOM     60  O   UNL     1     -13.599   7.006  15.581  0.00  0.00    +0.000 OA
ATOM     61  C   UNL     1     -14.309   6.075  15.226  0.00  0.00    +0.000 C 
ATOM     62  C   UNL     1     -14.355   5.513  13.839  0.00  0.00    +0.000 C 
ENDBRANCH  59  61
ENDBRANCH   9  59
TORSDOF 12
ENDMDL
MODEL 7
REMARK VINA RESULT:      -5.4     19.432     24.778
REMARK  Name = 
REMARK  19 active torsions:
REMARK  status: ('A' for Active; 'I' for Inactive)
REMARK    1  A    between atoms: O_1  and  C_20
REMARK    2  A    between atoms: O_1  and  C_36
REMARK    3  A    between atoms: O_2  and  C_18
REMARK    4  A    between atoms: O_3  and  C_28
REMARK    5  A    between atoms: O_3  and  C_42
REMARK    6  A    between atoms: O_5  and  C_34
REMARK    7  A    between atoms: O_5  and  C_50
REMARK    8  A    between atoms: O_7  and  C_40
REMARK    9  A    between atoms: O_7  and  C_56
REMARK   10  A    between atoms: O_9  and  C_46
REMARK   11  A    between atoms: N_11  and  C_30
REMARK   12  A    between atoms: C_17  and  C_23
REMARK   13  A    between atoms: C_18  and  C_28
REMARK   14  A    between atoms: C_23  and  C_32
REMARK   15  A    between atoms: C_33  and  C_35
REMARK   16  A    between atoms: C_35  and  C_40
REMARK   17  A    between atoms: C_36  and  C_41
REMARK   18  A    between atoms: C_46  and  C_53
REMARK   19  A    between atoms: C_53  and  C_57
REMARK                            x       y       z     vdW  Elec       q    Type
REMARK                         _______ _______ _______ _____ _____    ______ ____
ROOT
ATOM      1  N   UNL     1     -11.055 -15.545   5.308  0.00  0.00    +0.000 NA
ATOM      2  N   UNL     1      -7.923 -17.172   2.095  0.00  0.00    +0.000 N 
ATOM      3  C   UNL     1      -9.542 -16.374   3.740  0.00  0.00    +0.000 C 
ATOM      4  C   UNL     1     -10.933 -16.648   4.337  0.00  0.00    +0.000 C 
ATOM      5  C   UNL     1      -9.012 -17.625   3.010  0.00  0.00    +0.000 C 
ATOM      6  C   UNL     1     -11.113 -18.136   4.893  0.00  0.00    +0.000 C 
ATOM      7  C   UNL     1      -8.767 -18.862   3.889  0.00  0.00    +0.000 C 
ATOM      8  C   UNL     1      -8.730 -15.748   4.890  0.00  0.00    +0.000 C 
ATOM      9  C   UNL     1      -9.730 -18.891   5.122  0.00  0.00    +0.000 C 
ATOM     10  C   UNL     1      -9.429 -15.425   2.564  0.00  0.00    +0.000 A 
ATOM     11  C   UNL     1      -9.759 -15.357   5.948  0.00  0.00    +0.000 C 
ATOM     12  C   UNL     1      -8.445 -15.905   1.688  0.00  0.00    +0.000 A 
ATOM     13  C   UNL     1     -11.874 -18.151   6.221  0.00  0.00    +0.000 C 
ATOM     14  C   UNL     1     -12.166 -15.670   6.239  0.00  0.00    +0.000 C 
ATOM     15  C   UNL     1     -12.350 -17.041   6.804  0.00  0.00    +0.000 C 
ATOM     16  C   UNL     1     -10.097 -14.226   2.335  0.00  0.00    +0.000 A 
ATOM     17  C   UNL     1      -7.554 -18.059   0.993  0.00  0.00    +0.000 C 
ATOM     18  C   UNL     1      -8.092 -15.156   0.582  0.00  0.00    +0.000 A 
ATOM     19  C   UNL     1      -9.764 -13.442   1.213  0.00  0.00    +0.000 A 
ATOM     20  C   UNL     1      -8.739 -13.931   0.351  0.00  0.00    +0.000 A 
ENDROOT
BRANCH  19  23
ATOM     21  N   UNL     1     -12.681  -8.360   0.731  0.00  0.00    +0.000 NA
ATOM     22  N   UNL     1      -8.206 -11.051   1.449  0.00  0.00    +0.000 N 
ATOM     23  C   UNL     1     -10.472 -12.059   0.919  0.00  0.00    +0.000 C 
ATOM     24  C   UNL     1     -11.466 -11.653   2.101  0.00  0.00    +0.000 C 
ATOM     25  C   UNL     1      -9.416 -10.909   0.792  0.00  0.00    +0.000 A 
ATOM     26  C   UNL     1     -11.955 -10.195   2.128  0.00  0.00    +0.000 C 
ATOM     27  C   UNL     1     -12.775  -9.815   3.360  0.00  0.00    +0.000 C 
ATOM     28  C   UNL     1     -12.790  -9.796   0.920  0.00  0.00    +0.000 C 
ATOM     29  C   UNL     1      -9.399  -9.625   0.218  0.00  0.00    +0.000 A 
ATOM     30  C   UNL     1     -13.198  -8.316   3.327  0.00  0.00    +0.000 C 
ATOM     31  C   UNL     1     -13.209  -7.626   1.902  0.00  0.00    +0.000 C 
ATOM     32  C   UNL     1     -10.459  -8.856  -0.554  0.00  0.00    +0.000 C 
ATOM     33  C   UNL     1     -11.325  -7.907   0.329  0.00  0.00    +0.000 C 
ATOM     34  C   UNL     1      -8.110  -9.046   0.522  0.00  0.00    +0.000 A 
ATOM     35  C   UNL     1      -7.399  -9.960   1.285  0.00  0.00    +0.000 A 
ATOM     36  C   UNL     1      -7.495  -7.809   0.225  0.00  0.00    +0.000 A 
ATOM     37  C   UNL     1      -6.105  -9.719   1.763  0.00  0.00    +0.000 A 
ATOM     38  C   UNL     1      -6.202  -7.547   0.691  0.00  0.00    +0.000 A 
ATOM     39  C   UNL     1      -5.518  -8.491   1.450  0.00  0.00    +0.000 A 
ATOM     40  H   UNL     1      -7.932 -11.871   1.975  0.00  0.00    +0.000 HD
BRANCH  23  42
ATOM     41  O   UNL     1     -11.009 -11.828  -1.517  0.00  0.00    +0.000 OA
ATOM     42  C   UNL     1     -11.267 -12.284  -0.410  0.00  0.00    +0.000 C 
BRANCH  42  43
ATOM     43  O   UNL     1     -12.331 -13.126  -0.183  0.00  0.00    +0.000 OA
ATOM     44  C   UNL     1     -13.428 -12.926  -1.073  0.00  0.00    +0.000 C 
ENDBRANCH  42  43
ENDBRANCH  23  42
BRANCH  30  45
ATOM     45  O   UNL     1     -14.560  -8.293   3.825  0.00  0.00    +0.000 OA
ATOM     46  H   UNL     1     -14.672  -7.466   4.327  0.00  0.00    +0.000 HD
ENDBRANCH  30  45
BRANCH  30  47
ATOM     47  C   UNL     1     -12.412  -7.481   4.365  0.00  0.00    +0.000 C 
ATOM     48  C   UNL     1     -11.730  -8.254   5.481  0.00  0.00    +0.000 C 
ENDBRANCH  30  47
ENDBRANCH  19  23
BRANCH   7  49
ATOM     49  O   UNL     1      -9.140 -20.010   3.060  0.00  0.00    +0.000 OA
ATOM     50  H   UNL     1      -9.248 -19.661   2.151  0.00  0.00    +0.000 HD
ENDBRANCH   7  49
BRANCH   7  52
ATOM     51  O   UNL     1      -6.461 -18.116   4.430  0.00  0.00    +0.000 OA
ATOM     52  C   UNL     1      -7.280 -19.015   4.295  0.00  0.00    +0.000 C 
BRANCH  52  53
ATOM     53  O   UNL     1      -7.011 -20.334   4.571  0.00  0.00    +0.000 OA
ATOM     54  C   UNL     1      -5.955 -20.525   5.515  0.00  0.00    +0.000 C 
ENDBRANCH  52  53
ENDBRANCH   7  52
BRANCH  20  55
ATOM     55  O   UNL     1      -8.445 -13.184  -0.762  0.00  0.00    +0.000 OA
ATOM     56  C   UNL     1      -7.085 -13.229  -1.182  0.00  0.00    +0.000 C 
ENDBRANCH  20  55
BRANCH   6  57
ATOM     57  C   UNL     1     -11.980 -18.976   3.885  0.00  0.00    +0.000 C 
ATOM     58  C   UNL     1     -12.461 -20.344   4.374  0.00  0.00    +0.000 C 
ENDBRANCH   6  57
BRANCH   9  59
ATOM     59  O   UNL     1      -9.109 -18.347   6.311  0.00  0.00    +0.000 OA
BRANCH  59  61
ATOM     60  O   UNL     1      -9.124 -20.402   7.324  0.00  0.00    +0.000 OA
ATOM     61  C   UNL     1      -8.909 -19.198   7.353  0.00  0.00    +0.000 C 
ATOM     62  C   UNL     1      -8.355 -18.454   8.528  0.00  0.00    +0.000 C 
ENDBRANCH  59  61
ENDBRANCH   9  59
TORSDOF 12
ENDMDL
MODEL 8
REMARK VINA RESULT:      -5.4     25.489     31.359
REMARK  Name = 
REMARK  19 active torsions:
REMARK  status: ('A' for Active; 'I' for Inactive)
REMARK    1  A    between atoms: O_1  and  C_20
REMARK    2  A    between atoms: O_1  and  C_36
REMARK    3  A    between atoms: O_2  and  C_18
REMARK    4  A    between atoms: O_3  and  C_28
REMARK    5  A    between atoms: O_3  and  C_42
REMARK    6  A    between atoms: O_5  and  C_34
REMARK    7  A    between atoms: O_5  and  C_50
REMARK    8  A    between atoms: O_7  and  C_40
REMARK    9  A    between atoms: O_7  and  C_56
REMARK   10  A    between atoms: O_9  and  C_46
REMARK   11  A    between atoms: N_11  and  C_30
REMARK   12  A    between atoms: C_17  and  C_23
REMARK   13  A    between atoms: C_18  and  C_28
REMARK   14  A    between atoms: C_23  and  C_32
REMARK   15  A    between atoms: C_33  and  C_35
REMARK   16  A    between atoms: C_35  and  C_40
REMARK   17  A    between atoms: C_36  and  C_41
REMARK   18  A    between atoms: C_46  and  C_53
REMARK   19  A    between atoms: C_53  and  C_57
REMARK                            x       y       z     vdW  Elec       q    Type
REMARK                         _______ _______ _______ _____ _____    ______ ____
ROOT
ATOM      1  N   UNL     1      -9.298 -10.456  29.329  0.00  0.00    +0.000 NA
ATOM      2  N   UNL     1     -13.583 -10.862  27.268  0.00  0.00    +0.000 N 
ATOM      3  C   UNL     1     -11.384 -10.623  28.301  0.00  0.00    +0.000 C 
ATOM      4  C   UNL     1      -9.980 -10.028  28.094  0.00  0.00    +0.000 C 
ATOM      5  C   UNL     1     -12.397  -9.958  27.348  0.00  0.00    +0.000 C 
ATOM      6  C   UNL     1      -9.986  -8.464  27.766  0.00  0.00    +0.000 C 
ATOM      7  C   UNL     1     -12.632  -8.453  27.560  0.00  0.00    +0.000 C 
ATOM      8  C   UNL     1     -11.613 -10.584  29.824  0.00  0.00    +0.000 C 
ATOM      9  C   UNL     1     -11.360  -7.750  28.140  0.00  0.00    +0.000 C 
ATOM     10  C   UNL     1     -11.640 -12.051  27.860  0.00  0.00    +0.000 A 
ATOM     11  C   UNL     1     -10.238 -10.327  30.436  0.00  0.00    +0.000 C 
ATOM     12  C   UNL     1     -12.936 -12.134  27.333  0.00  0.00    +0.000 A 
ATOM     13  C   UNL     1      -8.866  -7.729  28.507  0.00  0.00    +0.000 C 
ATOM     14  C   UNL     1      -8.010  -9.822  29.567  0.00  0.00    +0.000 C 
ATOM     15  C   UNL     1      -7.982  -8.352  29.299  0.00  0.00    +0.000 C 
ATOM     16  C   UNL     1     -10.819 -13.167  27.976  0.00  0.00    +0.000 A 
ATOM     17  C   UNL     1     -14.483 -10.695  26.128  0.00  0.00    +0.000 C 
ATOM     18  C   UNL     1     -13.439 -13.363  26.949  0.00  0.00    +0.000 A 
ATOM     19  C   UNL     1     -11.299 -14.433  27.589  0.00  0.00    +0.000 A 
ATOM     20  C   UNL     1     -12.631 -14.504  27.084  0.00  0.00    +0.000 A 
ENDROOT
BRANCH  19  23
ATOM     21  N   UNL     1      -8.605 -19.625  28.186  0.00  0.00    +0.000 NA
ATOM     22  N   UNL     1     -10.265 -15.615  25.195  0.00  0.00    +0.000 N 
ATOM     23  C   UNL     1     -10.418 -15.739  27.723  0.00  0.00    +0.000 C 
ATOM     24  C   UNL     1     -11.315 -17.010  28.087  0.00  0.00    +0.000 C 
ATOM     25  C   UNL     1      -9.692 -16.062  26.373  0.00  0.00    +0.000 A 
ATOM     26  C   UNL     1     -10.667 -18.393  27.909  0.00  0.00    +0.000 C 
ATOM     27  C   UNL     1     -11.609 -19.577  28.119  0.00  0.00    +0.000 C 
ATOM     28  C   UNL     1      -9.467 -18.639  28.813  0.00  0.00    +0.000 C 
ATOM     29  C   UNL     1      -8.572 -16.824  25.996  0.00  0.00    +0.000 A 
ATOM     30  C   UNL     1     -10.885 -20.936  27.884  0.00  0.00    +0.000 C 
ATOM     31  C   UNL     1      -9.307 -20.916  28.014  0.00  0.00    +0.000 C 
ATOM     32  C   UNL     1      -7.589 -17.640  26.821  0.00  0.00    +0.000 C 
ATOM     33  C   UNL     1      -7.955 -19.150  26.937  0.00  0.00    +0.000 C 
ATOM     34  C   UNL     1      -8.484 -16.758  24.556  0.00  0.00    +0.000 A 
ATOM     35  C   UNL     1      -9.549 -15.999  24.096  0.00  0.00    +0.000 A 
ATOM     36  C   UNL     1      -7.593 -17.299  23.601  0.00  0.00    +0.000 A 
ATOM     37  C   UNL     1      -9.776 -15.737  22.739  0.00  0.00    +0.000 A 
ATOM     38  C   UNL     1      -7.799 -17.049  22.239  0.00  0.00    +0.000 A 
ATOM     39  C   UNL     1      -8.877 -16.278  21.816  0.00  0.00    +0.000 A 
ATOM     40  H   UNL     1     -11.103 -15.050  25.143  0.00  0.00    +0.000 HD
BRANCH  23  42
ATOM     41  O   UNL     1      -8.236 -15.103  28.775  0.00  0.00    +0.000 OA
ATOM     42  C   UNL     1      -9.410 -15.433  28.880  0.00  0.00    +0.000 C 
BRANCH  42  43
ATOM     43  O   UNL     1     -10.042 -15.556  30.096  0.00  0.00    +0.000 OA
ATOM     44  C   UNL     1      -9.149 -15.686  31.202  0.00  0.00    +0.000 C 
ENDBRANCH  42  43
ENDBRANCH  23  42
BRANCH  30  45
ATOM     45  O   UNL     1     -11.389 -21.820  28.916  0.00  0.00    +0.000 OA
ATOM     46  H   UNL     1     -11.874 -21.271  29.557  0.00  0.00    +0.000 HD
ENDBRANCH  30  45
BRANCH  30  47
ATOM     47  C   UNL     1     -11.346 -21.605  26.567  0.00  0.00    +0.000 C 
ATOM     48  C   UNL     1     -12.513 -20.953  25.847  0.00  0.00    +0.000 C 
ENDBRANCH  30  47
ENDBRANCH  19  23
BRANCH   7  49
ATOM     49  O   UNL     1     -12.825  -7.896  26.220  0.00  0.00    +0.000 OA
ATOM     50  H   UNL     1     -12.034  -7.348  26.039  0.00  0.00    +0.000 HD
ENDBRANCH   7  49
BRANCH   7  52
ATOM     51  O   UNL     1     -14.155  -8.591  29.516  0.00  0.00    +0.000 OA
ATOM     52  C   UNL     1     -13.902  -8.165  28.398  0.00  0.00    +0.000 C 
BRANCH  52  53
ATOM     53  O   UNL     1     -14.702  -7.270  27.728  0.00  0.00    +0.000 OA
ATOM     54  C   UNL     1     -15.118  -6.157  28.522  0.00  0.00    +0.000 C 
ENDBRANCH  52  53
ENDBRANCH   7  52
BRANCH  20  55
ATOM     55  O   UNL     1     -13.081 -15.733  26.670  0.00  0.00    +0.000 OA
ATOM     56  C   UNL     1     -14.488 -15.827  26.468  0.00  0.00    +0.000 C 
ENDBRANCH  20  55
BRANCH   6  57
ATOM     57  C   UNL     1      -9.711  -8.243  26.233  0.00  0.00    +0.000 C 
ATOM     58  C   UNL     1      -8.624  -7.228  25.873  0.00  0.00    +0.000 C 
ENDBRANCH   6  57
BRANCH   9  59
ATOM     59  O   UNL     1     -11.422  -7.614  29.580  0.00  0.00    +0.000 OA
BRANCH  59  61
ATOM     60  O   UNL     1     -11.806  -5.358  29.477  0.00  0.00    +0.000 OA
ATOM     61  C   UNL     1     -11.434  -6.352  30.085  0.00  0.00    +0.000 C 
ATOM     62  C   UNL     1     -10.960  -6.360  31.505  0.00  0.00    +0.000 C 
ENDBRANCH  59  61
ENDBRANCH   9  59
TORSDOF 12
ENDMDL
MODEL 9
REMARK VINA RESULT:      -5.2     25.135     30.726
REMARK  Name = 
REMARK  19 active torsions:
REMARK  status: ('A' for Active; 'I' for Inactive)
REMARK    1  A    between atoms: O_1  and  C_20
REMARK    2  A    between atoms: O_1  and  C_36
REMARK    3  A    between atoms: O_2  and  C_18
REMARK    4  A    between atoms: O_3  and  C_28
REMARK    5  A    between atoms: O_3  and  C_42
REMARK    6  A    between atoms: O_5  and  C_34
REMARK    7  A    between atoms: O_5  and  C_50
REMARK    8  A    between atoms: O_7  and  C_40
REMARK    9  A    between atoms: O_7  and  C_56
REMARK   10  A    between atoms: O_9  and  C_46
REMARK   11  A    between atoms: N_11  and  C_30
REMARK   12  A    between atoms: C_17  and  C_23
REMARK   13  A    between atoms: C_18  and  C_28
REMARK   14  A    between atoms: C_23  and  C_32
REMARK   15  A    between atoms: C_33  and  C_35
REMARK   16  A    between atoms: C_35  and  C_40
REMARK   17  A    between atoms: C_36  and  C_41
REMARK   18  A    between atoms: C_46  and  C_53
REMARK   19  A    between atoms: C_53  and  C_57
REMARK                            x       y       z     vdW  Elec       q    Type
REMARK                         _______ _______ _______ _____ _____    ______ ____
ROOT
ATOM      1  N   UNL     1     -13.141  -8.974  27.424  0.00  0.00    +0.000 NA
ATOM      2  N   UNL     1      -8.943 -10.636  28.969  0.00  0.00    +0.000 N 
ATOM      3  C   UNL     1     -11.090  -9.759  28.207  0.00  0.00    +0.000 C 
ATOM      4  C   UNL     1     -12.333  -8.971  28.657  0.00  0.00    +0.000 C 
ATOM      5  C   UNL     1      -9.922  -9.529  29.186  0.00  0.00    +0.000 C 
ATOM      6  C   UNL     1     -11.993  -7.551  29.306  0.00  0.00    +0.000 C 
ATOM      7  C   UNL     1      -9.395  -8.088  29.277  0.00  0.00    +0.000 C 
ATOM      8  C   UNL     1     -10.925  -9.424  26.712  0.00  0.00    +0.000 C 
ATOM      9  C   UNL     1     -10.521  -7.045  28.973  0.00  0.00    +0.000 C 
ATOM     10  C   UNL     1     -11.111 -11.272  28.312  0.00  0.00    +0.000 A 
ATOM     11  C   UNL     1     -12.244  -8.781  26.291  0.00  0.00    +0.000 C 
ATOM     12  C   UNL     1      -9.838 -11.715  28.694  0.00  0.00    +0.000 A 
ATOM     13  C   UNL     1     -12.971  -6.470  28.838  0.00  0.00    +0.000 C 
ATOM     14  C   UNL     1     -14.282  -8.071  27.439  0.00  0.00    +0.000 C 
ATOM     15  C   UNL     1     -13.998  -6.721  28.013  0.00  0.00    +0.000 C 
ATOM     16  C   UNL     1     -12.147 -12.157  28.035  0.00  0.00    +0.000 A 
ATOM     17  C   UNL     1      -7.979 -10.903  30.035  0.00  0.00    +0.000 C 
ATOM     18  C   UNL     1      -9.580 -13.071  28.764  0.00  0.00    +0.000 A 
ATOM     19  C   UNL     1     -11.919 -13.545  28.102  0.00  0.00    +0.000 A 
ATOM     20  C   UNL     1     -10.608 -13.979  28.462  0.00  0.00    +0.000 A 
ENDROOT
BRANCH  19  23
ATOM     21  N   UNL     1     -16.491 -16.936  26.628  0.00  0.00    +0.000 NA
ATOM     22  N   UNL     1     -11.566 -15.238  25.820  0.00  0.00    +0.000 N 
ATOM     23  C   UNL     1     -13.052 -14.597  27.773  0.00  0.00    +0.000 C 
ATOM     24  C   UNL     1     -14.350 -13.884  27.173  0.00  0.00    +0.000 C 
ATOM     25  C   UNL     1     -12.560 -15.629  26.701  0.00  0.00    +0.000 A 
ATOM     26  C   UNL     1     -15.387 -14.789  26.488  0.00  0.00    +0.000 C 
ATOM     27  C   UNL     1     -16.529 -14.048  25.796  0.00  0.00    +0.000 C 
ATOM     28  C   UNL     1     -16.039 -15.804  27.417  0.00  0.00    +0.000 C 
ATOM     29  C   UNL     1     -12.951 -16.919  26.301  0.00  0.00    +0.000 A 
ATOM     30  C   UNL     1     -17.513 -15.034  25.096  0.00  0.00    +0.000 C 
ATOM     31  C   UNL     1     -17.506 -16.523  25.635  0.00  0.00    +0.000 C 
ATOM     32  C   UNL     1     -14.045 -17.842  26.813  0.00  0.00    +0.000 C 
ATOM     33  C   UNL     1     -15.388 -17.732  26.030  0.00  0.00    +0.000 C 
ATOM     34  C   UNL     1     -12.108 -17.286  25.186  0.00  0.00    +0.000 A 
ATOM     35  C   UNL     1     -11.262 -16.220  24.918  0.00  0.00    +0.000 A 
ATOM     36  C   UNL     1     -12.007 -18.434  24.368  0.00  0.00    +0.000 A 
ATOM     37  C   UNL     1     -10.313 -16.232  23.889  0.00  0.00    +0.000 A 
ATOM     38  C   UNL     1     -11.064 -18.469  23.333  0.00  0.00    +0.000 A 
ATOM     39  C   UNL     1     -10.230 -17.382  23.099  0.00  0.00    +0.000 A 
ATOM     40  H   UNL     1     -11.097 -14.342  25.846  0.00  0.00    +0.000 HD
BRANCH  23  42
ATOM     41  O   UNL     1     -13.085 -16.408  29.503  0.00  0.00    +0.000 OA
ATOM     42  C   UNL     1     -13.387 -15.278  29.141  0.00  0.00    +0.000 C 
BRANCH  42  43
ATOM     43  O   UNL     1     -14.071 -14.398  29.947  0.00  0.00    +0.000 OA
ATOM     44  C   UNL     1     -13.634 -14.396  31.305  0.00  0.00    +0.000 C 
ENDBRANCH  42  43
ENDBRANCH  23  42
BRANCH  30  45
ATOM     45  O   UNL     1     -18.835 -14.494  25.346  0.00  0.00    +0.000 OA
ATOM     46  H   UNL     1     -18.739 -13.780  26.001  0.00  0.00    +0.000 HD
ENDBRANCH  30  45
BRANCH  30  47
ATOM     47  C   UNL     1     -17.375 -14.977  23.557  0.00  0.00    +0.000 C 
ATOM     48  C   UNL     1     -17.730 -13.658  22.892  0.00  0.00    +0.000 C 
ENDBRANCH  30  47
ENDBRANCH  19  23
BRANCH   7  49
ATOM     49  O   UNL     1      -9.033  -7.892  30.682  0.00  0.00    +0.000 OA
ATOM     50  H   UNL     1      -8.956  -8.789  31.068  0.00  0.00    +0.000 HD
ENDBRANCH   7  49
BRANCH   7  52
ATOM     51  O   UNL     1      -7.951  -8.246  27.263  0.00  0.00    +0.000 OA
ATOM     52  C   UNL     1      -8.130  -7.864  28.411  0.00  0.00    +0.000 C 
BRANCH  52  53
ATOM     53  O   UNL     1      -7.232  -7.084  29.100  0.00  0.00    +0.000 OA
ATOM     54  C   UNL     1      -6.360  -6.325  28.260  0.00  0.00    +0.000 C 
ENDBRANCH  52  53
ENDBRANCH   7  52
BRANCH  20  55
ATOM     55  O   UNL     1     -10.401 -15.331  28.566  0.00  0.00    +0.000 OA
ATOM     56  C   UNL     1      -9.553 -15.734  29.637  0.00  0.00    +0.000 C 
ENDBRANCH  20  55
BRANCH   6  57
ATOM     57  C   UNL     1     -12.151  -7.632  30.870  0.00  0.00    +0.000 C 
ATOM     58  C   UNL     1     -12.878  -8.860  31.420  0.00  0.00    +0.000 C 
ENDBRANCH   6  57
BRANCH   9  59
ATOM     59  O   UNL     1     -10.496  -6.603  27.594  0.00  0.00    +0.000 OA
BRANCH  59  61
ATOM     60  O   UNL     1      -9.170  -5.221  26.337  0.00  0.00    +0.000 OA
ATOM     61  C   UNL     1      -9.856  -5.433  27.327  0.00  0.00    +0.000 C 
ATOM     62  C   UNL     1     -10.141  -4.432  28.403  0.00  0.00    +0.000 C 
ENDBRANCH  59  61
ENDBRANCH   9  59
TORSDOF 12
ENDMDL
