MODEL 1
REMARK VINA RESULT:      -4.5      0.000      0.000
REMARK  Name = Vorinostat.pdbqt.pdb
REMARK  6 active torsions:
REMARK  status: ('A' for Active; 'I' for Inactive)
REMARK    1  A    between atoms: C_1  and  C_2
REMARK    2  A    between atoms: C_3  and  C_4
REMARK    3  A    between atoms: C_5  and  C_8
REMARK    4  A    between atoms: N_7  and  O_10
REMARK    5  A    between atoms: C_12  and  C_15
REMARK    6  A    between atoms: N_14  and  C_17
REMARK                            x       y       z     vdW  Elec       q    Type
REMARK                         _______ _______ _______ _____ _____    ______ ____
ROOT
ATOM      1  C   UNL     1     -10.739   4.039   1.133  0.00  0.00    +0.000 C 
ATOM      2  C   UNL     1      -9.454   4.760   1.547  0.00  0.00    +0.000 C 
ENDROOT
BRANCH   2   5
ATOM      3  O   UNL     1      -7.229   4.775   2.101  0.00  0.00    +0.000 OA
ATOM      4  N   UNL     1      -8.381   6.801   2.080  0.00  0.00    +0.000 N 
ATOM      5  C   UNL     1      -8.240   5.440   1.937  0.00  0.00    +0.000 C 
ATOM      6  H   UNL     1      -9.298   7.194   1.904  0.00  0.00    +0.000 HD
BRANCH   4   7
ATOM      7  C   UNL     1      -7.362   7.696   2.450  0.00  0.00    +0.000 A 
ATOM      8  C   UNL     1      -6.518   8.172   1.446  0.00  0.00    +0.000 A 
ATOM      9  C   UNL     1      -7.168   8.118   3.764  0.00  0.00    +0.000 A 
ATOM     10  C   UNL     1      -5.489   9.060   1.752  0.00  0.00    +0.000 A 
ATOM     11  C   UNL     1      -6.140   9.007   4.074  0.00  0.00    +0.000 A 
ATOM     12  C   UNL     1      -5.301   9.478   3.067  0.00  0.00    +0.000 A 
ENDBRANCH   4   7
ENDBRANCH   2   5
BRANCH   1  13
ATOM     13  C   UNL     1     -12.024   3.317   0.717  0.00  0.00    +0.000 C 
ATOM     14  C   UNL     1     -13.310   2.595   0.301  0.00  0.00    +0.000 C 
BRANCH  14  15
ATOM     15  C   UNL     1     -14.595   1.874  -0.115  0.00  0.00    +0.000 C 
ATOM     16  C   UNL     1     -15.882   1.154  -0.532  0.00  0.00    +0.000 C 
BRANCH  16  19
ATOM     17  O   UNL     1     -17.575   0.669  -2.033  0.00  0.00    +0.000 OA
ATOM     18  N   UNL     1     -17.630  -0.366   0.003  0.00  0.00    +0.000 N 
ATOM     19  C   UNL     1     -17.089   0.479  -0.924  0.00  0.00    +0.000 C 
ATOM     20  H   UNL     1     -17.221  -0.566   0.908  0.00  0.00    +0.000 HD
BRANCH  18  21
ATOM     21  O   UNL     1     -18.798  -1.073  -0.357  0.00  0.00    +0.000 OA
ATOM     22  H   UNL     1     -19.465  -0.357  -0.443  0.00  0.00    +0.000 HD
ENDBRANCH  18  21
ENDBRANCH  16  19
ENDBRANCH  14  15
ENDBRANCH   1  13
TORSDOF 6
ENDMDL
MODEL 2
REMARK VINA RESULT:      -4.4     28.448     31.091
REMARK  Name = Vorinostat.pdbqt.pdb
REMARK  6 active torsions:
REMARK  status: ('A' for Active; 'I' for Inactive)
REMARK    1  A    between atoms: C_1  and  C_2
REMARK    2  A    between atoms: C_3  and  C_4
REMARK    3  A    between atoms: C_5  and  C_8
REMARK    4  A    between atoms: N_7  and  O_10
REMARK    5  A    between atoms: C_12  and  C_15
REMARK    6  A    between atoms: N_14  and  C_17
REMARK                            x       y       z     vdW  Elec       q    Type
REMARK                         _______ _______ _______ _____ _____    ______ ____
ROOT
ATOM      1  C   UNL     1     -13.863 -10.759  25.820  0.00  0.00    +0.000 C 
ATOM      2  C   UNL     1     -15.180 -11.536  25.727  0.00  0.00    +0.000 C 
ENDROOT
BRANCH   2   5
ATOM      3  O   UNL     1     -16.417 -13.455  25.940  0.00  0.00    +0.000 OA
ATOM      4  N   UNL     1     -17.490 -11.516  25.216  0.00  0.00    +0.000 N 
ATOM      5  C   UNL     1     -16.420 -12.271  25.640  0.00  0.00    +0.000 C 
ATOM      6  H   UNL     1     -17.316 -10.540  25.008  0.00  0.00    +0.000 HD
BRANCH   4   7
ATOM      7  C   UNL     1     -18.805 -11.983  25.046  0.00  0.00    +0.000 A 
ATOM      8  C   UNL     1     -19.748 -11.639  26.015  0.00  0.00    +0.000 A 
ATOM      9  C   UNL     1     -19.194 -12.764  23.959  0.00  0.00    +0.000 A 
ATOM     10  C   UNL     1     -21.067 -12.073  25.899  0.00  0.00    +0.000 A 
ATOM     11  C   UNL     1     -20.513 -13.199  23.841  0.00  0.00    +0.000 A 
ATOM     12  C   UNL     1     -21.450 -12.853  24.811  0.00  0.00    +0.000 A 
ENDBRANCH   4   7
ENDBRANCH   2   5
BRANCH   1  13
ATOM     13  C   UNL     1     -12.547  -9.982  25.914  0.00  0.00    +0.000 C 
ATOM     14  C   UNL     1     -11.230  -9.205  26.008  0.00  0.00    +0.000 C 
BRANCH  14  15
ATOM     15  C   UNL     1      -9.914  -8.429  26.102  0.00  0.00    +0.000 C 
ATOM     16  C   UNL     1      -8.597  -7.651  26.195  0.00  0.00    +0.000 C 
BRANCH  16  19
ATOM     17  O   UNL     1      -6.964  -6.253  25.336  0.00  0.00    +0.000 OA
ATOM     18  N   UNL     1      -6.693  -7.018  27.472  0.00  0.00    +0.000 N 
ATOM     19  C   UNL     1      -7.362  -6.919  26.284  0.00  0.00    +0.000 C 
ATOM     20  H   UNL     1      -7.026  -7.530  28.279  0.00  0.00    +0.000 HD
BRANCH  18  21
ATOM     21  O   UNL     1      -5.493  -6.287  27.610  0.00  0.00    +0.000 OA
ATOM     22  H   UNL     1      -5.024  -6.483  26.769  0.00  0.00    +0.000 HD
ENDBRANCH  18  21
ENDBRANCH  16  19
ENDBRANCH  14  15
ENDBRANCH   1  13
TORSDOF 6
ENDMDL
MODEL 3
REMARK VINA RESULT:      -4.3     20.053     23.090
REMARK  Name = Vorinostat.pdbqt.pdb
REMARK  6 active torsions:
REMARK  status: ('A' for Active; 'I' for Inactive)
REMARK    1  A    between atoms: C_1  and  C_2
REMARK    2  A    between atoms: C_3  and  C_4
REMARK    3  A    between atoms: C_5  and  C_8
REMARK    4  A    between atoms: N_7  and  O_10
REMARK    5  A    between atoms: C_12  and  C_15
REMARK    6  A    between atoms: N_14  and  C_17
REMARK                            x       y       z     vdW  Elec       q    Type
REMARK                         _______ _______ _______ _____ _____    ______ ____
ROOT
ATOM      1  C   UNL     1     -11.006 -15.600   8.224  0.00  0.00    +0.000 C 
ATOM      2  C   UNL     1     -11.747 -16.197   9.424  0.00  0.00    +0.000 C 
ENDROOT
BRANCH   2   5
ATOM      3  O   UNL     1     -12.998 -17.841  10.418  0.00  0.00    +0.000 OA
ATOM      4  N   UNL     1     -12.397 -15.982  11.689  0.00  0.00    +0.000 N 
ATOM      5  C   UNL     1     -12.445 -16.761  10.556  0.00  0.00    +0.000 C 
ATOM      6  H   UNL     1     -11.891 -15.106  11.630  0.00  0.00    +0.000 HD
BRANCH   4   7
ATOM      7  C   UNL     1     -12.990 -16.295  12.924  0.00  0.00    +0.000 A 
ATOM      8  C   UNL     1     -14.050 -15.497  13.358  0.00  0.00    +0.000 A 
ATOM      9  C   UNL     1     -12.566 -17.359  13.718  0.00  0.00    +0.000 A 
ATOM     10  C   UNL     1     -14.677 -15.759  14.574  0.00  0.00    +0.000 A 
ATOM     11  C   UNL     1     -13.192 -17.624  14.935  0.00  0.00    +0.000 A 
ATOM     12  C   UNL     1     -14.248 -16.824  15.362  0.00  0.00    +0.000 A 
ENDBRANCH   4   7
ENDBRANCH   2   5
BRANCH   1  13
ATOM     13  C   UNL     1     -10.264 -15.001   7.026  0.00  0.00    +0.000 C 
ATOM     14  C   UNL     1      -9.521 -14.403   5.827  0.00  0.00    +0.000 C 
BRANCH  14  15
ATOM     15  C   UNL     1      -8.779 -13.806   4.628  0.00  0.00    +0.000 C 
ATOM     16  C   UNL     1      -8.037 -13.208   3.429  0.00  0.00    +0.000 C 
BRANCH  16  19
ATOM     17  O   UNL     1      -7.223 -11.430   2.190  0.00  0.00    +0.000 OA
ATOM     18  N   UNL     1      -6.835 -13.540   1.404  0.00  0.00    +0.000 N 
ATOM     19  C   UNL     1      -7.341 -12.644   2.304  0.00  0.00    +0.000 C 
ATOM     20  H   UNL     1      -6.888 -14.546   1.502  0.00  0.00    +0.000 HD
BRANCH  18  21
ATOM     21  O   UNL     1      -6.116 -13.027   0.303  0.00  0.00    +0.000 OA
ATOM     22  H   UNL     1      -6.078 -12.065   0.499  0.00  0.00    +0.000 HD
ENDBRANCH  18  21
ENDBRANCH  16  19
ENDBRANCH  14  15
ENDBRANCH   1  13
TORSDOF 6
ENDMDL
MODEL 4
REMARK VINA RESULT:      -4.3     22.986     25.696
REMARK  Name = Vorinostat.pdbqt.pdb
REMARK  6 active torsions:
REMARK  status: ('A' for Active; 'I' for Inactive)
REMARK    1  A    between atoms: C_1  and  C_2
REMARK    2  A    between atoms: C_3  and  C_4
REMARK    3  A    between atoms: C_5  and  C_8
REMARK    4  A    between atoms: N_7  and  O_10
REMARK    5  A    between atoms: C_12  and  C_15
REMARK    6  A    between atoms: N_14  and  C_17
REMARK                            x       y       z     vdW  Elec       q    Type
REMARK                         _______ _______ _______ _____ _____    ______ ____
ROOT
ATOM      1  C   UNL     1     -14.701 -16.007  14.867  0.00  0.00    +0.000 C 
ATOM      2  C   UNL     1     -13.983 -16.378  13.567  0.00  0.00    +0.000 C 
ENDROOT
BRANCH   2   5
ATOM      3  O   UNL     1     -13.448 -17.861  11.902  0.00  0.00    +0.000 OA
ATOM      4  N   UNL     1     -12.559 -15.709  11.799  0.00  0.00    +0.000 N 
ATOM      5  C   UNL     1     -13.306 -16.731  12.340  0.00  0.00    +0.000 C 
ATOM      6  H   UNL     1     -12.550 -14.827  12.296  0.00  0.00    +0.000 HD
BRANCH   4   7
ATOM      7  C   UNL     1     -11.804 -15.785  10.616  0.00  0.00    +0.000 A 
ATOM      8  C   UNL     1     -10.423 -15.942  10.734  0.00  0.00    +0.000 A 
ATOM      9  C   UNL     1     -12.379 -15.710   9.348  0.00  0.00    +0.000 A 
ATOM     10  C   UNL     1      -9.623 -16.022   9.596  0.00  0.00    +0.000 A 
ATOM     11  C   UNL     1     -11.581 -15.791   8.207  0.00  0.00    +0.000 A 
ATOM     12  C   UNL     1     -10.203 -15.947   8.332  0.00  0.00    +0.000 A 
ENDBRANCH   4   7
ENDBRANCH   2   5
BRANCH   1  13
ATOM     13  C   UNL     1     -15.421 -15.636  16.167  0.00  0.00    +0.000 C 
ATOM     14  C   UNL     1     -16.142 -15.266  17.467  0.00  0.00    +0.000 C 
BRANCH  14  15
ATOM     15  C   UNL     1     -16.862 -14.895  18.766  0.00  0.00    +0.000 C 
ATOM     16  C   UNL     1     -17.585 -14.526  20.066  0.00  0.00    +0.000 C 
BRANCH  16  19
ATOM     17  O   UNL     1     -19.442 -14.473  21.446  0.00  0.00    +0.000 OA
ATOM     18  N   UNL     1     -17.512 -13.528  22.223  0.00  0.00    +0.000 N 
ATOM     19  C   UNL     1     -18.263 -14.181  21.286  0.00  0.00    +0.000 C 
ATOM     20  H   UNL     1     -16.527 -13.315  22.125  0.00  0.00    +0.000 HD
BRANCH  18  21
ATOM     21  O   UNL     1     -18.133 -13.202  23.448  0.00  0.00    +0.000 OA
ATOM     22  H   UNL     1     -18.976 -12.788  23.159  0.00  0.00    +0.000 HD
ENDBRANCH  18  21
ENDBRANCH  16  19
ENDBRANCH  14  15
ENDBRANCH   1  13
TORSDOF 6
ENDMDL
MODEL 5
REMARK VINA RESULT:      -4.3     25.965     26.955
REMARK  Name = Vorinostat.pdbqt.pdb
REMARK  6 active torsions:
REMARK  status: ('A' for Active; 'I' for Inactive)
REMARK    1  A    between atoms: C_1  and  C_2
REMARK    2  A    between atoms: C_3  and  C_4
REMARK    3  A    between atoms: C_5  and  C_8
REMARK    4  A    between atoms: N_7  and  O_10
REMARK    5  A    between atoms: C_12  and  C_15
REMARK    6  A    between atoms: N_14  and  C_17
REMARK                            x       y       z     vdW  Elec       q    Type
REMARK                         _______ _______ _______ _____ _____    ______ ____
ROOT
ATOM      1  C   UNL     1      -7.168  -2.722  26.917  0.00  0.00    +0.000 C 
ATOM      2  C   UNL     1      -6.470  -1.363  27.030  0.00  0.00    +0.000 C 
ENDROOT
BRANCH   2   5
ATOM      3  O   UNL     1      -4.622  -0.062  27.418  0.00  0.00    +0.000 OA
ATOM      4  N   UNL     1      -6.634   0.993  26.895  0.00  0.00    +0.000 N 
ATOM      5  C   UNL     1      -5.810  -0.082  27.136  0.00  0.00    +0.000 C 
ATOM      6  H   UNL     1      -7.602   0.797  26.672  0.00  0.00    +0.000 HD
BRANCH   4   7
ATOM      7  C   UNL     1      -6.247   2.344  26.932  0.00  0.00    +0.000 A 
ATOM      8  C   UNL     1      -6.444   3.045  28.123  0.00  0.00    +0.000 A 
ATOM      9  C   UNL     1      -5.682   3.000  25.839  0.00  0.00    +0.000 A 
ATOM     10  C   UNL     1      -6.081   4.386  28.220  0.00  0.00    +0.000 A 
ATOM     11  C   UNL     1      -5.317   4.341  25.933  0.00  0.00    +0.000 A 
ATOM     12  C   UNL     1      -5.517   5.034  27.124  0.00  0.00    +0.000 A 
ENDBRANCH   4   7
ENDBRANCH   2   5
BRANCH   1  13
ATOM     13  C   UNL     1      -7.866  -4.079  26.802  0.00  0.00    +0.000 C 
ATOM     14  C   UNL     1      -8.565  -5.438  26.688  0.00  0.00    +0.000 C 
BRANCH  14  15
ATOM     15  C   UNL     1      -9.261  -6.797  26.573  0.00  0.00    +0.000 C 
ATOM     16  C   UNL     1      -9.959  -8.156  26.459  0.00  0.00    +0.000 C 
BRANCH  16  19
ATOM     17  O   UNL     1     -10.053 -10.453  26.732  0.00  0.00    +0.000 OA
ATOM     18  N   UNL     1     -11.874  -9.415  25.823  0.00  0.00    +0.000 N 
ATOM     19  C   UNL     1     -10.614  -9.432  26.354  0.00  0.00    +0.000 C 
ATOM     20  H   UNL     1     -12.369  -8.577  25.543  0.00  0.00    +0.000 HD
BRANCH  18  21
ATOM     21  O   UNL     1     -12.564 -10.643  25.734  0.00  0.00    +0.000 OA
ATOM     22  H   UNL     1     -12.812 -10.820  26.669  0.00  0.00    +0.000 HD
ENDBRANCH  18  21
ENDBRANCH  16  19
ENDBRANCH  14  15
ENDBRANCH   1  13
TORSDOF 6
ENDMDL
MODEL 6
REMARK VINA RESULT:      -4.2     23.940     25.606
REMARK  Name = Vorinostat.pdbqt.pdb
REMARK  6 active torsions:
REMARK  status: ('A' for Active; 'I' for Inactive)
REMARK    1  A    between atoms: C_1  and  C_2
REMARK    2  A    between atoms: C_3  and  C_4
REMARK    3  A    between atoms: C_5  and  C_8
REMARK    4  A    between atoms: N_7  and  O_10
REMARK    5  A    between atoms: C_12  and  C_15
REMARK    6  A    between atoms: N_14  and  C_17
REMARK                            x       y       z     vdW  Elec       q    Type
REMARK                         _______ _______ _______ _____ _____    ______ ____
ROOT
ATOM      1  C   UNL     1      -7.036 -19.274   8.059  0.00  0.00    +0.000 C 
ATOM      2  C   UNL     1      -5.850 -19.972   7.386  0.00  0.00    +0.000 C 
ENDROOT
BRANCH   2   5
ATOM      3  O   UNL     1      -4.708 -21.852   6.741  0.00  0.00    +0.000 OA
ATOM      4  N   UNL     1      -3.801 -19.769   6.221  0.00  0.00    +0.000 N 
ATOM      5  C   UNL     1      -4.732 -20.631   6.753  0.00  0.00    +0.000 C 
ATOM      6  H   UNL     1      -3.977 -18.777   6.319  0.00  0.00    +0.000 HD
BRANCH   4   7
ATOM      7  C   UNL     1      -2.623 -20.147   5.552  0.00  0.00    +0.000 A 
ATOM      8  C   UNL     1      -1.506 -20.460   6.328  0.00  0.00    +0.000 A 
ATOM      9  C   UNL     1      -2.533 -20.219   4.163  0.00  0.00    +0.000 A 
ATOM     10  C   UNL     1      -0.311 -20.840   5.722  0.00  0.00    +0.000 A 
ATOM     11  C   UNL     1      -1.339 -20.600   3.554  0.00  0.00    +0.000 A 
ATOM     12  C   UNL     1      -0.228 -20.911   4.334  0.00  0.00    +0.000 A 
ENDBRANCH   4   7
ENDBRANCH   2   5
BRANCH   1  13
ATOM     13  C   UNL     1      -8.222 -18.577   8.731  0.00  0.00    +0.000 C 
ATOM     14  C   UNL     1      -9.409 -17.879   9.403  0.00  0.00    +0.000 C 
BRANCH  14  15
ATOM     15  C   UNL     1     -10.595 -17.182  10.075  0.00  0.00    +0.000 C 
ATOM     16  C   UNL     1     -11.781 -16.483  10.747  0.00  0.00    +0.000 C 
BRANCH  16  19
ATOM     17  O   UNL     1     -13.880 -15.508  10.723  0.00  0.00    +0.000 OA
ATOM     18  N   UNL     1     -12.772 -15.597  12.719  0.00  0.00    +0.000 N 
ATOM     19  C   UNL     1     -12.895 -15.826  11.377  0.00  0.00    +0.000 C 
ATOM     20  H   UNL     1     -11.984 -15.888  13.283  0.00  0.00    +0.000 HD
BRANCH  18  21
ATOM     21  O   UNL     1     -13.859 -14.983  13.380  0.00  0.00    +0.000 OA
ATOM     22  H   UNL     1     -13.595 -14.037  13.397  0.00  0.00    +0.000 HD
ENDBRANCH  18  21
ENDBRANCH  16  19
ENDBRANCH  14  15
ENDBRANCH   1  13
TORSDOF 6
ENDMDL
MODEL 7
REMARK VINA RESULT:      -4.1      3.270      3.702
REMARK  Name = Vorinostat.pdbqt.pdb
REMARK  6 active torsions:
REMARK  status: ('A' for Active; 'I' for Inactive)
REMARK    1  A    between atoms: C_1  and  C_2
REMARK    2  A    between atoms: C_3  and  C_4
REMARK    3  A    between atoms: C_5  and  C_8
REMARK    4  A    between atoms: N_7  and  O_10
REMARK    5  A    between atoms: C_12  and  C_15
REMARK    6  A    between atoms: N_14  and  C_17
REMARK                            x       y       z     vdW  Elec       q    Type
REMARK                         _______ _______ _______ _____ _____    ______ ____
ROOT
ATOM      1  C   UNL     1     -11.078   4.456   1.675  0.00  0.00    +0.000 C 
ATOM      2  C   UNL     1     -10.179   5.169   2.689  0.00  0.00    +0.000 C 
ENDROOT
BRANCH   2   5
ATOM      3  O   UNL     1      -8.755   6.861   3.293  0.00  0.00    +0.000 OA
ATOM      4  N   UNL     1      -9.280   5.234   4.877  0.00  0.00    +0.000 N 
ATOM      5  C   UNL     1      -9.332   5.844   3.645  0.00  0.00    +0.000 C 
ATOM      6  H   UNL     1      -9.825   4.389   5.000  0.00  0.00    +0.000 HD
BRANCH   4   7
ATOM      7  C   UNL     1      -8.535   5.681   5.982  0.00  0.00    +0.000 A 
ATOM      8  C   UNL     1      -7.380   4.972   6.317  0.00  0.00    +0.000 A 
ATOM      9  C   UNL     1      -8.901   6.790   6.742  0.00  0.00    +0.000 A 
ATOM     10  C   UNL     1      -6.600   5.368   7.402  0.00  0.00    +0.000 A 
ATOM     11  C   UNL     1      -8.123   7.189   7.828  0.00  0.00    +0.000 A 
ATOM     12  C   UNL     1      -6.972   6.477   8.157  0.00  0.00    +0.000 A 
ENDBRANCH   4   7
ENDBRANCH   2   5
BRANCH   1  13
ATOM     13  C   UNL     1     -11.977   3.743   0.661  0.00  0.00    +0.000 C 
ATOM     14  C   UNL     1     -12.877   3.031  -0.354  0.00  0.00    +0.000 C 
BRANCH  14  15
ATOM     15  C   UNL     1     -13.776   2.320  -1.369  0.00  0.00    +0.000 C 
ATOM     16  C   UNL     1     -14.676   1.607  -2.383  0.00  0.00    +0.000 C 
BRANCH  16  19
ATOM     17  O   UNL     1     -16.278   1.579  -4.054  0.00  0.00    +0.000 OA
ATOM     18  N   UNL     1     -15.417  -0.425  -3.372  0.00  0.00    +0.000 N 
ATOM     19  C   UNL     1     -15.523   0.938  -3.334  0.00  0.00    +0.000 C 
ATOM     20  H   UNL     1     -14.771  -0.968  -2.813  0.00  0.00    +0.000 HD
BRANCH  18  21
ATOM     21  O   UNL     1     -16.208  -1.116  -4.316  0.00  0.00    +0.000 OA
ATOM     22  H   UNL     1     -16.483  -0.402  -4.932  0.00  0.00    +0.000 HD
ENDBRANCH  18  21
ENDBRANCH  16  19
ENDBRANCH  14  15
ENDBRANCH   1  13
TORSDOF 6
ENDMDL
MODEL 8
REMARK VINA RESULT:      -4.1     23.845     25.979
REMARK  Name = Vorinostat.pdbqt.pdb
REMARK  6 active torsions:
REMARK  status: ('A' for Active; 'I' for Inactive)
REMARK    1  A    between atoms: C_1  and  C_2
REMARK    2  A    between atoms: C_3  and  C_4
REMARK    3  A    between atoms: C_5  and  C_8
REMARK    4  A    between atoms: N_7  and  O_10
REMARK    5  A    between atoms: C_12  and  C_15
REMARK    6  A    between atoms: N_14  and  C_17
REMARK                            x       y       z     vdW  Elec       q    Type
REMARK                         _______ _______ _______ _____ _____    ______ ____
ROOT
ATOM      1  C   UNL     1      -8.882 -18.392   9.193  0.00  0.00    +0.000 C 
ATOM      2  C   UNL     1      -7.708 -19.123   8.534  0.00  0.00    +0.000 C 
ENDROOT
BRANCH   2   5
ATOM      3  O   UNL     1      -6.091 -19.313   6.921  0.00  0.00    +0.000 OA
ATOM      4  N   UNL     1      -6.249 -20.986   8.537  0.00  0.00    +0.000 N 
ATOM      5  C   UNL     1      -6.602 -19.812   7.912  0.00  0.00    +0.000 C 
ATOM      6  H   UNL     1      -6.783 -21.256   9.354  0.00  0.00    +0.000 HD
BRANCH   4   7
ATOM      7  C   UNL     1      -5.212 -21.846   8.138  0.00  0.00    +0.000 A 
ATOM      8  C   UNL     1      -3.939 -21.619   8.664  0.00  0.00    +0.000 A 
ATOM      9  C   UNL     1      -5.406 -22.903   7.250  0.00  0.00    +0.000 A 
ATOM     10  C   UNL     1      -2.872 -22.439   8.305  0.00  0.00    +0.000 A 
ATOM     11  C   UNL     1      -4.339 -23.726   6.890  0.00  0.00    +0.000 A 
ATOM     12  C   UNL     1      -3.073 -23.493   7.418  0.00  0.00    +0.000 A 
ENDBRANCH   4   7
ENDBRANCH   2   5
BRANCH   1  13
ATOM     13  C   UNL     1     -10.054 -17.659   9.851  0.00  0.00    +0.000 C 
ATOM     14  C   UNL     1     -11.227 -16.927  10.511  0.00  0.00    +0.000 C 
BRANCH  14  15
ATOM     15  C   UNL     1     -12.399 -16.195  11.171  0.00  0.00    +0.000 C 
ATOM     16  C   UNL     1     -13.572 -15.464  11.830  0.00  0.00    +0.000 C 
BRANCH  16  19
ATOM     17  O   UNL     1     -14.881 -14.892  13.652  0.00  0.00    +0.000 OA
ATOM     18  N   UNL     1     -15.445 -14.013  11.620  0.00  0.00    +0.000 N 
ATOM     19  C   UNL     1     -14.675 -14.779  12.450  0.00  0.00    +0.000 C 
ATOM     20  H   UNL     1     -15.266 -13.875  10.633  0.00  0.00    +0.000 HD
BRANCH  18  21
ATOM     21  O   UNL     1     -16.518 -13.298  12.196  0.00  0.00    +0.000 OA
ATOM     22  H   UNL     1     -17.168 -14.008  12.394  0.00  0.00    +0.000 HD
ENDBRANCH  18  21
ENDBRANCH  16  19
ENDBRANCH  14  15
ENDBRANCH   1  13
TORSDOF 6
ENDMDL
MODEL 9
REMARK VINA RESULT:      -3.4     21.771     23.053
REMARK  Name = Vorinostat.pdbqt.pdb
REMARK  6 active torsions:
REMARK  status: ('A' for Active; 'I' for Inactive)
REMARK    1  A    between atoms: C_1  and  C_2
REMARK    2  A    between atoms: C_3  and  C_4
REMARK    3  A    between atoms: C_5  and  C_8
REMARK    4  A    between atoms: N_7  and  O_10
REMARK    5  A    between atoms: C_12  and  C_15
REMARK    6  A    between atoms: N_14  and  C_17
REMARK                            x       y       z     vdW  Elec       q    Type
REMARK                         _______ _______ _______ _____ _____    ______ ____
ROOT
ATOM      1  C   UNL     1     -15.479   2.132  22.260  0.00  0.00    +0.000 C 
ATOM      2  C   UNL     1     -15.883   2.878  20.985  0.00  0.00    +0.000 C 
ENDROOT
BRANCH   2   5
ATOM      3  O   UNL     1     -17.045   4.515  19.877  0.00  0.00    +0.000 OA
ATOM      4  N   UNL     1     -15.670   3.097  18.638  0.00  0.00    +0.000 N 
ATOM      5  C   UNL     1     -16.262   3.583  19.782  0.00  0.00    +0.000 C 
ATOM      6  H   UNL     1     -15.040   2.311  18.739  0.00  0.00    +0.000 HD
BRANCH   4   7
ATOM      7  C   UNL     1     -15.865   3.598  17.340  0.00  0.00    +0.000 A 
ATOM      8  C   UNL     1     -14.911   4.481  16.832  0.00  0.00    +0.000 A 
ATOM      9  C   UNL     1     -16.961   3.250  16.552  0.00  0.00    +0.000 A 
ATOM     10  C   UNL     1     -15.051   5.010  15.551  0.00  0.00    +0.000 A 
ATOM     11  C   UNL     1     -17.104   3.777  15.270  0.00  0.00    +0.000 A 
ATOM     12  C   UNL     1     -16.148   4.657  14.770  0.00  0.00    +0.000 A 
ENDBRANCH   4   7
ENDBRANCH   2   5
BRANCH   1  13
ATOM     13  C   UNL     1     -15.075   1.385  23.533  0.00  0.00    +0.000 C 
ATOM     14  C   UNL     1     -14.670   0.638  24.808  0.00  0.00    +0.000 C 
BRANCH  14  15
ATOM     15  C   UNL     1     -14.265  -0.108  26.082  0.00  0.00    +0.000 C 
ATOM     16  C   UNL     1     -13.860  -0.854  27.358  0.00  0.00    +0.000 C 
BRANCH  16  19
ATOM     17  O   UNL     1     -13.854  -1.155  29.653  0.00  0.00    +0.000 OA
ATOM     18  N   UNL     1     -12.703  -2.663  28.380  0.00  0.00    +0.000 N 
ATOM     19  C   UNL     1     -13.481  -1.553  28.557  0.00  0.00    +0.000 C 
ATOM     20  H   UNL     1     -12.418  -3.029  27.480  0.00  0.00    +0.000 HD
BRANCH  18  21
ATOM     21  O   UNL     1     -12.337  -3.396  29.531  0.00  0.00    +0.000 OA
ATOM     22  H   UNL     1     -12.157  -2.689  30.188  0.00  0.00    +0.000 HD
ENDBRANCH  18  21
ENDBRANCH  16  19
ENDBRANCH  14  15
ENDBRANCH   1  13
TORSDOF 6
ENDMDL
