MODEL 1
REMARK VINA RESULT:      -5.4      0.000      0.000
REMARK  Name = 10074640_Masitinib.pdbqt.pdb
REMARK  6 active torsions:
REMARK  status: ('A' for Active; 'I' for Inactive)
REMARK    1  A    between atoms: C_1  and  N_22
REMARK    2  A    between atoms: C_2  and  N_9
REMARK    3  A    between atoms: C_12  and  C_16
REMARK    4  A    between atoms: C_23  and  C_30
REMARK    5  A    between atoms: C_25  and  C_31
REMARK    6  A    between atoms: C_31  and  N_32
REMARK                            x       y       z     vdW  Elec       q    Type
REMARK                         _______ _______ _______ _____ _____    ______ ____
ROOT
ATOM      1  C   UNL     1      19.044   7.906  52.448  0.00  0.00    +0.000 A 
ATOM      2  C   UNL     1      18.208   6.544  50.592  0.00  0.00    +0.000 A 
ATOM      3  C   UNL     1      18.425   6.754  51.960  0.00  0.00    +0.000 A 
ATOM      4  C   UNL     1      18.644   7.553  49.710  0.00  0.00    +0.000 A 
ATOM      5  C   UNL     1      19.442   8.895  51.552  0.00  0.00    +0.000 A 
ATOM      6  C   UNL     1      19.252   8.716  50.184  0.00  0.00    +0.000 A 
ATOM      7  C   UNL     1      18.460   7.403  48.214  0.00  0.00    +0.000 C 
ENDROOT
BRANCH   2   9
ATOM      8  S   UNL     1      16.797   2.850  49.787  0.00  0.00    +0.000 S 
ATOM      9  N   UNL     1      17.542   5.395  50.106  0.00  0.00    +0.000 N 
ATOM     10  N   UNL     1      18.153   3.790  51.752  0.00  0.00    +0.000 NA
ATOM     11  C   UNL     1      17.582   4.146  50.623  0.00  0.00    +0.000 A 
ATOM     12  C   UNL     1      18.013   2.434  51.977  0.00  0.00    +0.000 A 
ATOM     13  C   UNL     1      17.303   1.777  51.001  0.00  0.00    +0.000 A 
ATOM     14  H   UNL     1      16.965   5.573  49.286  0.00  0.00    +0.000 HD
BRANCH  12  16
ATOM     15  N   UNL     1      18.290   0.174  54.936  0.00  0.00    +0.000 NA
ATOM     16  C   UNL     1      18.561   1.794  53.152  0.00  0.00    +0.000 A 
ATOM     17  C   UNL     1      19.836   2.091  53.625  0.00  0.00    +0.000 A 
ATOM     18  C   UNL     1      17.832   0.838  53.845  0.00  0.00    +0.000 A 
ATOM     19  C   UNL     1      20.338   1.443  54.748  0.00  0.00    +0.000 A 
ATOM     20  C   UNL     1      19.530   0.500  55.360  0.00  0.00    +0.000 A 
ENDBRANCH  12  16
ENDBRANCH   2   9
BRANCH   1  22
ATOM     21  O   UNL     1      17.263   9.167  54.366  0.00  0.00    +0.000 OA
ATOM     22  N   UNL     1      19.267   8.131  53.821  0.00  0.00    +0.000 N 
ATOM     23  C   UNL     1      18.386   8.785  54.670  0.00  0.00    +0.000 C 
ATOM     24  H   UNL     1      20.127   7.753  54.202  0.00  0.00    +0.000 HD
BRANCH  23  30
ATOM     25  C   UNL     1      19.796   9.343  58.662  0.00  0.00    +0.000 A 
ATOM     26  C   UNL     1      18.538   9.827  58.312  0.00  0.00    +0.000 A 
ATOM     27  C   UNL     1      20.584   8.689  57.720  0.00  0.00    +0.000 A 
ATOM     28  C   UNL     1      18.067   9.655  57.012  0.00  0.00    +0.000 A 
ATOM     29  C   UNL     1      20.112   8.519  56.421  0.00  0.00    +0.000 A 
ATOM     30  C   UNL     1      18.852   9.003  56.061  0.00  0.00    +0.000 A 
BRANCH  25  31
ATOM     31  C   UNL     1      20.279   9.517  59.993  0.00  0.00    +0.000 C 
BRANCH  31  32
ATOM     32  N   UNL     1      20.772   9.698  61.352  0.00  0.00    +0.000 N 
ATOM     33  N   UNL     1      18.325   9.432  63.911  0.00  0.00    +0.000 N 
ATOM     34  C   UNL     1      19.891  10.710  62.000  0.00  0.00    +0.000 C 
ATOM     35  C   UNL     1      20.281   8.538  62.148  0.00  0.00    +0.000 C 
ATOM     36  C   UNL     1      18.825  10.594  63.127  0.00  0.00    +0.000 C 
ATOM     37  C   UNL     1      19.215   8.423  63.274  0.00  0.00    +0.000 C 
ATOM     38  C   UNL     1      18.791   9.608  65.279  0.00  0.00    +0.000 C 
ENDBRANCH  31  32
ENDBRANCH  25  31
ENDBRANCH  23  30
ENDBRANCH   1  22
TORSDOF 6
ENDMDL
MODEL 2
REMARK VINA RESULT:      -5.3      6.553      9.015
REMARK  Name = 10074640_Masitinib.pdbqt.pdb
REMARK  6 active torsions:
REMARK  status: ('A' for Active; 'I' for Inactive)
REMARK    1  A    between atoms: C_1  and  N_22
REMARK    2  A    between atoms: C_2  and  N_9
REMARK    3  A    between atoms: C_12  and  C_16
REMARK    4  A    between atoms: C_23  and  C_30
REMARK    5  A    between atoms: C_25  and  C_31
REMARK    6  A    between atoms: C_31  and  N_32
REMARK                            x       y       z     vdW  Elec       q    Type
REMARK                         _______ _______ _______ _____ _____    ______ ____
ROOT
ATOM      1  C   UNL     1      14.701  11.527  54.879  0.00  0.00    +0.000 A 
ATOM      2  C   UNL     1      16.782  10.612  53.967  0.00  0.00    +0.000 A 
ATOM      3  C   UNL     1      15.867  10.773  55.017  0.00  0.00    +0.000 A 
ATOM      4  C   UNL     1      16.478  11.249  52.747  0.00  0.00    +0.000 A 
ATOM      5  C   UNL     1      14.419  12.124  53.652  0.00  0.00    +0.000 A 
ATOM      6  C   UNL     1      15.310  11.994  52.590  0.00  0.00    +0.000 A 
ATOM      7  C   UNL     1      17.418  11.136  51.564  0.00  0.00    +0.000 C 
ENDROOT
BRANCH   2   9
ATOM      8  S   UNL     1      20.072   8.605  55.164  0.00  0.00    +0.000 S 
ATOM      9  N   UNL     1      17.941   9.811  54.099  0.00  0.00    +0.000 N 
ATOM     10  N   UNL     1      18.186   9.760  56.465  0.00  0.00    +0.000 NA
ATOM     11  C   UNL     1      18.586   9.489  55.242  0.00  0.00    +0.000 A 
ATOM     12  C   UNL     1      19.088   9.294  57.401  0.00  0.00    +0.000 A 
ATOM     13  C   UNL     1      20.170   8.645  56.858  0.00  0.00    +0.000 A 
ATOM     14  H   UNL     1      18.284   9.441  53.215  0.00  0.00    +0.000 HD
BRANCH  12  16
ATOM     15  N   UNL     1      19.821   9.548  61.054  0.00  0.00    +0.000 NA
ATOM     16  C   UNL     1      18.879   9.474  58.820  0.00  0.00    +0.000 A 
ATOM     17  C   UNL     1      17.626   9.776  59.346  0.00  0.00    +0.000 A 
ATOM     18  C   UNL     1      19.934   9.365  59.714  0.00  0.00    +0.000 A 
ATOM     19  C   UNL     1      17.464   9.959  60.715  0.00  0.00    +0.000 A 
ATOM     20  C   UNL     1      18.586   9.835  61.517  0.00  0.00    +0.000 A 
ENDBRANCH  12  16
ENDBRANCH   2   9
BRANCH   1  22
ATOM     21  O   UNL     1      14.667  13.592  56.922  0.00  0.00    +0.000 OA
ATOM     22  N   UNL     1      13.772  11.697  55.925  0.00  0.00    +0.000 N 
ATOM     23  C   UNL     1      13.845  12.683  56.897  0.00  0.00    +0.000 C 
ATOM     24  H   UNL     1      12.985  11.058  55.931  0.00  0.00    +0.000 HD
BRANCH  23  30
ATOM     25  C   UNL     1      10.959  12.484  60.037  0.00  0.00    +0.000 A 
ATOM     26  C   UNL     1      10.533  12.758  58.739  0.00  0.00    +0.000 A 
ATOM     27  C   UNL     1      12.309  12.282  60.306  0.00  0.00    +0.000 A 
ATOM     28  C   UNL     1      11.465  12.829  57.706  0.00  0.00    +0.000 A 
ATOM     29  C   UNL     1      13.239  12.355  59.272  0.00  0.00    +0.000 A 
ATOM     30  C   UNL     1      12.820  12.631  57.967  0.00  0.00    +0.000 A 
BRANCH  25  31
ATOM     31  C   UNL     1      10.006  12.409  61.096  0.00  0.00    +0.000 C 
BRANCH  31  32
ATOM     32  N   UNL     1       9.031  12.335  62.177  0.00  0.00    +0.000 N 
ATOM     33  N   UNL     1       8.621  15.312  64.067  0.00  0.00    +0.000 N 
ATOM     34  C   UNL     1       9.708  12.840  63.404  0.00  0.00    +0.000 C 
ATOM     35  C   UNL     1       8.119  13.502  62.017  0.00  0.00    +0.000 C 
ATOM     36  C   UNL     1       9.522  14.140  64.237  0.00  0.00    +0.000 C 
ATOM     37  C   UNL     1       7.933  14.802  62.849  0.00  0.00    +0.000 C 
ATOM     38  C   UNL     1       7.653  15.266  65.154  0.00  0.00    +0.000 C 
ENDBRANCH  31  32
ENDBRANCH  25  31
ENDBRANCH  23  30
ENDBRANCH   1  22
TORSDOF 6
ENDMDL
MODEL 3
REMARK VINA RESULT:      -5.3     14.981     18.962
REMARK  Name = 10074640_Masitinib.pdbqt.pdb
REMARK  6 active torsions:
REMARK  status: ('A' for Active; 'I' for Inactive)
REMARK    1  A    between atoms: C_1  and  N_22
REMARK    2  A    between atoms: C_2  and  N_9
REMARK    3  A    between atoms: C_12  and  C_16
REMARK    4  A    between atoms: C_23  and  C_30
REMARK    5  A    between atoms: C_25  and  C_31
REMARK    6  A    between atoms: C_31  and  N_32
REMARK                            x       y       z     vdW  Elec       q    Type
REMARK                         _______ _______ _______ _____ _____    ______ ____
ROOT
ATOM      1  C   UNL     1      14.394   2.206  70.764  0.00  0.00    +0.000 A 
ATOM      2  C   UNL     1      15.410   0.586  69.233  0.00  0.00    +0.000 A 
ATOM      3  C   UNL     1      14.548   0.901  70.292  0.00  0.00    +0.000 A 
ATOM      4  C   UNL     1      16.129   1.649  68.652  0.00  0.00    +0.000 A 
ATOM      5  C   UNL     1      15.103   3.238  70.152  0.00  0.00    +0.000 A 
ATOM      6  C   UNL     1      15.976   2.960  69.104  0.00  0.00    +0.000 A 
ATOM      7  C   UNL     1      17.092   1.396  67.510  0.00  0.00    +0.000 C 
ENDROOT
BRANCH   2   9
ATOM      8  S   UNL     1      14.898  -3.095  67.659  0.00  0.00    +0.000 S 
ATOM      9  N   UNL     1      15.529  -0.731  68.730  0.00  0.00    +0.000 N 
ATOM     10  N   UNL     1      13.422  -0.996  67.657  0.00  0.00    +0.000 NA
ATOM     11  C   UNL     1      14.589  -1.442  68.068  0.00  0.00    +0.000 A 
ATOM     12  C   UNL     1      12.704  -1.989  67.020  0.00  0.00    +0.000 A 
ATOM     13  C   UNL     1      13.364  -3.191  66.940  0.00  0.00    +0.000 A 
ATOM     14  H   UNL     1      16.444  -1.147  68.888  0.00  0.00    +0.000 HD
BRANCH  12  16
ATOM     15  N   UNL     1       9.676  -2.342  64.863  0.00  0.00    +0.000 NA
ATOM     16  C   UNL     1      11.383  -1.752  66.481  0.00  0.00    +0.000 A 
ATOM     17  C   UNL     1      10.528  -0.796  67.023  0.00  0.00    +0.000 A 
ATOM     18  C   UNL     1      10.912  -2.488  65.404  0.00  0.00    +0.000 A 
ATOM     19  C   UNL     1       9.258  -0.605  66.490  0.00  0.00    +0.000 A 
ATOM     20  C   UNL     1       8.886  -1.400  65.420  0.00  0.00    +0.000 A 
ENDBRANCH  12  16
ENDBRANCH   2   9
BRANCH   1  22
ATOM     21  O   UNL     1      14.881   1.936  73.615  0.00  0.00    +0.000 OA
ATOM     22  N   UNL     1      13.530   2.538  71.827  0.00  0.00    +0.000 N 
ATOM     23  C   UNL     1      13.813   2.336  73.170  0.00  0.00    +0.000 C 
ATOM     24  H   UNL     1      12.656   2.981  71.569  0.00  0.00    +0.000 HD
BRANCH  23  30
ATOM     25  C   UNL     1      10.744   3.364  75.955  0.00  0.00    +0.000 A 
ATOM     26  C   UNL     1      10.787   2.072  75.437  0.00  0.00    +0.000 A 
ATOM     27  C   UNL     1      11.689   4.309  75.565  0.00  0.00    +0.000 A 
ATOM     28  C   UNL     1      11.781   1.723  74.525  0.00  0.00    +0.000 A 
ATOM     29  C   UNL     1      12.681   3.959  74.652  0.00  0.00    +0.000 A 
ATOM     30  C   UNL     1      12.729   2.665  74.127  0.00  0.00    +0.000 A 
BRANCH  25  31
ATOM     31  C   UNL     1       9.728   3.721  76.890  0.00  0.00    +0.000 C 
BRANCH  31  32
ATOM     32  N   UNL     1       8.689   4.083  77.846  0.00  0.00    +0.000 N 
ATOM     33  N   UNL     1       5.575   5.028  76.428  0.00  0.00    +0.000 N 
ATOM     34  C   UNL     1       8.148   5.402  77.416  0.00  0.00    +0.000 C 
ATOM     35  C   UNL     1       7.477   3.296  77.485  0.00  0.00    +0.000 C 
ATOM     36  C   UNL     1       6.780   5.817  76.803  0.00  0.00    +0.000 C 
ATOM     37  C   UNL     1       6.110   3.711  76.871  0.00  0.00    +0.000 C 
ATOM     38  C   UNL     1       4.518   5.395  77.361  0.00  0.00    +0.000 C 
ENDBRANCH  31  32
ENDBRANCH  25  31
ENDBRANCH  23  30
ENDBRANCH   1  22
TORSDOF 6
ENDMDL
MODEL 4
REMARK VINA RESULT:      -5.3     16.817     20.643
REMARK  Name = 10074640_Masitinib.pdbqt.pdb
REMARK  6 active torsions:
REMARK  status: ('A' for Active; 'I' for Inactive)
REMARK    1  A    between atoms: C_1  and  N_22
REMARK    2  A    between atoms: C_2  and  N_9
REMARK    3  A    between atoms: C_12  and  C_16
REMARK    4  A    between atoms: C_23  and  C_30
REMARK    5  A    between atoms: C_25  and  C_31
REMARK    6  A    between atoms: C_31  and  N_32
REMARK                            x       y       z     vdW  Elec       q    Type
REMARK                         _______ _______ _______ _____ _____    ______ ____
ROOT
ATOM      1  C   UNL     1       1.238   7.183  66.879  0.00  0.00    +0.000 A 
ATOM      2  C   UNL     1       1.926   6.377  64.671  0.00  0.00    +0.000 A 
ATOM      3  C   UNL     1       2.188   6.619  66.026  0.00  0.00    +0.000 A 
ATOM      4  C   UNL     1       0.649   6.731  64.190  0.00  0.00    +0.000 A 
ATOM      5  C   UNL     1      -0.023   7.500  66.377  0.00  0.00    +0.000 A 
ATOM      6  C   UNL     1      -0.315   7.284  65.033  0.00  0.00    +0.000 A 
ATOM      7  C   UNL     1       0.286   6.515  62.735  0.00  0.00    +0.000 C 
ENDROOT
BRANCH   2   9
ATOM      8  S   UNL     1       4.866   5.448  62.067  0.00  0.00    +0.000 S 
ATOM      9  N   UNL     1       2.877   5.765  63.821  0.00  0.00    +0.000 N 
ATOM     10  N   UNL     1       4.276   7.618  63.302  0.00  0.00    +0.000 NA
ATOM     11  C   UNL     1       3.898   6.366  63.170  0.00  0.00    +0.000 A 
ATOM     12  C   UNL     1       5.351   7.905  62.483  0.00  0.00    +0.000 A 
ATOM     13  C   UNL     1       5.791   6.834  61.744  0.00  0.00    +0.000 A 
ATOM     14  H   UNL     1       2.756   4.759  63.730  0.00  0.00    +0.000 HD
BRANCH  12  16
ATOM     15  N   UNL     1       7.136  10.909  61.167  0.00  0.00    +0.000 NA
ATOM     16  C   UNL     1       5.949   9.221  62.441  0.00  0.00    +0.000 A 
ATOM     17  C   UNL     1       5.908  10.084  63.532  0.00  0.00    +0.000 A 
ATOM     18  C   UNL     1       6.578   9.679  61.292  0.00  0.00    +0.000 A 
ATOM     19  C   UNL     1       6.479  11.349  63.450  0.00  0.00    +0.000 A 
ATOM     20  C   UNL     1       7.075  11.708  62.253  0.00  0.00    +0.000 A 
ENDBRANCH  12  16
ENDBRANCH   2   9
BRANCH   1  22
ATOM     21  O   UNL     1       1.825   9.725  68.158  0.00  0.00    +0.000 OA
ATOM     22  N   UNL     1       1.487   7.430  68.244  0.00  0.00    +0.000 N 
ATOM     23  C   UNL     1       1.808   8.669  68.779  0.00  0.00    +0.000 C 
ATOM     24  H   UNL     1       1.390   6.636  68.866  0.00  0.00    +0.000 HD
BRANCH  23  30
ATOM     25  C   UNL     1       2.659   8.823  72.960  0.00  0.00    +0.000 A 
ATOM     26  C   UNL     1       3.578   8.226  72.102  0.00  0.00    +0.000 A 
ATOM     27  C   UNL     1       1.476   9.359  72.460  0.00  0.00    +0.000 A 
ATOM     28  C   UNL     1       3.312   8.165  70.735  0.00  0.00    +0.000 A 
ATOM     29  C   UNL     1       1.211   9.297  71.094  0.00  0.00    +0.000 A 
ATOM     30  C   UNL     1       2.128   8.698  70.227  0.00  0.00    +0.000 A 
BRANCH  25  31
ATOM     31  C   UNL     1       2.931   8.887  74.359  0.00  0.00    +0.000 C 
BRANCH  31  32
ATOM     32  N   UNL     1       3.212   8.952  75.788  0.00  0.00    +0.000 N 
ATOM     33  N   UNL     1       5.974   7.012  76.888  0.00  0.00    +0.000 N 
ATOM     34  C   UNL     1       3.316   7.547  76.271  0.00  0.00    +0.000 C 
ATOM     35  C   UNL     1       4.661   9.268  75.929  0.00  0.00    +0.000 C 
ATOM     36  C   UNL     1       4.525   6.700  76.762  0.00  0.00    +0.000 C 
ATOM     37  C   UNL     1       5.870   8.421  76.419  0.00  0.00    +0.000 C 
ATOM     38  C   UNL     1       6.278   7.059  78.312  0.00  0.00    +0.000 C 
ENDBRANCH  31  32
ENDBRANCH  25  31
ENDBRANCH  23  30
ENDBRANCH   1  22
TORSDOF 6
ENDMDL
MODEL 5
REMARK VINA RESULT:      -5.2     17.596     22.205
REMARK  Name = 10074640_Masitinib.pdbqt.pdb
REMARK  6 active torsions:
REMARK  status: ('A' for Active; 'I' for Inactive)
REMARK    1  A    between atoms: C_1  and  N_22
REMARK    2  A    between atoms: C_2  and  N_9
REMARK    3  A    between atoms: C_12  and  C_16
REMARK    4  A    between atoms: C_23  and  C_30
REMARK    5  A    between atoms: C_25  and  C_31
REMARK    6  A    between atoms: C_31  and  N_32
REMARK                            x       y       z     vdW  Elec       q    Type
REMARK                         _______ _______ _______ _____ _____    ______ ____
ROOT
ATOM      1  C   UNL     1       8.678  -0.943  75.713  0.00  0.00    +0.000 A 
ATOM      2  C   UNL     1       6.872  -2.379  74.892  0.00  0.00    +0.000 A 
ATOM      3  C   UNL     1       7.611  -1.189  74.847  0.00  0.00    +0.000 A 
ATOM      4  C   UNL     1       7.249  -3.334  75.856  0.00  0.00    +0.000 A 
ATOM      5  C   UNL     1       9.040  -1.918  76.639  0.00  0.00    +0.000 A 
ATOM      6  C   UNL     1       8.322  -3.108  76.719  0.00  0.00    +0.000 A 
ATOM      7  C   UNL     1       6.496  -4.643  75.981  0.00  0.00    +0.000 C 
ENDROOT
BRANCH   2   9
ATOM      8  S   UNL     1       4.362  -2.685  71.746  0.00  0.00    +0.000 S 
ATOM      9  N   UNL     1       5.819  -2.641  73.984  0.00  0.00    +0.000 N 
ATOM     10  N   UNL     1       6.835  -2.024  71.924  0.00  0.00    +0.000 NA
ATOM     11  C   UNL     1       5.813  -2.417  72.651  0.00  0.00    +0.000 A 
ATOM     12  C   UNL     1       6.480  -1.885  70.596  0.00  0.00    +0.000 A 
ATOM     13  C   UNL     1       5.170  -2.203  70.333  0.00  0.00    +0.000 A 
ATOM     14  H   UNL     1       5.000  -3.062  74.419  0.00  0.00    +0.000 HD
BRANCH  12  16
ATOM     15  N   UNL     1       7.983  -1.221  67.243  0.00  0.00    +0.000 NA
ATOM     16  C   UNL     1       7.428  -1.457  69.592  0.00  0.00    +0.000 A 
ATOM     17  C   UNL     1       8.635  -0.852  69.930  0.00  0.00    +0.000 A 
ATOM     18  C   UNL     1       7.157  -1.623  68.241  0.00  0.00    +0.000 A 
ATOM     19  C   UNL     1       9.517  -0.437  68.938  0.00  0.00    +0.000 A 
ATOM     20  C   UNL     1       9.143  -0.643  67.620  0.00  0.00    +0.000 A 
ENDBRANCH  12  16
ENDBRANCH   2   9
BRANCH   1  22
ATOM     21  O   UNL     1       8.404   1.395  77.416  0.00  0.00    +0.000 OA
ATOM     22  N   UNL     1       9.431   0.248  75.679  0.00  0.00    +0.000 N 
ATOM     23  C   UNL     1       9.212   1.347  76.496  0.00  0.00    +0.000 C 
ATOM     24  H   UNL     1      10.202   0.271  75.021  0.00  0.00    +0.000 HD
BRANCH  23  30
ATOM     25  C   UNL     1      11.708   4.722  75.711  0.00  0.00    +0.000 A 
ATOM     26  C   UNL     1      10.622   4.865  76.572  0.00  0.00    +0.000 A 
ATOM     27  C   UNL     1      11.972   3.494  75.112  0.00  0.00    +0.000 A 
ATOM     28  C   UNL     1       9.797   3.773  76.834  0.00  0.00    +0.000 A 
ATOM     29  C   UNL     1      11.146   2.404  75.374  0.00  0.00    +0.000 A 
ATOM     30  C   UNL     1      10.054   2.540  76.236  0.00  0.00    +0.000 A 
BRANCH  25  31
ATOM     31  C   UNL     1      12.554   5.838  75.443  0.00  0.00    +0.000 C 
BRANCH  31  32
ATOM     32  N   UNL     1      13.420   6.978  75.168  0.00  0.00    +0.000 N 
ATOM     33  N   UNL     1      12.962   8.514  72.000  0.00  0.00    +0.000 N 
ATOM     34  C   UNL     1      14.048   6.733  73.840  0.00  0.00    +0.000 C 
ATOM     35  C   UNL     1      12.539   8.091  74.716  0.00  0.00    +0.000 C 
ATOM     36  C   UNL     1      13.853   7.412  72.454  0.00  0.00    +0.000 C 
ATOM     37  C   UNL     1      12.344   8.769  73.330  0.00  0.00    +0.000 C 
ATOM     38  C   UNL     1      13.814   9.655  71.700  0.00  0.00    +0.000 C 
ENDBRANCH  31  32
ENDBRANCH  25  31
ENDBRANCH  23  30
ENDBRANCH   1  22
TORSDOF 6
ENDMDL
MODEL 6
REMARK VINA RESULT:      -5.1      7.560      9.821
REMARK  Name = 10074640_Masitinib.pdbqt.pdb
REMARK  6 active torsions:
REMARK  status: ('A' for Active; 'I' for Inactive)
REMARK    1  A    between atoms: C_1  and  N_22
REMARK    2  A    between atoms: C_2  and  N_9
REMARK    3  A    between atoms: C_12  and  C_16
REMARK    4  A    between atoms: C_23  and  C_30
REMARK    5  A    between atoms: C_25  and  C_31
REMARK    6  A    between atoms: C_31  and  N_32
REMARK                            x       y       z     vdW  Elec       q    Type
REMARK                         _______ _______ _______ _____ _____    ______ ____
ROOT
ATOM      1  C   UNL     1      14.026  11.844  54.862  0.00  0.00    +0.000 A 
ATOM      2  C   UNL     1      16.062  10.916  53.866  0.00  0.00    +0.000 A 
ATOM      3  C   UNL     1      15.136  10.999  54.914  0.00  0.00    +0.000 A 
ATOM      4  C   UNL     1      15.831  11.728  52.738  0.00  0.00    +0.000 A 
ATOM      5  C   UNL     1      13.813  12.616  53.722  0.00  0.00    +0.000 A 
ATOM      6  C   UNL     1      14.719  12.567  52.665  0.00  0.00    +0.000 A 
ATOM      7  C   UNL     1      16.789  11.708  51.564  0.00  0.00    +0.000 C 
ENDROOT
BRANCH   2   9
ATOM      8  S   UNL     1      19.289   8.675  54.791  0.00  0.00    +0.000 S 
ATOM      9  N   UNL     1      17.162  10.026  53.906  0.00  0.00    +0.000 N 
ATOM     10  N   UNL     1      17.640  10.008  56.237  0.00  0.00    +0.000 NA
ATOM     11  C   UNL     1      17.893   9.678  54.989  0.00  0.00    +0.000 A 
ATOM     12  C   UNL     1      18.593   9.490  57.093  0.00  0.00    +0.000 A 
ATOM     13  C   UNL     1      19.560   8.743  56.465  0.00  0.00    +0.000 A 
ATOM     14  H   UNL     1      17.385   9.611  53.005  0.00  0.00    +0.000 HD
BRANCH  12  16
ATOM     15  N   UNL     1      19.686   9.679  60.658  0.00  0.00    +0.000 NA
ATOM     16  C   UNL     1      18.543   9.717  58.520  0.00  0.00    +0.000 A 
ATOM     17  C   UNL     1      17.401  10.208  59.147  0.00  0.00    +0.000 A 
ATOM     18  C   UNL     1      19.648   9.464  59.319  0.00  0.00    +0.000 A 
ATOM     19  C   UNL     1      17.393  10.430  60.519  0.00  0.00    +0.000 A 
ATOM     20  C   UNL     1      18.554  10.152  61.221  0.00  0.00    +0.000 A 
ENDBRANCH  12  16
ENDBRANCH   2   9
BRANCH   1  22
ATOM     21  O   UNL     1      14.082  13.616  57.163  0.00  0.00    +0.000 OA
ATOM     22  N   UNL     1      13.086  11.937  55.908  0.00  0.00    +0.000 N 
ATOM     23  C   UNL     1      13.203  12.778  57.005  0.00  0.00    +0.000 C 
ATOM     24  H   UNL     1      12.258  11.359  55.817  0.00  0.00    +0.000 HD
BRANCH  23  30
ATOM     25  C   UNL     1      10.113  12.472  59.936  0.00  0.00    +0.000 A 
ATOM     26  C   UNL     1      11.435  12.257  60.317  0.00  0.00    +0.000 A 
ATOM     27  C   UNL     1       9.804  12.780  58.614  0.00  0.00    +0.000 A 
ATOM     28  C   UNL     1      12.453  12.350  59.371  0.00  0.00    +0.000 A 
ATOM     29  C   UNL     1      10.823  12.871  57.669  0.00  0.00    +0.000 A 
ATOM     30  C   UNL     1      12.151  12.655  58.043  0.00  0.00    +0.000 A 
BRANCH  25  31
ATOM     31  C   UNL     1       9.071  12.379  60.905  0.00  0.00    +0.000 C 
BRANCH  31  32
ATOM     32  N   UNL     1       8.003  12.283  61.893  0.00  0.00    +0.000 N 
ATOM     33  N   UNL     1       4.717  12.048  60.571  0.00  0.00    +0.000 N 
ATOM     34  C   UNL     1       6.993  13.319  61.539  0.00  0.00    +0.000 C 
ATOM     35  C   UNL     1       7.163  11.114  61.509  0.00  0.00    +0.000 C 
ATOM     36  C   UNL     1       5.550  13.215  60.969  0.00  0.00    +0.000 C 
ATOM     37  C   UNL     1       5.720  11.011  60.937  0.00  0.00    +0.000 C 
ATOM     38  C   UNL     1       3.631  11.950  61.536  0.00  0.00    +0.000 C 
ENDBRANCH  31  32
ENDBRANCH  25  31
ENDBRANCH  23  30
ENDBRANCH   1  22
TORSDOF 6
ENDMDL
MODEL 7
REMARK VINA RESULT:      -5.1     10.374     14.833
REMARK  Name = 10074640_Masitinib.pdbqt.pdb
REMARK  6 active torsions:
REMARK  status: ('A' for Active; 'I' for Inactive)
REMARK    1  A    between atoms: C_1  and  N_22
REMARK    2  A    between atoms: C_2  and  N_9
REMARK    3  A    between atoms: C_12  and  C_16
REMARK    4  A    between atoms: C_23  and  C_30
REMARK    5  A    between atoms: C_25  and  C_31
REMARK    6  A    between atoms: C_31  and  N_32
REMARK                            x       y       z     vdW  Elec       q    Type
REMARK                         _______ _______ _______ _____ _____    ______ ____
ROOT
ATOM      1  C   UNL     1       7.176   7.881  59.088  0.00  0.00    +0.000 A 
ATOM      2  C   UNL     1       7.470  10.120  60.037  0.00  0.00    +0.000 A 
ATOM      3  C   UNL     1       7.696   8.737  60.061  0.00  0.00    +0.000 A 
ATOM      4  C   UNL     1       6.687  10.625  58.980  0.00  0.00    +0.000 A 
ATOM      5  C   UNL     1       6.425   8.415  58.044  0.00  0.00    +0.000 A 
ATOM      6  C   UNL     1       6.172   9.784  57.994  0.00  0.00    +0.000 A 
ATOM      7  C   UNL     1       6.384  12.107  58.884  0.00  0.00    +0.000 C 
ENDROOT
BRANCH   2   9
ATOM      8  S   UNL     1       9.794  12.523  62.298  0.00  0.00    +0.000 S 
ATOM      9  N   UNL     1       8.035  10.988  61.001  0.00  0.00    +0.000 N 
ATOM     10  N   UNL     1      10.056  11.614  59.913  0.00  0.00    +0.000 NA
ATOM     11  C   UNL     1       9.236  11.607  60.940  0.00  0.00    +0.000 A 
ATOM     12  C   UNL     1      11.200  12.336  60.192  0.00  0.00    +0.000 A 
ATOM     13  C   UNL     1      11.216  12.893  61.448  0.00  0.00    +0.000 A 
ATOM     14  H   UNL     1       7.433  11.154  61.804  0.00  0.00    +0.000 HD
BRANCH  12  16
ATOM     15  N   UNL     1      14.635  12.394  58.729  0.00  0.00    +0.000 NA
ATOM     16  C   UNL     1      12.263  12.490  59.224  0.00  0.00    +0.000 A 
ATOM     17  C   UNL     1      12.007  12.819  57.896  0.00  0.00    +0.000 A 
ATOM     18  C   UNL     1      13.589  12.297  59.587  0.00  0.00    +0.000 A 
ATOM     19  C   UNL     1      13.052  12.942  56.988  0.00  0.00    +0.000 A 
ATOM     20  C   UNL     1      14.337  12.720  57.453  0.00  0.00    +0.000 A 
ENDBRANCH  12  16
ENDBRANCH   2   9
BRANCH   1  22
ATOM     21  O   UNL     1       8.923   6.333  57.358  0.00  0.00    +0.000 OA
ATOM     22  N   UNL     1       7.396   6.489  59.099  0.00  0.00    +0.000 N 
ATOM     23  C   UNL     1       8.213   5.809  58.208  0.00  0.00    +0.000 C 
ATOM     24  H   UNL     1       6.936   5.970  59.839  0.00  0.00    +0.000 HD
BRANCH  23  30
ATOM     25  C   UNL     1       8.180   1.557  58.592  0.00  0.00    +0.000 A 
ATOM     26  C   UNL     1       9.398   2.216  58.446  0.00  0.00    +0.000 A 
ATOM     27  C   UNL     1       6.988   2.276  58.608  0.00  0.00    +0.000 A 
ATOM     28  C   UNL     1       9.423   3.603  58.316  0.00  0.00    +0.000 A 
ATOM     29  C   UNL     1       7.016   3.662  58.477  0.00  0.00    +0.000 A 
ATOM     30  C   UNL     1       8.233   4.331  58.329  0.00  0.00    +0.000 A 
BRANCH  25  31
ATOM     31  C   UNL     1       8.153   0.137  58.727  0.00  0.00    +0.000 C 
BRANCH  31  32
ATOM     32  N   UNL     1       8.128  -1.314  58.866  0.00  0.00    +0.000 N 
ATOM     33  N   UNL     1       8.724  -3.142  55.882  0.00  0.00    +0.000 N 
ATOM     34  C   UNL     1       7.211  -1.832  57.813  0.00  0.00    +0.000 C 
ATOM     35  C   UNL     1       9.380  -1.829  58.244  0.00  0.00    +0.000 C 
ATOM     36  C   UNL     1       7.472  -2.641  56.511  0.00  0.00    +0.000 C 
ATOM     37  C   UNL     1       9.640  -2.637  56.941  0.00  0.00    +0.000 C 
ATOM     38  C   UNL     1       8.705  -4.594  55.993  0.00  0.00    +0.000 C 
ENDBRANCH  31  32
ENDBRANCH  25  31
ENDBRANCH  23  30
ENDBRANCH   1  22
TORSDOF 6
ENDMDL
MODEL 8
REMARK VINA RESULT:      -5.0      6.190      9.394
REMARK  Name = 10074640_Masitinib.pdbqt.pdb
REMARK  6 active torsions:
REMARK  status: ('A' for Active; 'I' for Inactive)
REMARK    1  A    between atoms: C_1  and  N_22
REMARK    2  A    between atoms: C_2  and  N_9
REMARK    3  A    between atoms: C_12  and  C_16
REMARK    4  A    between atoms: C_23  and  C_30
REMARK    5  A    between atoms: C_25  and  C_31
REMARK    6  A    between atoms: C_31  and  N_32
REMARK                            x       y       z     vdW  Elec       q    Type
REMARK                         _______ _______ _______ _____ _____    ______ ____
ROOT
ATOM      1  C   UNL     1      17.180   9.816  54.812  0.00  0.00    +0.000 A 
ATOM      2  C   UNL     1      19.379   8.973  55.486  0.00  0.00    +0.000 A 
ATOM      3  C   UNL     1      18.141   9.555  55.790  0.00  0.00    +0.000 A 
ATOM      4  C   UNL     1      19.625   8.656  54.135  0.00  0.00    +0.000 A 
ATOM      5  C   UNL     1      17.446   9.469  53.489  0.00  0.00    +0.000 A 
ATOM      6  C   UNL     1      18.670   8.899  53.148  0.00  0.00    +0.000 A 
ATOM      7  C   UNL     1      20.942   8.035  53.716  0.00  0.00    +0.000 C 
ENDROOT
BRANCH   2   9
ATOM      8  S   UNL     1      21.557   8.552  58.857  0.00  0.00    +0.000 S 
ATOM      9  N   UNL     1      20.332   8.670  56.487  0.00  0.00    +0.000 N 
ATOM     10  N   UNL     1      19.127   9.268  58.450  0.00  0.00    +0.000 NA
ATOM     11  C   UNL     1      20.209   8.868  57.819  0.00  0.00    +0.000 A 
ATOM     12  C   UNL     1      19.351   9.373  59.809  0.00  0.00    +0.000 A 
ATOM     13  C   UNL     1      20.622   9.022  60.193  0.00  0.00    +0.000 A 
ATOM     14  H   UNL     1      21.181   8.241  56.127  0.00  0.00    +0.000 HD
BRANCH  12  16
ATOM     15  N   UNL     1      17.725  10.760  62.871  0.00  0.00    +0.000 NA
ATOM     16  C   UNL     1      18.316   9.801  60.723  0.00  0.00    +0.000 A 
ATOM     17  C   UNL     1      16.966   9.735  60.390  0.00  0.00    +0.000 A 
ATOM     18  C   UNL     1      18.638  10.312  61.972  0.00  0.00    +0.000 A 
ATOM     19  C   UNL     1      15.998  10.171  61.287  0.00  0.00    +0.000 A 
ATOM     20  C   UNL     1      16.429  10.671  62.504  0.00  0.00    +0.000 A 
ENDBRANCH  12  16
ENDBRANCH   2   9
BRANCH   1  22
ATOM     21  O   UNL     1      16.450  12.626  54.703  0.00  0.00    +0.000 OA
ATOM     22  N   UNL     1      15.931  10.399  55.103  0.00  0.00    +0.000 N 
ATOM     23  C   UNL     1      15.666  11.761  55.075  0.00  0.00    +0.000 C 
ATOM     24  H   UNL     1      15.178   9.756  55.319  0.00  0.00    +0.000 HD
BRANCH  23  30
ATOM     25  C   UNL     1      11.788  12.939  56.418  0.00  0.00    +0.000 A 
ATOM     26  C   UNL     1      11.984  12.659  55.068  0.00  0.00    +0.000 A 
ATOM     27  C   UNL     1      12.846  12.840  57.317  0.00  0.00    +0.000 A 
ATOM     28  C   UNL     1      13.245  12.277  54.615  0.00  0.00    +0.000 A 
ATOM     29  C   UNL     1      14.107  12.459  56.862  0.00  0.00    +0.000 A 
ATOM     30  C   UNL     1      14.311  12.177  55.509  0.00  0.00    +0.000 A 
BRANCH  25  31
ATOM     31  C   UNL     1      10.498  13.329  56.882  0.00  0.00    +0.000 C 
BRANCH  31  32
ATOM     32  N   UNL     1       9.178  13.726  57.359  0.00  0.00    +0.000 N 
ATOM     33  N   UNL     1       8.274  12.481  60.558  0.00  0.00    +0.000 N 
ATOM     34  C   UNL     1       8.481  12.481  57.785  0.00  0.00    +0.000 C 
ATOM     35  C   UNL     1       9.362  14.274  58.732  0.00  0.00    +0.000 C 
ATOM     36  C   UNL     1       8.077  11.940  59.186  0.00  0.00    +0.000 C 
ATOM     37  C   UNL     1       8.959  13.732  60.133  0.00  0.00    +0.000 C 
ATOM     38  C   UNL     1       6.961  12.862  61.059  0.00  0.00    +0.000 C 
ENDBRANCH  31  32
ENDBRANCH  25  31
ENDBRANCH  23  30
ENDBRANCH   1  22
TORSDOF 6
ENDMDL
MODEL 9
REMARK VINA RESULT:      -5.0     19.300     22.589
REMARK  Name = 10074640_Masitinib.pdbqt.pdb
REMARK  6 active torsions:
REMARK  status: ('A' for Active; 'I' for Inactive)
REMARK    1  A    between atoms: C_1  and  N_22
REMARK    2  A    between atoms: C_2  and  N_9
REMARK    3  A    between atoms: C_12  and  C_16
REMARK    4  A    between atoms: C_23  and  C_30
REMARK    5  A    between atoms: C_25  and  C_31
REMARK    6  A    between atoms: C_31  and  N_32
REMARK                            x       y       z     vdW  Elec       q    Type
REMARK                         _______ _______ _______ _____ _____    ______ ____
ROOT
ATOM      1  C   UNL     1       1.974   6.011  66.982  0.00  0.00    +0.000 A 
ATOM      2  C   UNL     1       0.753   7.944  67.861  0.00  0.00    +0.000 A 
ATOM      3  C   UNL     1       1.323   6.674  68.024  0.00  0.00    +0.000 A 
ATOM      4  C   UNL     1       0.862   8.539  66.589  0.00  0.00    +0.000 A 
ATOM      5  C   UNL     1       2.084   6.637  65.743  0.00  0.00    +0.000 A 
ATOM      6  C   UNL     1       1.521   7.894  65.542  0.00  0.00    +0.000 A 
ATOM      7  C   UNL     1       0.264   9.905  66.322  0.00  0.00    +0.000 C 
ENDROOT
BRANCH   2   9
ATOM      8  S   UNL     1      -0.216   9.926  71.241  0.00  0.00    +0.000 S 
ATOM      9  N   UNL     1       0.132   8.630  68.932  0.00  0.00    +0.000 N 
ATOM     10  N   UNL     1       2.032   9.472  70.090  0.00  0.00    +0.000 NA
ATOM     11  C   UNL     1       0.740   9.265  69.958  0.00  0.00    +0.000 A 
ATOM     12  C   UNL     1       2.313  10.147  71.261  0.00  0.00    +0.000 A 
ATOM     13  C   UNL     1       1.201  10.465  72.003  0.00  0.00    +0.000 A 
ATOM     14  H   UNL     1      -0.884   8.638  68.877  0.00  0.00    +0.000 HD
BRANCH  12  16
ATOM     15  N   UNL     1       5.991   9.825  71.824  0.00  0.00    +0.000 NA
ATOM     16  C   UNL     1       3.666  10.490  71.640  0.00  0.00    +0.000 A 
ATOM     17  C   UNL     1       3.997  11.752  72.125  0.00  0.00    +0.000 A 
ATOM     18  C   UNL     1       4.695   9.567  71.517  0.00  0.00    +0.000 A 
ATOM     19  C   UNL     1       5.311  12.053  72.464  0.00  0.00    +0.000 A 
ATOM     20  C   UNL     1       6.261  11.061  72.294  0.00  0.00    +0.000 A 
ENDBRANCH  12  16
ENDBRANCH   2   9
BRANCH   1  22
ATOM     21  O   UNL     1       1.009   3.478  65.938  0.00  0.00    +0.000 OA
ATOM     22  N   UNL     1       2.552   4.735  67.131  0.00  0.00    +0.000 N 
ATOM     23  C   UNL     1       2.008   3.556  66.642  0.00  0.00    +0.000 C 
ATOM     24  H   UNL     1       3.446   4.703  67.609  0.00  0.00    +0.000 HD
BRANCH  23  30
ATOM     25  C   UNL     1       4.100  -0.054  67.548  0.00  0.00    +0.000 A 
ATOM     26  C   UNL     1       3.159   0.432  68.454  0.00  0.00    +0.000 A 
ATOM     27  C   UNL     1       4.356   0.632  66.365  0.00  0.00    +0.000 A 
ATOM     28  C   UNL     1       2.472   1.610  68.173  0.00  0.00    +0.000 A 
ATOM     29  C   UNL     1       3.669   1.811  66.087  0.00  0.00    +0.000 A 
ATOM     30  C   UNL     1       2.725   2.306  66.990  0.00  0.00    +0.000 A 
BRANCH  25  31
ATOM     31  C   UNL     1       4.803  -1.262  67.835  0.00  0.00    +0.000 C 
BRANCH  31  32
ATOM     32  N   UNL     1       5.520  -2.497  68.125  0.00  0.00    +0.000 N 
ATOM     33  N   UNL     1       9.007  -2.428  67.459  0.00  0.00    +0.000 N 
ATOM     34  C   UNL     1       6.311  -2.833  66.908  0.00  0.00    +0.000 C 
ATOM     35  C   UNL     1       6.691  -2.128  68.969  0.00  0.00    +0.000 C 
ATOM     36  C   UNL     1       7.839  -2.811  66.619  0.00  0.00    +0.000 C 
ATOM     37  C   UNL     1       8.219  -2.105  68.680  0.00  0.00    +0.000 C 
ATOM     38  C   UNL     1       9.749  -3.649  67.740  0.00  0.00    +0.000 C 
ENDBRANCH  31  32
ENDBRANCH  25  31
ENDBRANCH  23  30
ENDBRANCH   1  22
TORSDOF 6
ENDMDL
