MODEL 1
REMARK VINA RESULT:      -4.8      0.000      0.000
REMARK  Name = 101808842_CandidaspongiolideB.pdbqt.pdb
REMARK  12 active torsions:
REMARK  status: ('A' for Active; 'I' for Inactive)
REMARK    1  A    between atoms: C_6  and  C_42
REMARK    2  A    between atoms: C_7  and  O_28
REMARK    3  A    between atoms: C_10  and  O_30
REMARK    4  A    between atoms: C_13  and  O_32
REMARK    5  A    between atoms: C_19  and  O_34
REMARK    6  A    between atoms: C_20  and  O_38
REMARK    7  A    between atoms: C_21  and  O_36
REMARK    8  A    between atoms: O_38  and  C_40
REMARK    9  A    between atoms: C_42  and  C_44
REMARK   10  A    between atoms: C_42  and  O_52
REMARK   11  A    between atoms: C_45  and  C_47
REMARK   12  A    between atoms: C_47  and  C_49
REMARK                            x       y       z     vdW  Elec       q    Type
REMARK                         _______ _______ _______ _____ _____    ______ ____
ROOT
ATOM      1  O   UNL     1      17.835   8.008  69.141  0.00  0.00    +0.000 OA
ATOM      2  O   UNL     1      11.735   8.905  72.175  0.00  0.00    +0.000 OA
ATOM      3  O   UNL     1      15.930   8.305  72.426  0.00  0.00    +0.000 OA
ATOM      4  O   UNL     1      13.231  10.589  71.677  0.00  0.00    +0.000 OA
ATOM      5  O   UNL     1      13.306  11.431  68.839  0.00  0.00    +0.000 OA
ATOM      6  C   UNL     1      13.880   7.179  72.323  0.00  0.00    +0.000 C 
ATOM      7  C   UNL     1      15.413   7.288  70.244  0.00  0.00    +0.000 C 
ATOM      8  C   UNL     1      15.155   7.658  71.720  0.00  0.00    +0.000 C 
ATOM      9  C   UNL     1      12.753   8.049  72.295  0.00  0.00    +0.000 C 
ATOM     10  C   UNL     1      14.807   8.349  69.303  0.00  0.00    +0.000 C 
ATOM     11  C   UNL     1      15.734   8.980  68.421  0.00  0.00    +0.000 C 
ATOM     12  C   UNL     1      16.858   7.436  69.875  0.00  0.00    +0.000 C 
ATOM     13  C   UNL     1      17.209   8.947  68.174  0.00  0.00    +0.000 C 
ATOM     14  C   UNL     1      17.831  10.340  68.344  0.00  0.00    +0.000 C 
ATOM     15  C   UNL     1      17.105  11.401  68.962  0.00  0.00    +0.000 C 
ATOM     16  C   UNL     1      19.185  10.793  67.806  0.00  0.00    +0.000 C 
ATOM     17  C   UNL     1      12.093  10.151  71.761  0.00  0.00    +0.000 C 
ATOM     18  C   UNL     1      16.375  12.325  69.509  0.00  0.00    +0.000 C 
ATOM     19  C   UNL     1      10.900  10.915  71.326  0.00  0.00    +0.000 C 
ATOM     20  C   UNL     1      15.605  13.252  68.713  0.00  0.00    +0.000 C 
ATOM     21  C   UNL     1      11.022  12.083  70.476  0.00  0.00    +0.000 C 
ATOM     22  C   UNL     1      14.211  13.632  68.935  0.00  0.00    +0.000 C 
ATOM     23  C   UNL     1      12.189  12.941  70.333  0.00  0.00    +0.000 C 
ATOM     24  C   UNL     1      13.238  12.561  69.335  0.00  0.00    +0.000 C 
ATOM     25  C   UNL     1      16.213  12.258  71.000  0.00  0.00    +0.000 C 
ATOM     26  C   UNL     1      13.670  14.917  68.311  0.00  0.00    +0.000 C 
ATOM     27  C   UNL     1      12.419  14.039  71.366  0.00  0.00    +0.000 C 
ENDROOT
BRANCH   7  28
ATOM     28  O   UNL     1      14.970   6.009  69.836  0.00  0.00    +0.000 OA
ATOM     29  H   UNL     1      14.535   6.131  68.972  0.00  0.00    +0.000 HD
ENDBRANCH   7  28
BRANCH  10  30
ATOM     30  O   UNL     1      13.472   8.657  69.296  0.00  0.00    +0.000 OA
ATOM     31  H   UNL     1      13.271   9.380  69.926  0.00  0.00    +0.000 HD
ENDBRANCH  10  30
BRANCH  13  32
ATOM     32  O   UNL     1      17.419   8.448  66.856  0.00  0.00    +0.000 OA
ATOM     33  H   UNL     1      16.913   9.032  66.269  0.00  0.00    +0.000 HD
ENDBRANCH  13  32
BRANCH  19  34
ATOM     34  O   UNL     1       9.615  10.477  71.584  0.00  0.00    +0.000 OA
ATOM     35  H   UNL     1       9.341   9.728  71.015  0.00  0.00    +0.000 HD
ENDBRANCH  19  34
BRANCH  21  36
ATOM     36  O   UNL     1       9.817  12.618  70.052  0.00  0.00    +0.000 OA
ATOM     37  C   UNL     1       9.675  12.494  68.658  0.00  0.00    +0.000 C 
ENDBRANCH  21  36
BRANCH  20  38
ATOM     38  O   UNL     1      16.367  14.054  67.831  0.00  0.00    +0.000 OA
BRANCH  38  40
ATOM     39  O   UNL     1      16.977  15.686  69.379  0.00  0.00    +0.000 OA
ATOM     40  C   UNL     1      17.218  14.856  68.521  0.00  0.00    +0.000 C 
ATOM     41  C   UNL     1      18.643  14.754  68.122  0.00  0.00    +0.000 C 
ENDBRANCH  38  40
ENDBRANCH  20  38
BRANCH   6  42
ATOM     42  C   UNL     1      13.898   5.958  73.097  0.00  0.00    +0.000 C 
BRANCH  42  44
ATOM     43  O   UNL     1      13.017   7.007  75.223  0.00  0.00    +0.000 OA
ATOM     44  C   UNL     1      13.786   5.962  74.580  0.00  0.00    +0.000 C 
ATOM     45  C   UNL     1      12.415   5.792  75.047  0.00  0.00    +0.000 C 
ATOM     46  C   UNL     1      15.068   5.678  75.432  0.00  0.00    +0.000 C 
BRANCH  45  47
ATOM     47  C   UNL     1      12.044   5.070  76.227  0.00  0.00    +0.000 C 
ATOM     48  C   UNL     1      11.900   5.789  77.543  0.00  0.00    +0.000 C 
BRANCH  47  49
ATOM     49  C   UNL     1      11.382   3.820  76.122  0.00  0.00    +0.000 C 
ATOM     50  C   UNL     1      10.820   2.773  75.966  0.00  0.00    +0.000 C 
ATOM     51  C   UNL     1      10.086   1.467  75.649  0.00  0.00    +0.000 C 
ENDBRANCH  47  49
ENDBRANCH  45  47
ENDBRANCH  42  44
BRANCH  42  52
ATOM     52  O   UNL     1      13.995   4.787  72.358  0.00  0.00    +0.000 OA
ATOM     53  H   UNL     1      14.864   4.700  71.917  0.00  0.00    +0.000 HD
ENDBRANCH  42  52
ENDBRANCH   6  42
TORSDOF 12
ENDMDL
MODEL 2
REMARK VINA RESULT:      -4.8      3.218      5.452
REMARK  Name = 101808842_CandidaspongiolideB.pdbqt.pdb
REMARK  12 active torsions:
REMARK  status: ('A' for Active; 'I' for Inactive)
REMARK    1  A    between atoms: C_6  and  C_42
REMARK    2  A    between atoms: C_7  and  O_28
REMARK    3  A    between atoms: C_10  and  O_30
REMARK    4  A    between atoms: C_13  and  O_32
REMARK    5  A    between atoms: C_19  and  O_34
REMARK    6  A    between atoms: C_20  and  O_38
REMARK    7  A    between atoms: C_21  and  O_36
REMARK    8  A    between atoms: O_38  and  C_40
REMARK    9  A    between atoms: C_42  and  C_44
REMARK   10  A    between atoms: C_42  and  O_52
REMARK   11  A    between atoms: C_45  and  C_47
REMARK   12  A    between atoms: C_47  and  C_49
REMARK                            x       y       z     vdW  Elec       q    Type
REMARK                         _______ _______ _______ _____ _____    ______ ____
ROOT
ATOM      1  O   UNL     1      17.280   2.155  67.784  0.00  0.00    +0.000 OA
ATOM      2  O   UNL     1      15.344   6.852  72.410  0.00  0.00    +0.000 OA
ATOM      3  O   UNL     1      17.884   3.663  71.229  0.00  0.00    +0.000 OA
ATOM      4  O   UNL     1      17.002   7.145  70.834  0.00  0.00    +0.000 OA
ATOM      5  O   UNL     1      16.063   7.700  68.081  0.00  0.00    +0.000 OA
ATOM      6  C   UNL     1      15.865   4.146  72.310  0.00  0.00    +0.000 C 
ATOM      7  C   UNL     1      15.861   3.203  69.902  0.00  0.00    +0.000 C 
ATOM      8  C   UNL     1      16.655   3.669  71.141  0.00  0.00    +0.000 C 
ATOM      9  C   UNL     1      15.596   5.541  72.418  0.00  0.00    +0.000 C 
ATOM     10  C   UNL     1      15.571   4.390  68.963  0.00  0.00    +0.000 C 
ATOM     11  C   UNL     1      16.075   4.254  67.635  0.00  0.00    +0.000 C 
ATOM     12  C   UNL     1      16.700   2.368  68.983  0.00  0.00    +0.000 C 
ATOM     13  C   UNL     1      16.896   3.262  66.872  0.00  0.00    +0.000 C 
ATOM     14  C   UNL     1      18.164   3.914  66.302  0.00  0.00    +0.000 C 
ATOM     15  C   UNL     1      18.595   5.200  66.746  0.00  0.00    +0.000 C 
ATOM     16  C   UNL     1      19.025   3.367  65.168  0.00  0.00    +0.000 C 
ATOM     17  C   UNL     1      16.058   7.557  71.491  0.00  0.00    +0.000 C 
ATOM     18  C   UNL     1      18.911   6.382  67.177  0.00  0.00    +0.000 C 
ATOM     19  C   UNL     1      15.478   8.909  71.312  0.00  0.00    +0.000 C 
ATOM     20  C   UNL     1      18.514   7.578  66.470  0.00  0.00    +0.000 C 
ATOM     21  C   UNL     1      15.770   9.704  70.135  0.00  0.00    +0.000 C 
ATOM     22  C   UNL     1      17.926   8.778  67.063  0.00  0.00    +0.000 C 
ATOM     23  C   UNL     1      16.937   9.591  69.272  0.00  0.00    +0.000 C 
ATOM     24  C   UNL     1      16.900   8.607  68.145  0.00  0.00    +0.000 C 
ATOM     25  C   UNL     1      19.533   6.455  68.542  0.00  0.00    +0.000 C 
ATOM     26  C   UNL     1      17.967  10.097  66.294  0.00  0.00    +0.000 C 
ATOM     27  C   UNL     1      18.227  10.285  69.694  0.00  0.00    +0.000 C 
ENDROOT
BRANCH   7  28
ATOM     28  O   UNL     1      14.652   2.518  70.160  0.00  0.00    +0.000 OA
ATOM     29  H   UNL     1      14.688   1.692  69.645  0.00  0.00    +0.000 HD
ENDBRANCH   7  28
BRANCH  10  30
ATOM     30  O   UNL     1      14.865   5.495  69.362  0.00  0.00    +0.000 OA
ATOM     31  H   UNL     1      15.441   6.135  69.830  0.00  0.00    +0.000 HD
ENDBRANCH  10  30
BRANCH  13  32
ATOM     32  O   UNL     1      16.080   2.731  65.831  0.00  0.00    +0.000 OA
ATOM     33  H   UNL     1      15.695   1.915  66.189  0.00  0.00    +0.000 HD
ENDBRANCH  13  32
BRANCH  19  34
ATOM     34  O   UNL     1      14.526   9.419  72.174  0.00  0.00    +0.000 OA
ATOM     35  H   UNL     1      13.633   9.471  71.775  0.00  0.00    +0.000 HD
ENDBRANCH  19  34
BRANCH  21  36
ATOM     36  O   UNL     1      15.061  10.891  70.048  0.00  0.00    +0.000 OA
ATOM     37  C   UNL     1      14.014  10.783  69.115  0.00  0.00    +0.000 C 
ENDBRANCH  21  36
BRANCH  20  38
ATOM     38  O   UNL     1      19.005   7.677  65.147  0.00  0.00    +0.000 OA
BRANCH  38  40
ATOM     39  O   UNL     1      21.104   8.537  65.680  0.00  0.00    +0.000 OA
ATOM     40  C   UNL     1      20.362   7.738  65.139  0.00  0.00    +0.000 C 
ATOM     41  C   UNL     1      21.033   6.723  64.292  0.00  0.00    +0.000 C 
ENDBRANCH  38  40
ENDBRANCH  20  38
BRANCH   6  42
ATOM     42  C   UNL     1      15.595   3.219  73.386  0.00  0.00    +0.000 C 
BRANCH  42  44
ATOM     43  O   UNL     1      13.119   3.710  73.521  0.00  0.00    +0.000 OA
ATOM     44  C   UNL     1      14.335   3.267  74.172  0.00  0.00    +0.000 C 
ATOM     45  C   UNL     1      13.310   2.362  73.659  0.00  0.00    +0.000 C 
ATOM     46  C   UNL     1      14.374   3.849  75.624  0.00  0.00    +0.000 C 
BRANCH  45  47
ATOM     47  C   UNL     1      12.375   1.650  74.476  0.00  0.00    +0.000 C 
ATOM     48  C   UNL     1      12.697   0.259  74.960  0.00  0.00    +0.000 C 
BRANCH  47  49
ATOM     49  C   UNL     1      11.383   2.351  75.206  0.00  0.00    +0.000 C 
ATOM     50  C   UNL     1      10.593   2.968  75.864  0.00  0.00    +0.000 C 
ATOM     51  C   UNL     1       9.675   3.777  76.784  0.00  0.00    +0.000 C 
ENDBRANCH  47  49
ENDBRANCH  45  47
ENDBRANCH  42  44
BRANCH  42  52
ATOM     52  O   UNL     1      16.581   2.266  73.610  0.00  0.00    +0.000 OA
ATOM     53  H   UNL     1      17.387   2.655  74.006  0.00  0.00    +0.000 HD
ENDBRANCH  42  52
ENDBRANCH   6  42
TORSDOF 12
ENDMDL
MODEL 3
REMARK VINA RESULT:      -4.6      8.955     14.635
REMARK  Name = 101808842_CandidaspongiolideB.pdbqt.pdb
REMARK  12 active torsions:
REMARK  status: ('A' for Active; 'I' for Inactive)
REMARK    1  A    between atoms: C_6  and  C_42
REMARK    2  A    between atoms: C_7  and  O_28
REMARK    3  A    between atoms: C_10  and  O_30
REMARK    4  A    between atoms: C_13  and  O_32
REMARK    5  A    between atoms: C_19  and  O_34
REMARK    6  A    between atoms: C_20  and  O_38
REMARK    7  A    between atoms: C_21  and  O_36
REMARK    8  A    between atoms: O_38  and  C_40
REMARK    9  A    between atoms: C_42  and  C_44
REMARK   10  A    between atoms: C_42  and  O_52
REMARK   11  A    between atoms: C_45  and  C_47
REMARK   12  A    between atoms: C_47  and  C_49
REMARK                            x       y       z     vdW  Elec       q    Type
REMARK                         _______ _______ _______ _____ _____    ______ ____
ROOT
ATOM      1  O   UNL     1      13.485  14.364  60.399  0.00  0.00    +0.000 OA
ATOM      2  O   UNL     1      18.546  10.382  58.003  0.00  0.00    +0.000 OA
ATOM      3  O   UNL     1      16.535  14.118  58.132  0.00  0.00    +0.000 OA
ATOM      4  O   UNL     1      18.709  11.783  59.829  0.00  0.00    +0.000 OA
ATOM      5  O   UNL     1      17.460  10.782  62.320  0.00  0.00    +0.000 OA
ATOM      6  C   UNL     1      16.598  12.063  57.013  0.00  0.00    +0.000 C 
ATOM      7  C   UNL     1      14.723  12.560  58.724  0.00  0.00    +0.000 C 
ATOM      8  C   UNL     1      15.997  13.021  57.983  0.00  0.00    +0.000 C 
ATOM      9  C   UNL     1      17.629  11.195  57.474  0.00  0.00    +0.000 C 
ATOM     10  C   UNL     1      15.090  11.798  60.013  0.00  0.00    +0.000 C 
ATOM     11  C   UNL     1      14.562  12.352  61.218  0.00  0.00    +0.000 C 
ATOM     12  C   UNL     1      13.980  13.712  59.328  0.00  0.00    +0.000 C 
ATOM     13  C   UNL     1      13.763  13.553  61.613  0.00  0.00    +0.000 C 
ATOM     14  C   UNL     1      14.522  14.413  62.635  0.00  0.00    +0.000 C 
ATOM     15  C   UNL     1      15.912  14.208  62.883  0.00  0.00    +0.000 C 
ATOM     16  C   UNL     1      13.911  15.463  63.557  0.00  0.00    +0.000 C 
ATOM     17  C   UNL     1      18.956  10.733  59.253  0.00  0.00    +0.000 C 
ATOM     18  C   UNL     1      17.168  13.946  63.076  0.00  0.00    +0.000 C 
ATOM     19  C   UNL     1      19.690   9.615  59.890  0.00  0.00    +0.000 C 
ATOM     20  C   UNL     1      17.606  13.078  64.144  0.00  0.00    +0.000 C 
ATOM     21  C   UNL     1      19.875   9.557  61.327  0.00  0.00    +0.000 C 
ATOM     22  C   UNL     1      18.583  11.996  64.033  0.00  0.00    +0.000 C 
ATOM     23  C   UNL     1      19.857  10.678  62.256  0.00  0.00    +0.000 C 
ATOM     24  C   UNL     1      18.541  11.122  62.814  0.00  0.00    +0.000 C 
ATOM     25  C   UNL     1      18.123  14.426  62.021  0.00  0.00    +0.000 C 
ATOM     26  C   UNL     1      19.267  11.466  65.292  0.00  0.00    +0.000 C 
ATOM     27  C   UNL     1      21.126  11.506  62.426  0.00  0.00    +0.000 C 
ENDROOT
BRANCH   7  28
ATOM     28  O   UNL     1      13.816  11.778  57.973  0.00  0.00    +0.000 OA
ATOM     29  H   UNL     1      13.512  12.340  57.237  0.00  0.00    +0.000 HD
ENDBRANCH   7  28
BRANCH  10  30
ATOM     30  O   UNL     1      15.852  10.659  60.010  0.00  0.00    +0.000 OA
ATOM     31  H   UNL     1      15.782  10.183  60.864  0.00  0.00    +0.000 HD
ENDBRANCH  10  30
BRANCH  13  32
ATOM     32  O   UNL     1      12.524  13.096  62.147  0.00  0.00    +0.000 OA
ATOM     33  H   UNL     1      12.426  13.541  63.004  0.00  0.00    +0.000 HD
ENDBRANCH  13  32
BRANCH  19  34
ATOM     34  O   UNL     1      20.107   8.509  59.174  0.00  0.00    +0.000 OA
ATOM     35  H   UNL     1      19.854   7.661  59.594  0.00  0.00    +0.000 HD
ENDBRANCH  19  34
BRANCH  21  36
ATOM     36  O   UNL     1      20.471   8.395  61.787  0.00  0.00    +0.000 OA
ATOM     37  C   UNL     1      19.607   7.693  62.645  0.00  0.00    +0.000 C 
ENDBRANCH  21  36
BRANCH  20  38
ATOM     38  O   UNL     1      17.260  13.515  65.445  0.00  0.00    +0.000 OA
BRANCH  38  40
ATOM     39  O   UNL     1      19.040  14.991  65.735  0.00  0.00    +0.000 OA
ATOM     40  C   UNL     1      17.857  14.701  65.730  0.00  0.00    +0.000 C 
ATOM     41  C   UNL     1      16.937  15.780  66.165  0.00  0.00    +0.000 C 
ENDBRANCH  38  40
ENDBRANCH  20  38
BRANCH   6  42
ATOM     42  C   UNL     1      16.271  12.204  55.612  0.00  0.00    +0.000 C 
BRANCH  42  44
ATOM     43  O   UNL     1      17.222  12.171  53.269  0.00  0.00    +0.000 OA
ATOM     44  C   UNL     1      17.046  11.514  54.547  0.00  0.00    +0.000 C 
ATOM     45  C   UNL     1      18.254  12.236  54.164  0.00  0.00    +0.000 C 
ATOM     46  C   UNL     1      16.795   9.988  54.303  0.00  0.00    +0.000 C 
BRANCH  45  47
ATOM     47  C   UNL     1      19.487  11.613  53.786  0.00  0.00    +0.000 C 
ATOM     48  C   UNL     1      20.034  11.794  52.394  0.00  0.00    +0.000 C 
BRANCH  47  49
ATOM     49  C   UNL     1      20.419  11.213  54.777  0.00  0.00    +0.000 C 
ATOM     50  C   UNL     1      21.157  10.878  55.660  0.00  0.00    +0.000 C 
ATOM     51  C   UNL     1      22.008  10.474  56.867  0.00  0.00    +0.000 C 
ENDBRANCH  47  49
ENDBRANCH  45  47
ENDBRANCH  42  44
BRANCH  42  52
ATOM     52  O   UNL     1      15.168  13.001  55.336  0.00  0.00    +0.000 OA
ATOM     53  H   UNL     1      14.864  13.496  56.124  0.00  0.00    +0.000 HD
ENDBRANCH  42  52
ENDBRANCH   6  42
TORSDOF 12
ENDMDL
MODEL 4
REMARK VINA RESULT:      -4.5      9.805     15.335
REMARK  Name = 101808842_CandidaspongiolideB.pdbqt.pdb
REMARK  12 active torsions:
REMARK  status: ('A' for Active; 'I' for Inactive)
REMARK    1  A    between atoms: C_6  and  C_42
REMARK    2  A    between atoms: C_7  and  O_28
REMARK    3  A    between atoms: C_10  and  O_30
REMARK    4  A    between atoms: C_13  and  O_32
REMARK    5  A    between atoms: C_19  and  O_34
REMARK    6  A    between atoms: C_20  and  O_38
REMARK    7  A    between atoms: C_21  and  O_36
REMARK    8  A    between atoms: O_38  and  C_40
REMARK    9  A    between atoms: C_42  and  C_44
REMARK   10  A    between atoms: C_42  and  O_52
REMARK   11  A    between atoms: C_45  and  C_47
REMARK   12  A    between atoms: C_47  and  C_49
REMARK                            x       y       z     vdW  Elec       q    Type
REMARK                         _______ _______ _______ _____ _____    ______ ____
ROOT
ATOM      1  O   UNL     1      16.210  12.890  58.471  0.00  0.00    +0.000 OA
ATOM      2  O   UNL     1      21.416   8.407  58.358  0.00  0.00    +0.000 OA
ATOM      3  O   UNL     1      19.846  12.263  57.529  0.00  0.00    +0.000 OA
ATOM      4  O   UNL     1      21.018   9.939  60.036  0.00  0.00    +0.000 OA
ATOM      5  O   UNL     1      18.852   9.230  61.926  0.00  0.00    +0.000 OA
ATOM      6  C   UNL     1      20.132  10.123  56.624  0.00  0.00    +0.000 C 
ATOM      7  C   UNL     1      17.811  10.878  57.479  0.00  0.00    +0.000 C 
ATOM      8  C   UNL     1      19.304  11.193  57.247  0.00  0.00    +0.000 C 
ATOM      9  C   UNL     1      20.836   9.231  57.482  0.00  0.00    +0.000 C 
ATOM     10  C   UNL     1      17.604  10.203  58.849  0.00  0.00    +0.000 C 
ATOM     11  C   UNL     1      16.721  10.887  59.738  0.00  0.00    +0.000 C 
ATOM     12  C   UNL     1      17.005  12.121  57.699  0.00  0.00    +0.000 C 
ATOM     13  C   UNL     1      15.945  12.166  59.741  0.00  0.00    +0.000 C 
ATOM     14  C   UNL     1      16.347  13.055  60.926  0.00  0.00    +0.000 C 
ATOM     15  C   UNL     1      17.522  12.782  61.687  0.00  0.00    +0.000 C 
ATOM     16  C   UNL     1      15.536  14.215  61.496  0.00  0.00    +0.000 C 
ATOM     17  C   UNL     1      21.364   8.832  59.650  0.00  0.00    +0.000 C 
ATOM     18  C   UNL     1      18.589  12.457  62.351  0.00  0.00    +0.000 C 
ATOM     19  C   UNL     1      21.707   7.726  60.574  0.00  0.00    +0.000 C 
ATOM     20  C   UNL     1      18.521  11.653  63.549  0.00  0.00    +0.000 C 
ATOM     21  C   UNL     1      21.341   7.774  61.976  0.00  0.00    +0.000 C 
ATOM     22  C   UNL     1      19.367  10.505  63.869  0.00  0.00    +0.000 C 
ATOM     23  C   UNL     1      21.083   8.966  62.770  0.00  0.00    +0.000 C 
ATOM     24  C   UNL     1      19.700   9.538  62.771  0.00  0.00    +0.000 C 
ATOM     25  C   UNL     1      19.906  12.786  61.707  0.00  0.00    +0.000 C 
ATOM     26  C   UNL     1      19.487  10.037  65.318  0.00  0.00    +0.000 C 
ATOM     27  C   UNL     1      22.268   9.722  63.361  0.00  0.00    +0.000 C 
ENDROOT
BRANCH   7  28
ATOM     28  O   UNL     1      17.179  10.097  56.485  0.00  0.00    +0.000 OA
ATOM     29  H   UNL     1      17.210  10.620  55.663  0.00  0.00    +0.000 HD
ENDBRANCH   7  28
BRANCH  10  30
ATOM     30  O   UNL     1      18.207   9.021  59.192  0.00  0.00    +0.000 OA
ATOM     31  H   UNL     1      17.815   8.645  60.008  0.00  0.00    +0.000 HD
ENDBRANCH  10  30
BRANCH  13  32
ATOM     32  O   UNL     1      14.560  11.835  59.794  0.00  0.00    +0.000 OA
ATOM     33  H   UNL     1      14.524  10.886  59.999  0.00  0.00    +0.000 HD
ENDBRANCH  13  32
BRANCH  19  34
ATOM     34  O   UNL     1      22.256   6.539  60.125  0.00  0.00    +0.000 OA
ATOM     35  H   UNL     1      22.971   6.202  60.704  0.00  0.00    +0.000 HD
ENDBRANCH  19  34
BRANCH  21  36
ATOM     36  O   UNL     1      21.618   6.617  62.686  0.00  0.00    +0.000 OA
ATOM     37  C   UNL     1      20.445   6.079  63.245  0.00  0.00    +0.000 C 
ENDBRANCH  21  36
BRANCH  20  38
ATOM     38  O   UNL     1      17.760  12.217  64.601  0.00  0.00    +0.000 OA
BRANCH  38  40
ATOM     39  O   UNL     1      19.436  13.570  65.488  0.00  0.00    +0.000 OA
ATOM     40  C   UNL     1      18.323  13.373  65.037  0.00  0.00    +0.000 C 
ATOM     41  C   UNL     1      17.424  14.553  65.027  0.00  0.00    +0.000 C 
ENDBRANCH  38  40
ENDBRANCH  20  38
BRANCH   6  42
ATOM     42  C   UNL     1      20.360  10.169  55.197  0.00  0.00    +0.000 C 
BRANCH  42  44
ATOM     43  O   UNL     1      18.728   8.353  54.540  0.00  0.00    +0.000 OA
ATOM     44  C   UNL     1      19.976   9.047  54.300  0.00  0.00    +0.000 C 
ATOM     45  C   UNL     1      18.746   9.307  53.559  0.00  0.00    +0.000 C 
ATOM     46  C   UNL     1      21.067   8.002  53.892  0.00  0.00    +0.000 C 
BRANCH  45  47
ATOM     47  C   UNL     1      18.500   8.870  52.218  0.00  0.00    +0.000 C 
ATOM     48  C   UNL     1      18.824   9.772  51.055  0.00  0.00    +0.000 C 
BRANCH  47  49
ATOM     49  C   UNL     1      18.389   7.488  51.924  0.00  0.00    +0.000 C 
ATOM     50  C   UNL     1      18.330   6.306  51.733  0.00  0.00    +0.000 C 
ATOM     51  C   UNL     1      18.334   4.782  51.583  0.00  0.00    +0.000 C 
ENDBRANCH  47  49
ENDBRANCH  45  47
ENDBRANCH  42  44
BRANCH  42  52
ATOM     52  O   UNL     1      20.931  11.343  54.724  0.00  0.00    +0.000 OA
ATOM     53  H   UNL     1      20.445  12.137  55.024  0.00  0.00    +0.000 HD
ENDBRANCH  42  52
ENDBRANCH   6  42
TORSDOF 12
ENDMDL
MODEL 5
REMARK VINA RESULT:      -4.5     12.918     15.540
REMARK  Name = 101808842_CandidaspongiolideB.pdbqt.pdb
REMARK  12 active torsions:
REMARK  status: ('A' for Active; 'I' for Inactive)
REMARK    1  A    between atoms: C_6  and  C_42
REMARK    2  A    between atoms: C_7  and  O_28
REMARK    3  A    between atoms: C_10  and  O_30
REMARK    4  A    between atoms: C_13  and  O_32
REMARK    5  A    between atoms: C_19  and  O_34
REMARK    6  A    between atoms: C_20  and  O_38
REMARK    7  A    between atoms: C_21  and  O_36
REMARK    8  A    between atoms: O_38  and  C_40
REMARK    9  A    between atoms: C_42  and  C_44
REMARK   10  A    between atoms: C_42  and  O_52
REMARK   11  A    between atoms: C_45  and  C_47
REMARK   12  A    between atoms: C_47  and  C_49
REMARK                            x       y       z     vdW  Elec       q    Type
REMARK                         _______ _______ _______ _____ _____    ______ ____
ROOT
ATOM      1  O   UNL     1       5.174   8.916  60.691  0.00  0.00    +0.000 OA
ATOM      2  O   UNL     1       1.344   4.804  64.645  0.00  0.00    +0.000 OA
ATOM      3  O   UNL     1       1.697   7.548  61.426  0.00  0.00    +0.000 OA
ATOM      4  O   UNL     1       2.305   4.198  62.637  0.00  0.00    +0.000 OA
ATOM      5  O   UNL     1       5.205   3.611  62.735  0.00  0.00    +0.000 OA
ATOM      6  C   UNL     1       1.310   7.404  63.730  0.00  0.00    +0.000 C 
ATOM      7  C   UNL     1       3.605   8.195  62.840  0.00  0.00    +0.000 C 
ATOM      8  C   UNL     1       2.172   7.700  62.552  0.00  0.00    +0.000 C 
ATOM      9  C   UNL     1       1.274   6.067  64.219  0.00  0.00    +0.000 C 
ATOM     10  C   UNL     1       4.572   7.003  62.991  0.00  0.00    +0.000 C 
ATOM     11  C   UNL     1       5.671   6.992  62.081  0.00  0.00    +0.000 C 
ATOM     12  C   UNL     1       4.220   8.854  61.644  0.00  0.00    +0.000 C 
ATOM     13  C   UNL     1       6.146   7.817  60.927  0.00  0.00    +0.000 C 
ATOM     14  C   UNL     1       6.272   6.969  59.653  0.00  0.00    +0.000 C 
ATOM     15  C   UNL     1       5.696   5.666  59.576  0.00  0.00    +0.000 C 
ATOM     16  C   UNL     1       7.080   7.328  58.410  0.00  0.00    +0.000 C 
ATOM     17  C   UNL     1       1.977   3.955  63.789  0.00  0.00    +0.000 C 
ATOM     18  C   UNL     1       5.171   4.480  59.587  0.00  0.00    +0.000 C 
ATOM     19  C   UNL     1       2.314   2.685  64.474  0.00  0.00    +0.000 C 
ATOM     20  C   UNL     1       5.951   3.308  59.912  0.00  0.00    +0.000 C 
ATOM     21  C   UNL     1       3.325   1.790  63.947  0.00  0.00    +0.000 C 
ATOM     22  C   UNL     1       5.561   2.235  60.825  0.00  0.00    +0.000 C 
ATOM     23  C   UNL     1       3.772   1.694  62.565  0.00  0.00    +0.000 C 
ATOM     24  C   UNL     1       4.865   2.606  62.102  0.00  0.00    +0.000 C 
ATOM     25  C   UNL     1       3.678   4.405  59.443  0.00  0.00    +0.000 C 
ATOM     26  C   UNL     1       6.259   0.879  60.738  0.00  0.00    +0.000 C 
ATOM     27  C   UNL     1       2.951   0.859  61.588  0.00  0.00    +0.000 C 
ENDROOT
BRANCH   7  28
ATOM     28  O   UNL     1       3.756   9.049  63.956  0.00  0.00    +0.000 OA
ATOM     29  H   UNL     1       2.991   9.653  63.945  0.00  0.00    +0.000 HD
ENDBRANCH   7  28
BRANCH  10  30
ATOM     30  O   UNL     1       4.404   6.028  63.940  0.00  0.00    +0.000 OA
ATOM     31  H   UNL     1       5.205   5.468  64.018  0.00  0.00    +0.000 HD
ENDBRANCH  10  30
BRANCH  13  32
ATOM     32  O   UNL     1       7.400   8.391  61.288  0.00  0.00    +0.000 OA
ATOM     33  H   UNL     1       8.075   7.766  60.976  0.00  0.00    +0.000 HD
ENDBRANCH  13  32
BRANCH  19  34
ATOM     34  O   UNL     1       1.793   2.359  65.712  0.00  0.00    +0.000 OA
ATOM     35  H   UNL     1       0.838   2.145  65.684  0.00  0.00    +0.000 HD
ENDBRANCH  19  34
BRANCH  21  36
ATOM     36  O   UNL     1       3.618   0.706  64.758  0.00  0.00    +0.000 OA
ATOM     37  C   UNL     1       5.006   0.496  64.834  0.00  0.00    +0.000 C 
ENDBRANCH  21  36
BRANCH  20  38
ATOM     38  O   UNL     1       7.047   3.066  59.051  0.00  0.00    +0.000 OA
BRANCH  38  40
ATOM     39  O   UNL     1       5.890   1.931  57.376  0.00  0.00    +0.000 OA
ATOM     40  C   UNL     1       6.620   2.814  57.786  0.00  0.00    +0.000 C 
ATOM     41  C   UNL     1       7.181   3.707  56.743  0.00  0.00    +0.000 C 
ENDBRANCH  38  40
ENDBRANCH  20  38
BRANCH   6  42
ATOM     42  C   UNL     1       0.389   8.421  64.185  0.00  0.00    +0.000 C 
BRANCH  42  44
ATOM     43  O   UNL     1      -1.083   9.270  66.058  0.00  0.00    +0.000 OA
ATOM     44  C   UNL     1       0.182   8.710  65.629  0.00  0.00    +0.000 C 
ATOM     45  C   UNL     1      -0.898   7.924  66.217  0.00  0.00    +0.000 C 
ATOM     46  C   UNL     1       1.338   9.392  66.433  0.00  0.00    +0.000 C 
BRANCH  45  47
ATOM     47  C   UNL     1      -0.896   7.418  67.556  0.00  0.00    +0.000 C 
ATOM     48  C   UNL     1      -1.697   8.110  68.630  0.00  0.00    +0.000 C 
BRANCH  47  49
ATOM     49  C   UNL     1      -0.545   6.068  67.810  0.00  0.00    +0.000 C 
ATOM     50  C   UNL     1      -0.295   4.927  68.075  0.00  0.00    +0.000 C 
ATOM     51  C   UNL     1      -0.045   3.481  68.514  0.00  0.00    +0.000 C 
ENDBRANCH  47  49
ENDBRANCH  45  47
ENDBRANCH  42  44
BRANCH  42  52
ATOM     52  O   UNL     1      -0.261   9.127  63.181  0.00  0.00    +0.000 OA
ATOM     53  H   UNL     1      -1.139   8.747  62.973  0.00  0.00    +0.000 HD
ENDBRANCH  42  52
ENDBRANCH   6  42
TORSDOF 12
ENDMDL
MODEL 6
REMARK VINA RESULT:      -4.4      6.896     13.432
REMARK  Name = 101808842_CandidaspongiolideB.pdbqt.pdb
REMARK  12 active torsions:
REMARK  status: ('A' for Active; 'I' for Inactive)
REMARK    1  A    between atoms: C_6  and  C_42
REMARK    2  A    between atoms: C_7  and  O_28
REMARK    3  A    between atoms: C_10  and  O_30
REMARK    4  A    between atoms: C_13  and  O_32
REMARK    5  A    between atoms: C_19  and  O_34
REMARK    6  A    between atoms: C_20  and  O_38
REMARK    7  A    between atoms: C_21  and  O_36
REMARK    8  A    between atoms: O_38  and  C_40
REMARK    9  A    between atoms: C_42  and  C_44
REMARK   10  A    between atoms: C_42  and  O_52
REMARK   11  A    between atoms: C_45  and  C_47
REMARK   12  A    between atoms: C_47  and  C_49
REMARK                            x       y       z     vdW  Elec       q    Type
REMARK                         _______ _______ _______ _____ _____    ______ ____
ROOT
ATOM      1  O   UNL     1      19.715   9.678  66.073  0.00  0.00    +0.000 OA
ATOM      2  O   UNL     1      21.942   5.561  61.042  0.00  0.00    +0.000 OA
ATOM      3  O   UNL     1      22.728   8.183  64.286  0.00  0.00    +0.000 OA
ATOM      4  O   UNL     1      21.597   4.917  63.230  0.00  0.00    +0.000 OA
ATOM      5  O   UNL     1      18.772   4.469  63.998  0.00  0.00    +0.000 OA
ATOM      6  C   UNL     1      22.396   8.117  61.970  0.00  0.00    +0.000 C 
ATOM      7  C   UNL     1      20.522   8.975  63.532  0.00  0.00    +0.000 C 
ATOM      8  C   UNL     1      21.946   8.404  63.361  0.00  0.00    +0.000 C 
ATOM      9  C   UNL     1      22.207   6.801  61.458  0.00  0.00    +0.000 C 
ATOM     10  C   UNL     1      19.490   7.836  63.651  0.00  0.00    +0.000 C 
ATOM     11  C   UNL     1      18.716   7.838  64.849  0.00  0.00    +0.000 C 
ATOM     12  C   UNL     1      20.334   9.611  64.875  0.00  0.00    +0.000 C 
ATOM     13  C   UNL     1      18.657   8.636  66.114  0.00  0.00    +0.000 C 
ATOM     14  C   UNL     1      18.872   7.742  67.344  0.00  0.00    +0.000 C 
ATOM     15  C   UNL     1      19.370   6.412  67.210  0.00  0.00    +0.000 C 
ATOM     16  C   UNL     1      18.497   8.085  68.782  0.00  0.00    +0.000 C 
ATOM     17  C   UNL     1      21.548   4.708  62.027  0.00  0.00    +0.000 C 
ATOM     18  C   UNL     1      19.800   5.204  67.010  0.00  0.00    +0.000 C 
ATOM     19  C   UNL     1      20.950   3.484  61.443  0.00  0.00    +0.000 C 
ATOM     20  C   UNL     1      18.894   4.084  66.906  0.00  0.00    +0.000 C 
ATOM     21  C   UNL     1      20.095   2.615  62.229  0.00  0.00    +0.000 C 
ATOM     22  C   UNL     1      18.931   3.033  65.890  0.00  0.00    +0.000 C 
ATOM     23  C   UNL     1      20.080   2.483  63.678  0.00  0.00    +0.000 C 
ATOM     24  C   UNL     1      19.230   3.424  64.473  0.00  0.00    +0.000 C 
ATOM     25  C   UNL     1      21.261   5.055  66.694  0.00  0.00    +0.000 C 
ATOM     26  C   UNL     1      18.216   1.708  66.150  0.00  0.00    +0.000 C 
ATOM     27  C   UNL     1      21.109   1.572  64.339  0.00  0.00    +0.000 C 
ENDROOT
BRANCH   7  28
ATOM     28  O   UNL     1      20.091   9.881  62.537  0.00  0.00    +0.000 OA
ATOM     29  H   UNL     1      20.044   9.374  61.705  0.00  0.00    +0.000 HD
ENDBRANCH   7  28
BRANCH  10  30
ATOM     30  O   UNL     1      19.309   6.895  62.670  0.00  0.00    +0.000 OA
ATOM     31  H   UNL     1      18.398   6.533  62.690  0.00  0.00    +0.000 HD
ENDBRANCH  10  30
BRANCH  13  32
ATOM     32  O   UNL     1      17.387   9.280  66.163  0.00  0.00    +0.000 OA
ATOM     33  H   UNL     1      17.574  10.233  66.132  0.00  0.00    +0.000 HD
ENDBRANCH  13  32
BRANCH  19  34
ATOM     34  O   UNL     1      21.055   3.186  60.098  0.00  0.00    +0.000 OA
ATOM     35  H   UNL     1      21.861   2.674  59.878  0.00  0.00    +0.000 HD
ENDBRANCH  19  34
BRANCH  21  36
ATOM     36  O   UNL     1      19.512   1.580  61.516  0.00  0.00    +0.000 OA
ATOM     37  C   UNL     1      18.188   1.365  61.937  0.00  0.00    +0.000 C 
ENDBRANCH  21  36
BRANCH  20  38
ATOM     38  O   UNL     1      18.096   3.856  68.052  0.00  0.00    +0.000 OA
BRANCH  38  40
ATOM     39  O   UNL     1      16.235   4.731  66.955  0.00  0.00    +0.000 OA
ATOM     40  C   UNL     1      16.904   4.499  67.945  0.00  0.00    +0.000 C 
ATOM     41  C   UNL     1      16.374   5.058  69.213  0.00  0.00    +0.000 C 
ENDBRANCH  38  40
ENDBRANCH  20  38
BRANCH   6  42
ATOM     42  C   UNL     1      23.193   9.109  61.284  0.00  0.00    +0.000 C 
BRANCH  42  44
ATOM     43  O   UNL     1      23.034   9.282  58.766  0.00  0.00    +0.000 OA
ATOM     44  C   UNL     1      22.702   9.815  60.071  0.00  0.00    +0.000 C 
ATOM     45  C   UNL     1      21.793   9.003  59.269  0.00  0.00    +0.000 C 
ATOM     46  C   UNL     1      22.796  11.377  60.020  0.00  0.00    +0.000 C 
BRANCH  45  47
ATOM     47  C   UNL     1      20.666   9.518  58.551  0.00  0.00    +0.000 C 
ATOM     48  C   UNL     1      20.696   9.595  57.046  0.00  0.00    +0.000 C 
BRANCH  47  49
ATOM     49  C   UNL     1      19.382   9.535  59.152  0.00  0.00    +0.000 C 
ATOM     50  C   UNL     1      18.325   9.526  59.717  0.00  0.00    +0.000 C 
ATOM     51  C   UNL     1      17.029   9.453  60.531  0.00  0.00    +0.000 C 
ENDBRANCH  47  49
ENDBRANCH  45  47
ENDBRANCH  42  44
BRANCH  42  52
ATOM     52  O   UNL     1      24.431   9.376  61.855  0.00  0.00    +0.000 OA
ATOM     53  H   UNL     1      24.817   8.585  62.282  0.00  0.00    +0.000 HD
ENDBRANCH  42  52
ENDBRANCH   6  42
TORSDOF 12
ENDMDL
MODEL 7
REMARK VINA RESULT:      -4.3     13.806     16.980
REMARK  Name = 101808842_CandidaspongiolideB.pdbqt.pdb
REMARK  12 active torsions:
REMARK  status: ('A' for Active; 'I' for Inactive)
REMARK    1  A    between atoms: C_6  and  C_42
REMARK    2  A    between atoms: C_7  and  O_28
REMARK    3  A    between atoms: C_10  and  O_30
REMARK    4  A    between atoms: C_13  and  O_32
REMARK    5  A    between atoms: C_19  and  O_34
REMARK    6  A    between atoms: C_20  and  O_38
REMARK    7  A    between atoms: C_21  and  O_36
REMARK    8  A    between atoms: O_38  and  C_40
REMARK    9  A    between atoms: C_42  and  C_44
REMARK   10  A    between atoms: C_42  and  O_52
REMARK   11  A    between atoms: C_45  and  C_47
REMARK   12  A    between atoms: C_47  and  C_49
REMARK                            x       y       z     vdW  Elec       q    Type
REMARK                         _______ _______ _______ _____ _____    ______ ____
ROOT
ATOM      1  O   UNL     1       0.540   5.103  65.237  0.00  0.00    +0.000 OA
ATOM      2  O   UNL     1      -0.591   0.126  69.838  0.00  0.00    +0.000 OA
ATOM      3  O   UNL     1      -1.623   2.135  66.243  0.00  0.00    +0.000 OA
ATOM      4  O   UNL     1       0.670  -0.100  67.919  0.00  0.00    +0.000 OA
ATOM      5  O   UNL     1       3.392   1.060  68.036  0.00  0.00    +0.000 OA
ATOM      6  C   UNL     1      -2.010   2.110  68.552  0.00  0.00    +0.000 C 
ATOM      7  C   UNL     1      -0.494   3.923  67.504  0.00  0.00    +0.000 C 
ATOM      8  C   UNL     1      -1.387   2.677  67.324  0.00  0.00    +0.000 C 
ATOM      9  C   UNL     1      -1.325   1.063  69.233  0.00  0.00    +0.000 C 
ATOM     10  C   UNL     1       0.961   3.511  67.805  0.00  0.00    +0.000 C 
ATOM     11  C   UNL     1       1.935   3.996  66.882  0.00  0.00    +0.000 C 
ATOM     12  C   UNL     1      -0.276   4.646  66.209  0.00  0.00    +0.000 C 
ATOM     13  C   UNL     1       1.942   4.782  65.609  0.00  0.00    +0.000 C 
ATOM     14  C   UNL     1       2.600   3.988  64.471  0.00  0.00    +0.000 C 
ATOM     15  C   UNL     1       2.854   2.590  64.599  0.00  0.00    +0.000 C 
ATOM     16  C   UNL     1       3.148   4.568  63.170  0.00  0.00    +0.000 C 
ATOM     17  C   UNL     1       0.461  -0.327  69.101  0.00  0.00    +0.000 C 
ATOM     18  C   UNL     1       3.080   1.328  64.796  0.00  0.00    +0.000 C 
ATOM     19  C   UNL     1       1.404  -1.084  69.957  0.00  0.00    +0.000 C 
ATOM     20  C   UNL     1       4.358   0.851  65.272  0.00  0.00    +0.000 C 
ATOM     21  C   UNL     1       2.774  -1.320  69.544  0.00  0.00    +0.000 C 
ATOM     22  C   UNL     1       4.575  -0.122  66.341  0.00  0.00    +0.000 C 
ATOM     23  C   UNL     1       3.285  -1.333  68.181  0.00  0.00    +0.000 C 
ATOM     24  C   UNL     1       3.711  -0.037  67.565  0.00  0.00    +0.000 C 
ATOM     25  C   UNL     1       1.894   0.411  64.698  0.00  0.00    +0.000 C 
ATOM     26  C   UNL     1       5.914  -0.850  66.437  0.00  0.00    +0.000 C 
ATOM     27  C   UNL     1       3.132  -2.607  67.357  0.00  0.00    +0.000 C 
ENDROOT
BRANCH   7  28
ATOM     28  O   UNL     1      -0.916   4.856  68.478  0.00  0.00    +0.000 OA
ATOM     29  H   UNL     1      -1.888   4.795  68.514  0.00  0.00    +0.000 HD
ENDBRANCH   7  28
BRANCH  10  30
ATOM     30  O   UNL     1       1.305   2.748  68.891  0.00  0.00    +0.000 OA
ATOM     31  H   UNL     1       0.726   1.961  68.969  0.00  0.00    +0.000 HD
ENDBRANCH  10  30
BRANCH  13  32
ATOM     32  O   UNL     1       2.637   6.002  65.854  0.00  0.00    +0.000 OA
ATOM     33  H   UNL     1       2.593   6.142  66.813  0.00  0.00    +0.000 HD
ENDBRANCH  13  32
BRANCH  19  34
ATOM     34  O   UNL     1       1.076  -1.476  71.242  0.00  0.00    +0.000 OA
ATOM     35  H   UNL     1       0.168  -1.837  71.314  0.00  0.00    +0.000 HD
ENDBRANCH  19  34
BRANCH  21  36
ATOM     36  O   UNL     1       3.569  -1.933  70.498  0.00  0.00    +0.000 OA
ATOM     37  C   UNL     1       4.819  -1.298  70.593  0.00  0.00    +0.000 C 
ENDBRANCH  21  36
BRANCH  20  38
ATOM     38  O   UNL     1       5.455   1.152  64.430  0.00  0.00    +0.000 OA
BRANCH  38  40
ATOM     39  O   UNL     1       5.137  -0.612  62.940  0.00  0.00    +0.000 OA
ATOM     40  C   UNL     1       5.307   0.562  63.215  0.00  0.00    +0.000 C 
ATOM     41  C   UNL     1       5.441   1.473  62.053  0.00  0.00    +0.000 C 
ENDBRANCH  38  40
ENDBRANCH  20  38
BRANCH   6  42
ATOM     42  C   UNL     1      -3.368   2.486  68.874  0.00  0.00    +0.000 C 
BRANCH  42  44
ATOM     43  O   UNL     1      -5.207   2.684  70.598  0.00  0.00    +0.000 OA
ATOM     44  C   UNL     1      -3.800   2.768  70.268  0.00  0.00    +0.000 C 
ATOM     45  C   UNL     1      -4.415   1.615  70.918  0.00  0.00    +0.000 C 
ATOM     46  C   UNL     1      -3.177   3.994  71.016  0.00  0.00    +0.000 C 
BRANCH  45  47
ATOM     47  C   UNL     1      -4.276   1.297  72.307  0.00  0.00    +0.000 C 
ATOM     48  C   UNL     1      -5.497   1.173  73.183  0.00  0.00    +0.000 C 
BRANCH  47  49
ATOM     49  C   UNL     1      -3.100   0.665  72.782  0.00  0.00    +0.000 C 
ATOM     50  C   UNL     1      -2.109   0.169  73.238  0.00  0.00    +0.000 C 
ATOM     51  C   UNL     1      -0.844  -0.375  73.908  0.00  0.00    +0.000 C 
ENDBRANCH  47  49
ENDBRANCH  45  47
ENDBRANCH  42  44
BRANCH  42  52
ATOM     52  O   UNL     1      -4.228   2.595  67.789  0.00  0.00    +0.000 OA
ATOM     53  H   UNL     1      -3.908   2.092  67.013  0.00  0.00    +0.000 HD
ENDBRANCH  42  52
ENDBRANCH   6  42
TORSDOF 12
ENDMDL
MODEL 8
REMARK VINA RESULT:      -4.2     13.693     16.822
REMARK  Name = 101808842_CandidaspongiolideB.pdbqt.pdb
REMARK  12 active torsions:
REMARK  status: ('A' for Active; 'I' for Inactive)
REMARK    1  A    between atoms: C_6  and  C_42
REMARK    2  A    between atoms: C_7  and  O_28
REMARK    3  A    between atoms: C_10  and  O_30
REMARK    4  A    between atoms: C_13  and  O_32
REMARK    5  A    between atoms: C_19  and  O_34
REMARK    6  A    between atoms: C_20  and  O_38
REMARK    7  A    between atoms: C_21  and  O_36
REMARK    8  A    between atoms: O_38  and  C_40
REMARK    9  A    between atoms: C_42  and  C_44
REMARK   10  A    between atoms: C_42  and  O_52
REMARK   11  A    between atoms: C_45  and  C_47
REMARK   12  A    between atoms: C_47  and  C_49
REMARK                            x       y       z     vdW  Elec       q    Type
REMARK                         _______ _______ _______ _____ _____    ______ ____
ROOT
ATOM      1  O   UNL     1       0.606   3.887  65.816  0.00  0.00    +0.000 OA
ATOM      2  O   UNL     1       1.496  -1.638  69.802  0.00  0.00    +0.000 OA
ATOM      3  O   UNL     1      -0.661   0.430  66.789  0.00  0.00    +0.000 OA
ATOM      4  O   UNL     1       2.333  -1.392  67.666  0.00  0.00    +0.000 OA
ATOM      5  O   UNL     1       4.734   0.324  67.425  0.00  0.00    +0.000 OA
ATOM      6  C   UNL     1      -0.528   0.097  69.102  0.00  0.00    +0.000 C 
ATOM      7  C   UNL     1       0.339   2.294  68.049  0.00  0.00    +0.000 C 
ATOM      8  C   UNL     1      -0.309   0.904  67.869  0.00  0.00    +0.000 C 
ATOM      9  C   UNL     1       0.479  -0.834  69.486  0.00  0.00    +0.000 C 
ATOM     10  C   UNL     1       1.876   2.187  68.008  0.00  0.00    +0.000 C 
ATOM     11  C   UNL     1       2.514   2.963  66.994  0.00  0.00    +0.000 C 
ATOM     12  C   UNL     1       0.126   3.168  66.852  0.00  0.00    +0.000 C 
ATOM     13  C   UNL     1       2.091   3.850  65.866  0.00  0.00    +0.000 C 
ATOM     14  C   UNL     1       2.631   3.336  64.523  0.00  0.00    +0.000 C 
ATOM     15  C   UNL     1       3.177   2.023  64.403  0.00  0.00    +0.000 C 
ATOM     16  C   UNL     1       2.760   4.145  63.237  0.00  0.00    +0.000 C 
ATOM     17  C   UNL     1       2.433  -1.773  68.823  0.00  0.00    +0.000 C 
ATOM     18  C   UNL     1       3.683   0.829  64.374  0.00  0.00    +0.000 C 
ATOM     19  C   UNL     1       3.668  -2.382  69.369  0.00  0.00    +0.000 C 
ATOM     20  C   UNL     1       5.102   0.604  64.527  0.00  0.00    +0.000 C 
ATOM     21  C   UNL     1       4.936  -2.268  68.674  0.00  0.00    +0.000 C 
ATOM     22  C   UNL     1       5.731  -0.396  65.387  0.00  0.00    +0.000 C 
ATOM     23  C   UNL     1       5.133  -2.036  67.251  0.00  0.00    +0.000 C 
ATOM     24  C   UNL     1       5.153  -0.624  66.753  0.00  0.00    +0.000 C 
ATOM     25  C   UNL     1       2.709  -0.314  64.376  0.00  0.00    +0.000 C 
ATOM     26  C   UNL     1       7.176  -0.816  65.124  0.00  0.00    +0.000 C 
ATOM     27  C   UNL     1       5.060  -3.225  66.300  0.00  0.00    +0.000 C 
ENDROOT
BRANCH   7  28
ATOM     28  O   UNL     1      -0.038   3.011  69.207  0.00  0.00    +0.000 OA
ATOM     29  H   UNL     1      -0.206   2.345  69.900  0.00  0.00    +0.000 HD
ENDBRANCH   7  28
BRANCH  10  30
ATOM     30  O   UNL     1       2.590   1.418  68.890  0.00  0.00    +0.000 OA
ATOM     31  H   UNL     1       3.248   1.955  69.378  0.00  0.00    +0.000 HD
ENDBRANCH  10  30
BRANCH  13  32
ATOM     32  O   UNL     1       2.569   5.164  66.142  0.00  0.00    +0.000 OA
ATOM     33  H   UNL     1       2.250   5.378  67.034  0.00  0.00    +0.000 HD
ENDBRANCH  13  32
BRANCH  19  34
ATOM     34  O   UNL     1       3.709  -2.960  70.625  0.00  0.00    +0.000 OA
ATOM     35  H   UNL     1       2.932  -2.735  71.178  0.00  0.00    +0.000 HD
ENDBRANCH  19  34
BRANCH  21  36
ATOM     36  O   UNL     1       6.022  -2.779  69.364  0.00  0.00    +0.000 OA
ATOM     37  C   UNL     1       6.907  -1.753  69.739  0.00  0.00    +0.000 C 
ENDBRANCH  21  36
BRANCH  20  38
ATOM     38  O   UNL     1       5.911   1.219  63.542  0.00  0.00    +0.000 OA
BRANCH  38  40
ATOM     39  O   UNL     1       5.649  -0.423  61.910  0.00  0.00    +0.000 OA
ATOM     40  C   UNL     1       5.628   0.727  62.308  0.00  0.00    +0.000 C 
ATOM     41  C   UNL     1       5.316   1.749  61.279  0.00  0.00    +0.000 C 
ENDBRANCH  38  40
ENDBRANCH  20  38
BRANCH   6  42
ATOM     42  C   UNL     1      -1.832   0.130  69.726  0.00  0.00    +0.000 C 
BRANCH  42  44
ATOM     43  O   UNL     1      -1.312   1.757  71.590  0.00  0.00    +0.000 OA
ATOM     44  C   UNL     1      -2.025   0.584  71.128  0.00  0.00    +0.000 C 
ATOM     45  C   UNL     1      -2.620   1.913  71.219  0.00  0.00    +0.000 C 
ATOM     46  C   UNL     1      -2.034  -0.485  72.271  0.00  0.00    +0.000 C 
BRANCH  45  47
ATOM     47  C   UNL     1      -3.543   2.319  72.235  0.00  0.00    +0.000 C 
ATOM     48  C   UNL     1      -3.085   3.204  73.367  0.00  0.00    +0.000 C 
BRANCH  47  49
ATOM     49  C   UNL     1      -4.939   2.298  71.985  0.00  0.00    +0.000 C 
ATOM     50  C   UNL     1      -6.105   2.297  71.708  0.00  0.00    +0.000 C 
ATOM     51  C   UNL     1      -7.564   2.345  71.246  0.00  0.00    +0.000 C 
ENDBRANCH  47  49
ENDBRANCH  45  47
ENDBRANCH  42  44
BRANCH  42  52
ATOM     52  O   UNL     1      -2.890  -0.260  68.914  0.00  0.00    +0.000 OA
ATOM     53  H   UNL     1      -3.545  -0.802  69.399  0.00  0.00    +0.000 HD
ENDBRANCH  42  52
ENDBRANCH   6  42
TORSDOF 12
ENDMDL
MODEL 9
REMARK VINA RESULT:      -4.2      9.267     12.834
REMARK  Name = 101808842_CandidaspongiolideB.pdbqt.pdb
REMARK  12 active torsions:
REMARK  status: ('A' for Active; 'I' for Inactive)
REMARK    1  A    between atoms: C_6  and  C_42
REMARK    2  A    between atoms: C_7  and  O_28
REMARK    3  A    between atoms: C_10  and  O_30
REMARK    4  A    between atoms: C_13  and  O_32
REMARK    5  A    between atoms: C_19  and  O_34
REMARK    6  A    between atoms: C_20  and  O_38
REMARK    7  A    between atoms: C_21  and  O_36
REMARK    8  A    between atoms: O_38  and  C_40
REMARK    9  A    between atoms: C_42  and  C_44
REMARK   10  A    between atoms: C_42  and  O_52
REMARK   11  A    between atoms: C_45  and  C_47
REMARK   12  A    between atoms: C_47  and  C_49
REMARK                            x       y       z     vdW  Elec       q    Type
REMARK                         _______ _______ _______ _____ _____    ______ ____
ROOT
ATOM      1  O   UNL     1      18.009  -2.011  62.512  0.00  0.00    +0.000 OA
ATOM      2  O   UNL     1      18.935   4.300  65.068  0.00  0.00    +0.000 OA
ATOM      3  O   UNL     1      19.199   0.082  65.463  0.00  0.00    +0.000 OA
ATOM      4  O   UNL     1      20.532   3.076  63.941  0.00  0.00    +0.000 OA
ATOM      5  O   UNL     1      20.236   2.996  60.996  0.00  0.00    +0.000 OA
ATOM      6  C   UNL     1      17.787   1.912  65.831  0.00  0.00    +0.000 C 
ATOM      7  C   UNL     1      17.359   0.314  63.844  0.00  0.00    +0.000 C 
ATOM      8  C   UNL     1      18.211   0.703  65.071  0.00  0.00    +0.000 C 
ATOM      9  C   UNL     1      18.376   3.164  65.490  0.00  0.00    +0.000 C 
ATOM     10  C   UNL     1      17.864   1.036  62.579  0.00  0.00    +0.000 C 
ATOM     11  C   UNL     1      18.261   0.182  61.508  0.00  0.00    +0.000 C 
ATOM     12  C   UNL     1      17.600  -1.104  63.424  0.00  0.00    +0.000 C 
ATOM     13  C   UNL     1      18.389  -1.290  61.270  0.00  0.00    +0.000 C 
ATOM     14  C   UNL     1      19.827  -1.666  60.884  0.00  0.00    +0.000 C 
ATOM     15  C   UNL     1      20.902  -0.746  61.061  0.00  0.00    +0.000 C 
ATOM     16  C   UNL     1      20.265  -2.954  60.193  0.00  0.00    +0.000 C 
ATOM     17  C   UNL     1      19.973   4.130  64.204  0.00  0.00    +0.000 C 
ATOM     18  C   UNL     1      21.825   0.151  61.224  0.00  0.00    +0.000 C 
ATOM     19  C   UNL     1      20.299   5.408  63.529  0.00  0.00    +0.000 C 
ATOM     20  C   UNL     1      22.236   1.022  60.147  0.00  0.00    +0.000 C 
ATOM     21  C   UNL     1      21.059   5.435  62.294  0.00  0.00    +0.000 C 
ATOM     22  C   UNL     1      22.427   2.469  60.229  0.00  0.00    +0.000 C 
ATOM     23  C   UNL     1      21.985   4.419  61.816  0.00  0.00    +0.000 C 
ATOM     24  C   UNL     1      21.440   3.272  61.022  0.00  0.00    +0.000 C 
ATOM     25  C   UNL     1      22.302   0.376  62.631  0.00  0.00    +0.000 C 
ATOM     26  C   UNL     1      23.268   3.179  59.170  0.00  0.00    +0.000 C 
ATOM     27  C   UNL     1      23.414   4.424  62.347  0.00  0.00    +0.000 C 
ENDROOT
BRANCH   7  28
ATOM     28  O   UNL     1      15.966   0.521  63.963  0.00  0.00    +0.000 OA
ATOM     29  H   UNL     1      15.731   0.290  64.881  0.00  0.00    +0.000 HD
ENDBRANCH   7  28
BRANCH  10  30
ATOM     30  O   UNL     1      17.913   2.402  62.476  0.00  0.00    +0.000 OA
ATOM     31  H   UNL     1      18.014   2.821  63.356  0.00  0.00    +0.000 HD
ENDBRANCH  10  30
BRANCH  13  32
ATOM     32  O   UNL     1      17.471  -1.646  60.239  0.00  0.00    +0.000 OA
ATOM     33  H   UNL     1      16.679  -1.107  60.395  0.00  0.00    +0.000 HD
ENDBRANCH  13  32
BRANCH  19  34
ATOM     34  O   UNL     1      19.779   6.616  63.955  0.00  0.00    +0.000 OA
ATOM     35  H   UNL     1      19.582   6.634  64.914  0.00  0.00    +0.000 HD
ENDBRANCH  19  34
BRANCH  21  36
ATOM     36  O   UNL     1      21.180   6.689  61.717  0.00  0.00    +0.000 OA
ATOM     37  C   UNL     1      22.323   7.353  62.195  0.00  0.00    +0.000 C 
ENDBRANCH  21  36
BRANCH  20  38
ATOM     38  O   UNL     1      22.760   0.357  59.013  0.00  0.00    +0.000 OA
BRANCH  38  40
ATOM     39  O   UNL     1      20.750   0.688  57.883  0.00  0.00    +0.000 OA
ATOM     40  C   UNL     1      21.777   0.079  58.119  0.00  0.00    +0.000 C 
ATOM     41  C   UNL     1      21.947  -1.190  57.370  0.00  0.00    +0.000 C 
ENDBRANCH  38  40
ENDBRANCH  20  38
BRANCH   6  42
ATOM     42  C   UNL     1      16.973   1.734  67.013  0.00  0.00    +0.000 C 
BRANCH  42  44
ATOM     43  O   UNL     1      16.770   4.043  68.023  0.00  0.00    +0.000 OA
ATOM     44  C   UNL     1      17.080   2.638  68.188  0.00  0.00    +0.000 C 
ATOM     45  C   UNL     1      15.803   3.239  68.562  0.00  0.00    +0.000 C 
ATOM     46  C   UNL     1      18.319   2.500  69.134  0.00  0.00    +0.000 C 
BRANCH  45  47
ATOM     47  C   UNL     1      15.400   3.513  69.908  0.00  0.00    +0.000 C 
ATOM     48  C   UNL     1      15.427   4.925  70.435  0.00  0.00    +0.000 C 
BRANCH  47  49
ATOM     49  C   UNL     1      14.567   2.602  70.605  0.00  0.00    +0.000 C 
ATOM     50  C   UNL     1      13.852   1.880  71.241  0.00  0.00    +0.000 C 
ATOM     51  C   UNL     1      12.939   1.044  72.142  0.00  0.00    +0.000 C 
ENDBRANCH  47  49
ENDBRANCH  45  47
ENDBRANCH  42  44
BRANCH  42  52
ATOM     52  O   UNL     1      16.067   0.683  66.958  0.00  0.00    +0.000 OA
ATOM     53  H   UNL     1      15.444   0.772  66.208  0.00  0.00    +0.000 HD
ENDBRANCH  42  52
ENDBRANCH   6  42
TORSDOF 12
ENDMDL
