MODEL 1
REMARK VINA RESULT:      -4.7      0.000      0.000
REMARK  Name = 101808841_CandidaspongiolideA.pdbqt.pdb
REMARK  13 active torsions:
REMARK  status: ('A' for Active; 'I' for Inactive)
REMARK    1  A    between atoms: C_6  and  C_39
REMARK    2  A    between atoms: C_9  and  O_27
REMARK    3  A    between atoms: C_9  and  C_51
REMARK    4  A    between atoms: C_10  and  O_29
REMARK    5  A    between atoms: C_14  and  O_31
REMARK    6  A    between atoms: C_15  and  O_33
REMARK    7  A    between atoms: C_20  and  O_35
REMARK    8  A    between atoms: O_35  and  C_37
REMARK    9  A    between atoms: C_39  and  C_41
REMARK   10  A    between atoms: C_39  and  O_49
REMARK   11  A    between atoms: C_42  and  C_44
REMARK   12  A    between atoms: C_44  and  C_46
REMARK   13  A    between atoms: C_51  and  O_52
REMARK                            x       y       z     vdW  Elec       q    Type
REMARK                         _______ _______ _______ _____ _____    ______ ____
ROOT
ATOM      1  O   UNL     1       7.276  10.875  72.813  0.00  0.00    +0.000 OA
ATOM      2  O   UNL     1       3.300  10.971  74.025  0.00  0.00    +0.000 OA
ATOM      3  O   UNL     1       6.913  12.226  70.979  0.00  0.00    +0.000 OA
ATOM      4  O   UNL     1       5.553   5.336  76.606  0.00  0.00    +0.000 OA
ATOM      5  O   UNL     1       8.642   9.918  75.117  0.00  0.00    +0.000 OA
ATOM      6  C   UNL     1       4.772   9.745  72.655  0.00  0.00    +0.000 C 
ATOM      7  C   UNL     1       3.910   9.912  73.867  0.00  0.00    +0.000 C 
ATOM      8  C   UNL     1       6.074  10.318  72.694  0.00  0.00    +0.000 C 
ATOM      9  C   UNL     1       3.934   8.744  74.891  0.00  0.00    +0.000 C 
ATOM     10  C   UNL     1       5.232   8.754  75.680  0.00  0.00    +0.000 C 
ATOM     11  C   UNL     1       5.838   7.565  76.183  0.00  0.00    +0.000 C 
ATOM     12  C   UNL     1       7.557  11.891  71.962  0.00  0.00    +0.000 C 
ATOM     13  C   UNL     1       6.338   6.277  76.637  0.00  0.00    +0.000 C 
ATOM     14  C   UNL     1       8.765  12.631  72.395  0.00  0.00    +0.000 C 
ATOM     15  C   UNL     1       9.629  12.235  73.488  0.00  0.00    +0.000 C 
ATOM     16  C   UNL     1       7.753   6.146  77.115  0.00  0.00    +0.000 C 
ATOM     17  C   UNL     1      10.245  10.927  73.678  0.00  0.00    +0.000 C 
ATOM     18  C   UNL     1      10.933   9.518  75.691  0.00  0.00    +0.000 C 
ATOM     19  C   UNL     1       9.832  10.121  74.868  0.00  0.00    +0.000 C 
ATOM     20  C   UNL     1      10.609   8.444  76.633  0.00  0.00    +0.000 C 
ATOM     21  C   UNL     1       8.612   7.266  77.244  0.00  0.00    +0.000 C 
ATOM     22  C   UNL     1       9.374   8.306  77.370  0.00  0.00    +0.000 C 
ATOM     23  C   UNL     1       8.374   4.822  77.508  0.00  0.00    +0.000 C 
ATOM     24  C   UNL     1      10.703  10.146  72.445  0.00  0.00    +0.000 C 
ATOM     25  C   UNL     1      12.349  10.078  75.630  0.00  0.00    +0.000 C 
ATOM     26  C   UNL     1       8.808   9.435  78.193  0.00  0.00    +0.000 C 
ENDROOT
BRANCH   9  27
ATOM     27  O   UNL     1       3.845   7.504  74.188  0.00  0.00    +0.000 OA
ATOM     28  H   UNL     1       2.901   7.351  73.997  0.00  0.00    +0.000 HD
ENDBRANCH   9  27
BRANCH  10  29
ATOM     29  O   UNL     1       5.829   9.971  75.942  0.00  0.00    +0.000 OA
ATOM     30  H   UNL     1       5.332  10.737  75.597  0.00  0.00    +0.000 HD
ENDBRANCH  10  29
BRANCH  14  31
ATOM     31  O   UNL     1       9.082  13.817  71.756  0.00  0.00    +0.000 OA
ATOM     32  H   UNL     1       8.565  13.913  70.929  0.00  0.00    +0.000 HD
ENDBRANCH  14  31
BRANCH  15  33
ATOM     33  O   UNL     1      10.290  13.290  74.095  0.00  0.00    +0.000 OA
ATOM     34  C   UNL     1       9.568  13.739  75.211  0.00  0.00    +0.000 C 
ENDBRANCH  15  33
BRANCH  20  35
ATOM     35  O   UNL     1      11.669   7.658  77.161  0.00  0.00    +0.000 OA
BRANCH  35  37
ATOM     36  O   UNL     1      12.212   6.466  75.231  0.00  0.00    +0.000 OA
ATOM     37  C   UNL     1      11.975   6.563  76.419  0.00  0.00    +0.000 C 
ATOM     38  C   UNL     1      11.966   5.285  77.173  0.00  0.00    +0.000 C 
ENDBRANCH  35  37
ENDBRANCH  20  35
BRANCH   6  39
ATOM     39  C   UNL     1       4.248   9.115  71.460  0.00  0.00    +0.000 C 
BRANCH  39  41
ATOM     40  O   UNL     1       2.361   8.854  69.765  0.00  0.00    +0.000 OA
ATOM     41  C   UNL     1       3.054   9.658  70.751  0.00  0.00    +0.000 C 
ATOM     42  C   UNL     1       1.816   8.930  71.013  0.00  0.00    +0.000 C 
ATOM     43  C   UNL     1       3.120  11.135  70.228  0.00  0.00    +0.000 C 
BRANCH  42  44
ATOM     44  C   UNL     1       0.556   9.598  71.179  0.00  0.00    +0.000 C 
ATOM     45  C   UNL     1      -0.535   9.419  70.154  0.00  0.00    +0.000 C 
BRANCH  44  46
ATOM     46  C   UNL     1       0.131   9.942  72.491  0.00  0.00    +0.000 C 
ATOM     47  C   UNL     1      -0.200  10.329  73.576  0.00  0.00    +0.000 C 
ATOM     48  C   UNL     1      -0.556  10.949  74.935  0.00  0.00    +0.000 C 
ENDBRANCH  44  46
ENDBRANCH  42  44
ENDBRANCH  39  41
BRANCH  39  49
ATOM     49  O   UNL     1       5.109   8.217  70.846  0.00  0.00    +0.000 OA
ATOM     50  H   UNL     1       5.896   8.654  70.465  0.00  0.00    +0.000 HD
ENDBRANCH  39  49
ENDBRANCH   6  39
BRANCH   9  51
ATOM     51  C   UNL     1       2.796   8.848  75.834  0.00  0.00    +0.000 C 
BRANCH  51  52
ATOM     52  O   UNL     1       1.761   8.961  76.667  0.00  0.00    +0.000 OA
ATOM     53  H   UNL     1       1.012   9.403  76.227  0.00  0.00    +0.000 HD
ENDBRANCH  51  52
ENDBRANCH   9  51
TORSDOF 13
ENDMDL
MODEL 2
REMARK VINA RESULT:      -4.3     15.524     19.629
REMARK  Name = 101808841_CandidaspongiolideA.pdbqt.pdb
REMARK  13 active torsions:
REMARK  status: ('A' for Active; 'I' for Inactive)
REMARK    1  A    between atoms: C_6  and  C_39
REMARK    2  A    between atoms: C_9  and  O_27
REMARK    3  A    between atoms: C_9  and  C_51
REMARK    4  A    between atoms: C_10  and  O_29
REMARK    5  A    between atoms: C_14  and  O_31
REMARK    6  A    between atoms: C_15  and  O_33
REMARK    7  A    between atoms: C_20  and  O_35
REMARK    8  A    between atoms: O_35  and  C_37
REMARK    9  A    between atoms: C_39  and  C_41
REMARK   10  A    between atoms: C_39  and  O_49
REMARK   11  A    between atoms: C_42  and  C_44
REMARK   12  A    between atoms: C_44  and  C_46
REMARK   13  A    between atoms: C_51  and  O_52
REMARK                            x       y       z     vdW  Elec       q    Type
REMARK                         _______ _______ _______ _____ _____    ______ ____
ROOT
ATOM      1  O   UNL     1      17.928  10.392  62.690  0.00  0.00    +0.000 OA
ATOM      2  O   UNL     1      14.159  11.356  61.222  0.00  0.00    +0.000 OA
ATOM      3  O   UNL     1      17.209  10.235  64.876  0.00  0.00    +0.000 OA
ATOM      4  O   UNL     1      18.253  13.919  56.731  0.00  0.00    +0.000 OA
ATOM      5  O   UNL     1      19.367   9.632  60.356  0.00  0.00    +0.000 OA
ATOM      6  C   UNL     1      16.106  12.364  62.083  0.00  0.00    +0.000 C 
ATOM      7  C   UNL     1      15.152  12.043  60.975  0.00  0.00    +0.000 C 
ATOM      8  C   UNL     1      17.062  11.369  62.431  0.00  0.00    +0.000 C 
ATOM      9  C   UNL     1      15.556  12.537  59.559  0.00  0.00    +0.000 C 
ATOM     10  C   UNL     1      16.672  11.676  58.992  0.00  0.00    +0.000 C 
ATOM     11  C   UNL     1      17.658  12.183  58.096  0.00  0.00    +0.000 C 
ATOM     12  C   UNL     1      17.850   9.826  63.917  0.00  0.00    +0.000 C 
ATOM     13  C   UNL     1      18.591  12.833  57.190  0.00  0.00    +0.000 C 
ATOM     14  C   UNL     1      18.621   8.563  63.974  0.00  0.00    +0.000 C 
ATOM     15  C   UNL     1      19.477   8.070  62.915  0.00  0.00    +0.000 C 
ATOM     16  C   UNL     1      19.895  12.175  56.854  0.00  0.00    +0.000 C 
ATOM     17  C   UNL     1      20.546   8.806  62.250  0.00  0.00    +0.000 C 
ATOM     18  C   UNL     1      21.570   8.805  59.912  0.00  0.00    +0.000 C 
ATOM     19  C   UNL     1      20.392   9.106  60.792  0.00  0.00    +0.000 C 
ATOM     20  C   UNL     1      21.625   9.395  58.573  0.00  0.00    +0.000 C 
ATOM     21  C   UNL     1      20.222  10.873  57.308  0.00  0.00    +0.000 C 
ATOM     22  C   UNL     1      20.491   9.675  57.722  0.00  0.00    +0.000 C 
ATOM     23  C   UNL     1      20.958  12.833  56.000  0.00  0.00    +0.000 C 
ATOM     24  C   UNL     1      21.379   9.792  63.070  0.00  0.00    +0.000 C 
ATOM     25  C   UNL     1      22.644   7.819  60.356  0.00  0.00    +0.000 C 
ATOM     26  C   UNL     1      19.455   8.626  57.406  0.00  0.00    +0.000 C 
ENDROOT
BRANCH   9  27
ATOM     27  O   UNL     1      16.028  13.882  59.650  0.00  0.00    +0.000 OA
ATOM     28  H   UNL     1      15.975  14.140  60.588  0.00  0.00    +0.000 HD
ENDBRANCH   9  27
BRANCH  10  29
ATOM     29  O   UNL     1      16.708  10.341  59.341  0.00  0.00    +0.000 OA
ATOM     30  H   UNL     1      16.619  10.180  60.300  0.00  0.00    +0.000 HD
ENDBRANCH  10  29
BRANCH  14  31
ATOM     31  O   UNL     1      18.489   7.753  65.088  0.00  0.00    +0.000 OA
ATOM     32  H   UNL     1      19.268   7.164  65.181  0.00  0.00    +0.000 HD
ENDBRANCH  14  31
BRANCH  15  33
ATOM     33  O   UNL     1      19.608   6.692  62.891  0.00  0.00    +0.000 OA
ATOM     34  C   UNL     1      20.921   6.322  63.221  0.00  0.00    +0.000 C 
ENDBRANCH  15  33
BRANCH  20  35
ATOM     35  O   UNL     1      22.862   9.386  57.874  0.00  0.00    +0.000 OA
BRANCH  35  37
ATOM     36  O   UNL     1      22.775   7.275  56.884  0.00  0.00    +0.000 OA
ATOM     37  C   UNL     1      22.925   8.481  56.863  0.00  0.00    +0.000 C 
ATOM     38  C   UNL     1      23.284   9.055  55.543  0.00  0.00    +0.000 C 
ENDBRANCH  35  37
ENDBRANCH  20  35
BRANCH   6  39
ATOM     39  C   UNL     1      15.978  13.598  62.830  0.00  0.00    +0.000 C 
BRANCH  39  41
ATOM     40  O   UNL     1      17.386  14.927  64.491  0.00  0.00    +0.000 OA
ATOM     41  C   UNL     1      17.163  14.448  63.141  0.00  0.00    +0.000 C 
ATOM     42  C   UNL     1      18.108  13.845  64.077  0.00  0.00    +0.000 C 
ATOM     43  C   UNL     1      17.521  15.601  62.142  0.00  0.00    +0.000 C 
BRANCH  42  44
ATOM     44  C   UNL     1      19.528  13.979  63.923  0.00  0.00    +0.000 C 
ATOM     45  C   UNL     1      20.410  14.121  65.138  0.00  0.00    +0.000 C 
BRANCH  44  46
ATOM     46  C   UNL     1      20.145  13.438  62.763  0.00  0.00    +0.000 C 
ATOM     47  C   UNL     1      20.627  13.061  61.732  0.00  0.00    +0.000 C 
ATOM     48  C   UNL     1      21.163  12.678  60.345  0.00  0.00    +0.000 C 
ENDBRANCH  44  46
ENDBRANCH  42  44
ENDBRANCH  39  41
BRANCH  39  49
ATOM     49  O   UNL     1      14.686  14.093  62.927  0.00  0.00    +0.000 OA
ATOM     50  H   UNL     1      14.143  13.598  63.570  0.00  0.00    +0.000 HD
ENDBRANCH  39  49
ENDBRANCH   6  39
BRANCH   9  51
ATOM     51  C   UNL     1      14.397  12.493  58.637  0.00  0.00    +0.000 C 
BRANCH  51  52
ATOM     52  O   UNL     1      13.364  12.431  57.796  0.00  0.00    +0.000 OA
ATOM     53  H   UNL     1      13.514  11.748  57.117  0.00  0.00    +0.000 HD
ENDBRANCH  51  52
ENDBRANCH   9  51
TORSDOF 13
ENDMDL
MODEL 3
REMARK VINA RESULT:      -4.2     16.098     20.985
REMARK  Name = 101808841_CandidaspongiolideA.pdbqt.pdb
REMARK  13 active torsions:
REMARK  status: ('A' for Active; 'I' for Inactive)
REMARK    1  A    between atoms: C_6  and  C_39
REMARK    2  A    between atoms: C_9  and  O_27
REMARK    3  A    between atoms: C_9  and  C_51
REMARK    4  A    between atoms: C_10  and  O_29
REMARK    5  A    between atoms: C_14  and  O_31
REMARK    6  A    between atoms: C_15  and  O_33
REMARK    7  A    between atoms: C_20  and  O_35
REMARK    8  A    between atoms: O_35  and  C_37
REMARK    9  A    between atoms: C_39  and  C_41
REMARK   10  A    between atoms: C_39  and  O_49
REMARK   11  A    between atoms: C_42  and  C_44
REMARK   12  A    between atoms: C_44  and  C_46
REMARK   13  A    between atoms: C_51  and  O_52
REMARK                            x       y       z     vdW  Elec       q    Type
REMARK                         _______ _______ _______ _____ _____    ______ ____
ROOT
ATOM      1  O   UNL     1      19.335   8.933  62.109  0.00  0.00    +0.000 OA
ATOM      2  O   UNL     1      23.326   8.011  62.820  0.00  0.00    +0.000 OA
ATOM      3  O   UNL     1      18.699   8.573  64.296  0.00  0.00    +0.000 OA
ATOM      4  O   UNL     1      22.592   6.770  56.385  0.00  0.00    +0.000 OA
ATOM      5  O   UNL     1      19.408  10.274  59.601  0.00  0.00    +0.000 OA
ATOM      6  C   UNL     1      21.290   6.998  62.209  0.00  0.00    +0.000 C 
ATOM      7  C   UNL     1      22.680   7.469  61.921  0.00  0.00    +0.000 C 
ATOM      8  C   UNL     1      20.249   7.968  62.171  0.00  0.00    +0.000 C 
ATOM      9  C   UNL     1      23.166   7.317  60.454  0.00  0.00    +0.000 C 
ATOM     10  C   UNL     1      22.512   8.361  59.564  0.00  0.00    +0.000 C 
ATOM     11  C   UNL     1      22.225   8.130  58.186  0.00  0.00    +0.000 C 
ATOM     12  C   UNL     1      18.682   9.221  63.259  0.00  0.00    +0.000 C 
ATOM     13  C   UNL     1      21.996   7.758  56.800  0.00  0.00    +0.000 C 
ATOM     14  C   UNL     1      17.943  10.500  63.149  0.00  0.00    +0.000 C 
ATOM     15  C   UNL     1      17.800  11.269  61.930  0.00  0.00    +0.000 C 
ATOM     16  C   UNL     1      21.068   8.570  55.947  0.00  0.00    +0.000 C 
ATOM     17  C   UNL     1      17.328  10.773  60.642  0.00  0.00    +0.000 C 
ATOM     18  C   UNL     1      17.788  11.343  58.197  0.00  0.00    +0.000 C 
ATOM     19  C   UNL     1      18.287  10.774  59.493  0.00  0.00    +0.000 C 
ATOM     20  C   UNL     1      18.524  11.053  56.964  0.00  0.00    +0.000 C 
ATOM     21  C   UNL     1      20.473   9.770  56.411  0.00  0.00    +0.000 C 
ATOM     22  C   UNL     1      19.953  10.871  56.852  0.00  0.00    +0.000 C 
ATOM     23  C   UNL     1      20.703   8.190  54.528  0.00  0.00    +0.000 C 
ATOM     24  C   UNL     1      16.235   9.704  60.623  0.00  0.00    +0.000 C 
ATOM     25  C   UNL     1      16.596  12.293  58.169  0.00  0.00    +0.000 C 
ATOM     26  C   UNL     1      20.929  11.880  57.403  0.00  0.00    +0.000 C 
ENDROOT
BRANCH   9  27
ATOM     27  O   UNL     1      22.798   6.023  59.972  0.00  0.00    +0.000 OA
ATOM     28  H   UNL     1      22.149   6.157  59.258  0.00  0.00    +0.000 HD
ENDBRANCH   9  27
BRANCH  10  29
ATOM     29  O   UNL     1      22.213   9.592  60.113  0.00  0.00    +0.000 OA
ATOM     30  H   UNL     1      22.364   9.643  61.076  0.00  0.00    +0.000 HD
ENDBRANCH  10  29
BRANCH  14  31
ATOM     31  O   UNL     1      17.384  11.046  64.291  0.00  0.00    +0.000 OA
ATOM     32  H   UNL     1      18.083  11.308  64.927  0.00  0.00    +0.000 HD
ENDBRANCH  14  31
BRANCH  15  33
ATOM     33  O   UNL     1      17.628  12.627  62.136  0.00  0.00    +0.000 OA
ATOM     34  C   UNL     1      18.862  13.291  62.061  0.00  0.00    +0.000 C 
ENDBRANCH  15  33
BRANCH  20  35
ATOM     35  O   UNL     1      17.890  11.303  55.717  0.00  0.00    +0.000 OA
BRANCH  35  37
ATOM     36  O   UNL     1      17.307   9.078  55.328  0.00  0.00    +0.000 OA
ATOM     37  C   UNL     1      17.123  10.278  55.265  0.00  0.00    +0.000 C 
ATOM     38  C   UNL     1      15.898  10.698  54.539  0.00  0.00    +0.000 C 
ENDBRANCH  35  37
ENDBRANCH  20  35
BRANCH   6  39
ATOM     39  C   UNL     1      21.045   5.629  62.612  0.00  0.00    +0.000 C 
BRANCH  39  41
ATOM     40  O   UNL     1      21.429   4.265  64.733  0.00  0.00    +0.000 OA
ATOM     41  C   UNL     1      20.684   5.281  64.016  0.00  0.00    +0.000 C 
ATOM     42  C   UNL     1      21.729   5.570  64.995  0.00  0.00    +0.000 C 
ATOM     43  C   UNL     1      19.165   5.119  64.365  0.00  0.00    +0.000 C 
BRANCH  42  44
ATOM     44  C   UNL     1      21.433   6.100  66.296  0.00  0.00    +0.000 C 
ATOM     45  C   UNL     1      21.748   5.294  67.530  0.00  0.00    +0.000 C 
BRANCH  44  46
ATOM     46  C   UNL     1      21.386   7.510  66.466  0.00  0.00    +0.000 C 
ATOM     47  C   UNL     1      21.385   8.685  66.704  0.00  0.00    +0.000 C 
ATOM     48  C   UNL     1      21.409  10.155  67.148  0.00  0.00    +0.000 C 
ENDBRANCH  44  46
ENDBRANCH  42  44
ENDBRANCH  39  41
BRANCH  39  49
ATOM     49  O   UNL     1      20.831   4.740  61.568  0.00  0.00    +0.000 OA
ATOM     50  H   UNL     1      20.251   5.109  60.875  0.00  0.00    +0.000 HD
ENDBRANCH  39  49
ENDBRANCH   6  39
BRANCH   9  51
ATOM     51  C   UNL     1      24.638   7.463  60.368  0.00  0.00    +0.000 C 
BRANCH  51  52
ATOM     52  O   UNL     1      25.959   7.617  60.275  0.00  0.00    +0.000 OA
ATOM     53  H   UNL     1      26.242   8.436  60.722  0.00  0.00    +0.000 HD
ENDBRANCH  51  52
ENDBRANCH   9  51
TORSDOF 13
ENDMDL
MODEL 4
REMARK VINA RESULT:      -4.2      1.517      2.293
REMARK  Name = 101808841_CandidaspongiolideA.pdbqt.pdb
REMARK  13 active torsions:
REMARK  status: ('A' for Active; 'I' for Inactive)
REMARK    1  A    between atoms: C_6  and  C_39
REMARK    2  A    between atoms: C_9  and  O_27
REMARK    3  A    between atoms: C_9  and  C_51
REMARK    4  A    between atoms: C_10  and  O_29
REMARK    5  A    between atoms: C_14  and  O_31
REMARK    6  A    between atoms: C_15  and  O_33
REMARK    7  A    between atoms: C_20  and  O_35
REMARK    8  A    between atoms: O_35  and  C_37
REMARK    9  A    between atoms: C_39  and  C_41
REMARK   10  A    between atoms: C_39  and  O_49
REMARK   11  A    between atoms: C_42  and  C_44
REMARK   12  A    between atoms: C_44  and  C_46
REMARK   13  A    between atoms: C_51  and  O_52
REMARK                            x       y       z     vdW  Elec       q    Type
REMARK                         _______ _______ _______ _____ _____    ______ ____
ROOT
ATOM      1  O   UNL     1       6.534  10.831  73.346  0.00  0.00    +0.000 OA
ATOM      2  O   UNL     1       3.072  10.405  75.608  0.00  0.00    +0.000 OA
ATOM      3  O   UNL     1       5.519  12.155  71.754  0.00  0.00    +0.000 OA
ATOM      4  O   UNL     1       6.595   5.056  77.180  0.00  0.00    +0.000 OA
ATOM      5  O   UNL     1       8.591  10.015  75.135  0.00  0.00    +0.000 OA
ATOM      6  C   UNL     1       4.235   9.397  73.825  0.00  0.00    +0.000 C 
ATOM      7  C   UNL     1       3.731   9.433  75.234  0.00  0.00    +0.000 C 
ATOM      8  C   UNL     1       5.420  10.129  73.534  0.00  0.00    +0.000 C 
ATOM      9  C   UNL     1       4.176   8.261  76.151  0.00  0.00    +0.000 C 
ATOM     10  C   UNL     1       5.633   8.421  76.553  0.00  0.00    +0.000 C 
ATOM     11  C   UNL     1       6.489   7.310  76.809  0.00  0.00    +0.000 C 
ATOM     12  C   UNL     1       6.447  11.888  72.505  0.00  0.00    +0.000 C 
ATOM     13  C   UNL     1       7.242   6.088  77.041  0.00  0.00    +0.000 C 
ATOM     14  C   UNL     1       7.633  12.767  72.626  0.00  0.00    +0.000 C 
ATOM     15  C   UNL     1       8.807  12.465  73.418  0.00  0.00    +0.000 C 
ATOM     16  C   UNL     1       8.739   6.128  77.105  0.00  0.00    +0.000 C 
ATOM     17  C   UNL     1       9.599  11.242  73.364  0.00  0.00    +0.000 C 
ATOM     18  C   UNL     1      10.981   9.898  75.037  0.00  0.00    +0.000 C 
ATOM     19  C   UNL     1       9.632  10.371  74.580  0.00  0.00    +0.000 C 
ATOM     20  C   UNL     1      11.060   8.775  75.975  0.00  0.00    +0.000 C 
ATOM     21  C   UNL     1       9.464   7.345  77.051  0.00  0.00    +0.000 C 
ATOM     22  C   UNL     1      10.104   8.471  77.015  0.00  0.00    +0.000 C 
ATOM     23  C   UNL     1       9.595   4.887  77.245  0.00  0.00    +0.000 C 
ATOM     24  C   UNL     1       9.783  10.545  72.015  0.00  0.00    +0.000 C 
ATOM     25  C   UNL     1      12.249  10.632  74.617  0.00  0.00    +0.000 C 
ATOM     26  C   UNL     1       9.662   9.506  78.019  0.00  0.00    +0.000 C 
ENDROOT
BRANCH   9  27
ATOM     27  O   UNL     1       4.039   7.032  75.437  0.00  0.00    +0.000 OA
ATOM     28  H   UNL     1       3.682   6.376  76.064  0.00  0.00    +0.000 HD
ENDBRANCH   9  27
BRANCH  10  29
ATOM     29  O   UNL     1       6.133   9.699  76.702  0.00  0.00    +0.000 OA
ATOM     30  H   UNL     1       6.292   9.956  77.630  0.00  0.00    +0.000 HD
ENDBRANCH  10  29
BRANCH  14  31
ATOM     31  O   UNL     1       7.619  13.994  71.986  0.00  0.00    +0.000 OA
ATOM     32  H   UNL     1       6.788  14.109  71.478  0.00  0.00    +0.000 HD
ENDBRANCH  14  31
BRANCH  15  33
ATOM     33  O   UNL     1       9.484  13.584  73.873  0.00  0.00    +0.000 OA
ATOM     34  C   UNL     1       9.055  13.921  75.166  0.00  0.00    +0.000 C 
ENDBRANCH  15  33
BRANCH  20  35
ATOM     35  O   UNL     1      12.309   8.121  76.151  0.00  0.00    +0.000 OA
BRANCH  35  37
ATOM     36  O   UNL     1      12.440   5.808  75.871  0.00  0.00    +0.000 OA
ATOM     37  C   UNL     1      12.429   6.955  75.466  0.00  0.00    +0.000 C 
ATOM     38  C   UNL     1      12.629   7.116  74.004  0.00  0.00    +0.000 C 
ENDBRANCH  35  37
ENDBRANCH  20  35
BRANCH   6  39
ATOM     39  C   UNL     1       3.475   8.726  72.790  0.00  0.00    +0.000 C 
BRANCH  39  41
ATOM     40  O   UNL     1       2.801  10.729  71.363  0.00  0.00    +0.000 OA
ATOM     41  C   UNL     1       2.469   9.454  71.964  0.00  0.00    +0.000 C 
ATOM     42  C   UNL     1       2.848   9.624  70.565  0.00  0.00    +0.000 C 
ATOM     43  C   UNL     1       0.997   9.525  72.497  0.00  0.00    +0.000 C 
BRANCH  42  44
ATOM     44  C   UNL     1       1.900   9.501  69.494  0.00  0.00    +0.000 C 
ATOM     45  C   UNL     1       1.388  10.734  68.794  0.00  0.00    +0.000 C 
BRANCH  44  46
ATOM     46  C   UNL     1       1.869   8.297  68.741  0.00  0.00    +0.000 C 
ATOM     47  C   UNL     1       1.887   7.234  68.187  0.00  0.00    +0.000 C 
ATOM     48  C   UNL     1       1.996   5.825  67.585  0.00  0.00    +0.000 C 
ENDBRANCH  44  46
ENDBRANCH  42  44
ENDBRANCH  39  41
BRANCH  39  49
ATOM     49  O   UNL     1       3.981   7.495  72.397  0.00  0.00    +0.000 OA
ATOM     50  H   UNL     1       3.278   6.859  72.163  0.00  0.00    +0.000 HD
ENDBRANCH  39  49
ENDBRANCH   6  39
BRANCH   9  51
ATOM     51  C   UNL     1       3.342   8.205  77.374  0.00  0.00    +0.000 C 
BRANCH  51  52
ATOM     52  O   UNL     1       2.608   8.136  78.485  0.00  0.00    +0.000 OA
ATOM     53  H   UNL     1       2.631   8.984  78.966  0.00  0.00    +0.000 HD
ENDBRANCH  51  52
ENDBRANCH   9  51
TORSDOF 13
ENDMDL
MODEL 5
REMARK VINA RESULT:      -4.1     16.189     20.927
REMARK  Name = 101808841_CandidaspongiolideA.pdbqt.pdb
REMARK  13 active torsions:
REMARK  status: ('A' for Active; 'I' for Inactive)
REMARK    1  A    between atoms: C_6  and  C_39
REMARK    2  A    between atoms: C_9  and  O_27
REMARK    3  A    between atoms: C_9  and  C_51
REMARK    4  A    between atoms: C_10  and  O_29
REMARK    5  A    between atoms: C_14  and  O_31
REMARK    6  A    between atoms: C_15  and  O_33
REMARK    7  A    between atoms: C_20  and  O_35
REMARK    8  A    between atoms: O_35  and  C_37
REMARK    9  A    between atoms: C_39  and  C_41
REMARK   10  A    between atoms: C_39  and  O_49
REMARK   11  A    between atoms: C_42  and  C_44
REMARK   12  A    between atoms: C_44  and  C_46
REMARK   13  A    between atoms: C_51  and  O_52
REMARK                            x       y       z     vdW  Elec       q    Type
REMARK                         _______ _______ _______ _____ _____    ______ ____
ROOT
ATOM      1  O   UNL     1      19.479   8.648  62.229  0.00  0.00    +0.000 OA
ATOM      2  O   UNL     1      23.437   7.647  63.013  0.00  0.00    +0.000 OA
ATOM      3  O   UNL     1      18.779   8.222  64.385  0.00  0.00    +0.000 OA
ATOM      4  O   UNL     1      22.860   6.639  56.521  0.00  0.00    +0.000 OA
ATOM      5  O   UNL     1      19.637  10.074  59.772  0.00  0.00    +0.000 OA
ATOM      6  C   UNL     1      21.405   6.684  62.313  0.00  0.00    +0.000 C 
ATOM      7  C   UNL     1      22.809   7.146  62.079  0.00  0.00    +0.000 C 
ATOM      8  C   UNL     1      20.378   7.669  62.282  0.00  0.00    +0.000 C 
ATOM      9  C   UNL     1      23.332   7.037  60.620  0.00  0.00    +0.000 C 
ATOM     10  C   UNL     1      22.716   8.120  59.751  0.00  0.00    +0.000 C 
ATOM     11  C   UNL     1      22.463   7.941  58.359  0.00  0.00    +0.000 C 
ATOM     12  C   UNL     1      18.799   8.906  63.371  0.00  0.00    +0.000 C 
ATOM     13  C   UNL     1      22.266   7.620  56.954  0.00  0.00    +0.000 C 
ATOM     14  C   UNL     1      18.080  10.198  63.286  0.00  0.00    +0.000 C 
ATOM     15  C   UNL     1      17.980  11.010  62.090  0.00  0.00    +0.000 C 
ATOM     16  C   UNL     1      21.373   8.474  56.106  0.00  0.00    +0.000 C 
ATOM     17  C   UNL     1      17.537  10.566  60.774  0.00  0.00    +0.000 C 
ATOM     18  C   UNL     1      18.070  11.213  58.364  0.00  0.00    +0.000 C 
ATOM     19  C   UNL     1      18.526  10.593  59.652  0.00  0.00    +0.000 C 
ATOM     20  C   UNL     1      18.834  10.955  57.141  0.00  0.00    +0.000 C 
ATOM     21  C   UNL     1      20.781   9.665  56.596  0.00  0.00    +0.000 C 
ATOM     22  C   UNL     1      20.264  10.758  57.061  0.00  0.00    +0.000 C 
ATOM     23  C   UNL     1      21.041   8.148  54.665  0.00  0.00    +0.000 C 
ATOM     24  C   UNL     1      16.430   9.513  60.689  0.00  0.00    +0.000 C 
ATOM     25  C   UNL     1      16.892  12.180  58.337  0.00  0.00    +0.000 C 
ATOM     26  C   UNL     1      21.238  11.734  57.672  0.00  0.00    +0.000 C 
ENDROOT
BRANCH   9  27
ATOM     27  O   UNL     1      22.961   5.766  60.085  0.00  0.00    +0.000 OA
ATOM     28  H   UNL     1      22.677   5.211  60.835  0.00  0.00    +0.000 HD
ENDBRANCH   9  27
BRANCH  10  29
ATOM     29  O   UNL     1      22.418   9.335  60.334  0.00  0.00    +0.000 OA
ATOM     30  H   UNL     1      22.698  10.107  59.805  0.00  0.00    +0.000 HD
ENDBRANCH  10  29
BRANCH  14  31
ATOM     31  O   UNL     1      17.498  10.712  64.431  0.00  0.00    +0.000 OA
ATOM     32  H   UNL     1      16.669  10.232  64.642  0.00  0.00    +0.000 HD
ENDBRANCH  14  31
BRANCH  15  33
ATOM     33  O   UNL     1      17.820  12.363  62.340  0.00  0.00    +0.000 OA
ATOM     34  C   UNL     1      19.065  13.010  62.328  0.00  0.00    +0.000 C 
ENDBRANCH  15  33
BRANCH  20  35
ATOM     35  O   UNL     1      18.238  11.258  55.888  0.00  0.00    +0.000 OA
BRANCH  35  37
ATOM     36  O   UNL     1      17.403   9.092  55.652  0.00  0.00    +0.000 OA
ATOM     37  C   UNL     1      17.751  10.176  55.226  0.00  0.00    +0.000 C 
ATOM     38  C   UNL     1      17.685  10.333  53.752  0.00  0.00    +0.000 C 
ENDBRANCH  35  37
ENDBRANCH  20  35
BRANCH   6  39
ATOM     39  C   UNL     1      21.132   5.305  62.662  0.00  0.00    +0.000 C 
BRANCH  39  41
ATOM     40  O   UNL     1      20.576   5.765  65.108  0.00  0.00    +0.000 OA
ATOM     41  C   UNL     1      21.055   4.860  64.083  0.00  0.00    +0.000 C 
ATOM     42  C   UNL     1      19.702   4.832  64.632  0.00  0.00    +0.000 C 
ATOM     43  C   UNL     1      22.263   4.048  64.664  0.00  0.00    +0.000 C 
BRANCH  42  44
ATOM     44  C   UNL     1      19.255   3.789  65.512  0.00  0.00    +0.000 C 
ATOM     45  C   UNL     1      18.941   4.100  66.953  0.00  0.00    +0.000 C 
BRANCH  44  46
ATOM     46  C   UNL     1      18.590   2.663  64.957  0.00  0.00    +0.000 C 
ATOM     47  C   UNL     1      18.121   1.683  64.450  0.00  0.00    +0.000 C 
ATOM     48  C   UNL     1      17.645   0.414  63.729  0.00  0.00    +0.000 C 
ENDBRANCH  44  46
ENDBRANCH  42  44
ENDBRANCH  39  41
BRANCH  39  49
ATOM     49  O   UNL     1      20.618   4.531  61.632  0.00  0.00    +0.000 OA
ATOM     50  H   UNL     1      21.293   4.299  60.965  0.00  0.00    +0.000 HD
ENDBRANCH  39  49
ENDBRANCH   6  39
BRANCH   9  51
ATOM     51  C   UNL     1      24.807   7.166  60.579  0.00  0.00    +0.000 C 
BRANCH  51  52
ATOM     52  O   UNL     1      26.134   7.296  60.565  0.00  0.00    +0.000 OA
ATOM     53  H   UNL     1      26.562   6.442  60.368  0.00  0.00    +0.000 HD
ENDBRANCH  51  52
ENDBRANCH   9  51
TORSDOF 13
ENDMDL
MODEL 6
REMARK VINA RESULT:      -4.1     15.700     19.192
REMARK  Name = 101808841_CandidaspongiolideA.pdbqt.pdb
REMARK  13 active torsions:
REMARK  status: ('A' for Active; 'I' for Inactive)
REMARK    1  A    between atoms: C_6  and  C_39
REMARK    2  A    between atoms: C_9  and  O_27
REMARK    3  A    between atoms: C_9  and  C_51
REMARK    4  A    between atoms: C_10  and  O_29
REMARK    5  A    between atoms: C_14  and  O_31
REMARK    6  A    between atoms: C_15  and  O_33
REMARK    7  A    between atoms: C_20  and  O_35
REMARK    8  A    between atoms: O_35  and  C_37
REMARK    9  A    between atoms: C_39  and  C_41
REMARK   10  A    between atoms: C_39  and  O_49
REMARK   11  A    between atoms: C_42  and  C_44
REMARK   12  A    between atoms: C_44  and  C_46
REMARK   13  A    between atoms: C_51  and  O_52
REMARK                            x       y       z     vdW  Elec       q    Type
REMARK                         _______ _______ _______ _____ _____    ______ ____
ROOT
ATOM      1  O   UNL     1      13.423  14.493  56.880  0.00  0.00    +0.000 OA
ATOM      2  O   UNL     1      14.340  17.234  59.869  0.00  0.00    +0.000 OA
ATOM      3  O   UNL     1      11.661  15.737  56.063  0.00  0.00    +0.000 OA
ATOM      4  O   UNL     1      16.702  11.547  62.230  0.00  0.00    +0.000 OA
ATOM      5  O   UNL     1      15.754  12.868  56.743  0.00  0.00    +0.000 OA
ATOM      6  C   UNL     1      13.005  15.336  59.466  0.00  0.00    +0.000 C 
ATOM      7  C   UNL     1      14.157  16.039  60.112  0.00  0.00    +0.000 C 
ATOM      8  C   UNL     1      13.178  14.887  58.127  0.00  0.00    +0.000 C 
ATOM      9  C   UNL     1      15.101  15.159  60.976  0.00  0.00    +0.000 C 
ATOM     10  C   UNL     1      15.983  14.295  60.091  0.00  0.00    +0.000 C 
ATOM     11  C   UNL     1      16.450  13.007  60.488  0.00  0.00    +0.000 C 
ATOM     12  C   UNL     1      12.666  15.056  55.910  0.00  0.00    +0.000 C 
ATOM     13  C   UNL     1      16.853  11.718  61.025  0.00  0.00    +0.000 C 
ATOM     14  C   UNL     1      13.235  14.794  54.567  0.00  0.00    +0.000 C 
ATOM     15  C   UNL     1      14.361  13.921  54.304  0.00  0.00    +0.000 C 
ATOM     16  C   UNL     1      17.425  10.671  60.118  0.00  0.00    +0.000 C 
ATOM     17  C   UNL     1      14.509  12.539  54.743  0.00  0.00    +0.000 C 
ATOM     18  C   UNL     1      16.470  11.034  55.378  0.00  0.00    +0.000 C 
ATOM     19  C   UNL     1      15.609  12.220  55.705  0.00  0.00    +0.000 C 
ATOM     20  C   UNL     1      17.311  10.456  56.428  0.00  0.00    +0.000 C 
ATOM     21  C   UNL     1      17.693  10.924  58.749  0.00  0.00    +0.000 C 
ATOM     22  C   UNL     1      17.943  11.184  57.505  0.00  0.00    +0.000 C 
ATOM     23  C   UNL     1      17.775   9.273  60.584  0.00  0.00    +0.000 C 
ATOM     24  C   UNL     1      13.264  11.651  54.804  0.00  0.00    +0.000 C 
ATOM     25  C   UNL     1      16.551  10.498  53.953  0.00  0.00    +0.000 C 
ATOM     26  C   UNL     1      18.796  12.401  57.250  0.00  0.00    +0.000 C 
ENDROOT
BRANCH   9  27
ATOM     27  O   UNL     1      14.312  14.299  61.800  0.00  0.00    +0.000 OA
ATOM     28  H   UNL     1      13.524  14.805  62.069  0.00  0.00    +0.000 HD
ENDBRANCH   9  27
BRANCH  10  29
ATOM     29  O   UNL     1      16.369  14.797  58.864  0.00  0.00    +0.000 OA
ATOM     30  H   UNL     1      15.873  14.424  58.111  0.00  0.00    +0.000 HD
ENDBRANCH  10  29
BRANCH  14  31
ATOM     31  O   UNL     1      12.702  15.460  53.478  0.00  0.00    +0.000 OA
ATOM     32  H   UNL     1      12.558  16.407  53.688  0.00  0.00    +0.000 HD
ENDBRANCH  14  31
BRANCH  15  33
ATOM     33  O   UNL     1      15.084  14.260  53.173  0.00  0.00    +0.000 OA
ATOM     34  C   UNL     1      16.169  15.082  53.515  0.00  0.00    +0.000 C 
ENDBRANCH  15  33
BRANCH  20  35
ATOM     35  O   UNL     1      17.864   9.163  56.225  0.00  0.00    +0.000 OA
BRANCH  35  37
ATOM     36  O   UNL     1      19.811   9.590  55.011  0.00  0.00    +0.000 OA
ATOM     37  C   UNL     1      19.198   9.160  55.969  0.00  0.00    +0.000 C 
ATOM     38  C   UNL     1      20.022   8.480  56.999  0.00  0.00    +0.000 C 
ENDBRANCH  35  37
ENDBRANCH  20  35
BRANCH   6  39
ATOM     39  C   UNL     1      11.735  15.220  60.154  0.00  0.00    +0.000 C 
BRANCH  39  41
ATOM     40  O   UNL     1       9.582  13.939  60.631  0.00  0.00    +0.000 OA
ATOM     41  C   UNL     1      10.932  13.966  60.104  0.00  0.00    +0.000 C 
ATOM     42  C   UNL     1       9.729  14.053  59.280  0.00  0.00    +0.000 C 
ATOM     43  C   UNL     1      11.642  12.624  60.493  0.00  0.00    +0.000 C 
BRANCH  42  44
ATOM     44  C   UNL     1       9.295  12.971  58.442  0.00  0.00    +0.000 C 
ATOM     45  C   UNL     1       8.304  11.962  58.965  0.00  0.00    +0.000 C 
BRANCH  44  46
ATOM     46  C   UNL     1       9.330  13.141  57.032  0.00  0.00    +0.000 C 
ATOM     47  C   UNL     1       9.443  13.223  55.841  0.00  0.00    +0.000 C 
ATOM     48  C   UNL     1       9.719  13.268  54.331  0.00  0.00    +0.000 C 
ENDBRANCH  44  46
ENDBRANCH  42  44
ENDBRANCH  39  41
BRANCH  39  49
ATOM     49  O   UNL     1      11.497  16.195  61.113  0.00  0.00    +0.000 OA
ATOM     50  H   UNL     1      11.636  15.867  62.022  0.00  0.00    +0.000 HD
ENDBRANCH  39  49
ENDBRANCH   6  39
BRANCH   9  51
ATOM     51  C   UNL     1      15.961  16.000  61.840  0.00  0.00    +0.000 C 
BRANCH  51  52
ATOM     52  O   UNL     1      16.752  16.736  62.621  0.00  0.00    +0.000 OA
ATOM     53  H   UNL     1      16.224  17.240  63.269  0.00  0.00    +0.000 HD
ENDBRANCH  51  52
ENDBRANCH   9  51
TORSDOF 13
ENDMDL
MODEL 7
REMARK VINA RESULT:      -3.9     17.518     21.658
REMARK  Name = 101808841_CandidaspongiolideA.pdbqt.pdb
REMARK  13 active torsions:
REMARK  status: ('A' for Active; 'I' for Inactive)
REMARK    1  A    between atoms: C_6  and  C_39
REMARK    2  A    between atoms: C_9  and  O_27
REMARK    3  A    between atoms: C_9  and  C_51
REMARK    4  A    between atoms: C_10  and  O_29
REMARK    5  A    between atoms: C_14  and  O_31
REMARK    6  A    between atoms: C_15  and  O_33
REMARK    7  A    between atoms: C_20  and  O_35
REMARK    8  A    between atoms: O_35  and  C_37
REMARK    9  A    between atoms: C_39  and  C_41
REMARK   10  A    between atoms: C_39  and  O_49
REMARK   11  A    between atoms: C_42  and  C_44
REMARK   12  A    between atoms: C_44  and  C_46
REMARK   13  A    between atoms: C_51  and  O_52
REMARK                            x       y       z     vdW  Elec       q    Type
REMARK                         _______ _______ _______ _____ _____    ______ ____
ROOT
ATOM      1  O   UNL     1      18.626  12.580  56.716  0.00  0.00    +0.000 OA
ATOM      2  O   UNL     1      18.610  15.794  54.079  0.00  0.00    +0.000 OA
ATOM      3  O   UNL     1      20.807  11.998  56.241  0.00  0.00    +0.000 OA
ATOM      4  O   UNL     1      12.237  14.158  54.537  0.00  0.00    +0.000 OA
ATOM      5  O   UNL     1      16.356  13.067  58.359  0.00  0.00    +0.000 OA
ATOM      6  C   UNL     1      18.160  13.484  54.159  0.00  0.00    +0.000 C 
ATOM      7  C   UNL     1      17.745  14.917  54.046  0.00  0.00    +0.000 C 
ATOM      8  C   UNL     1      18.415  12.977  55.464  0.00  0.00    +0.000 C 
ATOM      9  C   UNL     1      16.216  15.186  53.991  0.00  0.00    +0.000 C 
ATOM     10  C   UNL     1      15.592  15.001  55.363  0.00  0.00    +0.000 C 
ATOM     11  C   UNL     1      14.252  14.550  55.547  0.00  0.00    +0.000 C 
ATOM     12  C   UNL     1      19.888  12.199  57.023  0.00  0.00    +0.000 C 
ATOM     13  C   UNL     1      12.874  14.088  55.583  0.00  0.00    +0.000 C 
ATOM     14  C   UNL     1      20.074  12.094  58.489  0.00  0.00    +0.000 C 
ATOM     15  C   UNL     1      19.012  12.223  59.467  0.00  0.00    +0.000 C 
ATOM     16  C   UNL     1      12.291  13.558  56.859  0.00  0.00    +0.000 C 
ATOM     17  C   UNL     1      17.749  11.496  59.476  0.00  0.00    +0.000 C 
ATOM     18  C   UNL     1      15.372  11.995  60.262  0.00  0.00    +0.000 C 
ATOM     19  C   UNL     1      16.486  12.277  59.296  0.00  0.00    +0.000 C 
ATOM     20  C   UNL     1      14.016  12.442  59.933  0.00  0.00    +0.000 C 
ATOM     21  C   UNL     1      13.007  13.585  58.082  0.00  0.00    +0.000 C 
ATOM     22  C   UNL     1      13.673  13.634  59.192  0.00  0.00    +0.000 C 
ATOM     23  C   UNL     1      10.900  12.968  56.951  0.00  0.00    +0.000 C 
ATOM     24  C   UNL     1      17.733  10.044  58.993  0.00  0.00    +0.000 C 
ATOM     25  C   UNL     1      15.655  11.344  61.611  0.00  0.00    +0.000 C 
ATOM     26  C   UNL     1      14.218  14.990  59.568  0.00  0.00    +0.000 C 
ENDROOT
BRANCH   9  27
ATOM     27  O   UNL     1      15.610  14.255  53.092  0.00  0.00    +0.000 OA
ATOM     28  H   UNL     1      15.732  13.367  53.476  0.00  0.00    +0.000 HD
ENDBRANCH   9  27
BRANCH  10  29
ATOM     29  O   UNL     1      16.351  15.313  56.473  0.00  0.00    +0.000 OA
ATOM     30  H   UNL     1      15.917  15.934  57.088  0.00  0.00    +0.000 HD
ENDBRANCH  10  29
BRANCH  14  31
ATOM     31  O   UNL     1      21.352  11.911  58.986  0.00  0.00    +0.000 OA
ATOM     32  H   UNL     1      21.327  11.408  59.828  0.00  0.00    +0.000 HD
ENDBRANCH  14  31
BRANCH  15  33
ATOM     33  O   UNL     1      19.437  12.681  60.702  0.00  0.00    +0.000 OA
ATOM     34  C   UNL     1      19.290  14.075  60.781  0.00  0.00    +0.000 C 
ENDBRANCH  15  33
BRANCH  20  35
ATOM     35  O   UNL     1      12.924  11.902  60.664  0.00  0.00    +0.000 OA
BRANCH  35  37
ATOM     36  O   UNL     1      12.840  13.484  62.377  0.00  0.00    +0.000 OA
ATOM     37  C   UNL     1      12.341  12.778  61.523  0.00  0.00    +0.000 C 
ATOM     38  C   UNL     1      10.861  12.836  61.433  0.00  0.00    +0.000 C 
ENDBRANCH  35  37
ENDBRANCH  20  35
BRANCH   6  39
ATOM     39  C   UNL     1      18.391  12.689  52.970  0.00  0.00    +0.000 C 
BRANCH  39  41
ATOM     40  O   UNL     1      18.307  10.455  51.743  0.00  0.00    +0.000 OA
ATOM     41  C   UNL     1      17.922  11.277  52.872  0.00  0.00    +0.000 C 
ATOM     42  C   UNL     1      18.991  10.283  52.911  0.00  0.00    +0.000 C 
ATOM     43  C   UNL     1      16.422  10.977  53.215  0.00  0.00    +0.000 C 
BRANCH  42  44
ATOM     44  C   UNL     1      18.856   9.041  53.616  0.00  0.00    +0.000 C 
ATOM     45  C   UNL     1      18.584   7.767  52.858  0.00  0.00    +0.000 C 
BRANCH  44  46
ATOM     46  C   UNL     1      19.503   8.893  54.873  0.00  0.00    +0.000 C 
ATOM     47  C   UNL     1      19.980   8.694  55.955  0.00  0.00    +0.000 C 
ATOM     48  C   UNL     1      20.474   8.359  57.369  0.00  0.00    +0.000 C 
ENDBRANCH  44  46
ENDBRANCH  42  44
ENDBRANCH  39  41
BRANCH  39  49
ATOM     49  O   UNL     1      18.751  13.412  51.843  0.00  0.00    +0.000 OA
ATOM     50  H   UNL     1      19.709  13.364  51.657  0.00  0.00    +0.000 HD
ENDBRANCH  39  49
ENDBRANCH   6  39
BRANCH   9  51
ATOM     51  C   UNL     1      15.941  16.563  53.516  0.00  0.00    +0.000 C 
BRANCH  51  52
ATOM     52  O   UNL     1      15.720  17.805  53.088  0.00  0.00    +0.000 OA
ATOM     53  H   UNL     1      14.805  18.080  53.287  0.00  0.00    +0.000 HD
ENDBRANCH  51  52
ENDBRANCH   9  51
TORSDOF 13
ENDMDL
MODEL 8
REMARK VINA RESULT:      -3.8     15.296     20.169
REMARK  Name = 101808841_CandidaspongiolideA.pdbqt.pdb
REMARK  13 active torsions:
REMARK  status: ('A' for Active; 'I' for Inactive)
REMARK    1  A    between atoms: C_6  and  C_39
REMARK    2  A    between atoms: C_9  and  O_27
REMARK    3  A    between atoms: C_9  and  C_51
REMARK    4  A    between atoms: C_10  and  O_29
REMARK    5  A    between atoms: C_14  and  O_31
REMARK    6  A    between atoms: C_15  and  O_33
REMARK    7  A    between atoms: C_20  and  O_35
REMARK    8  A    between atoms: O_35  and  C_37
REMARK    9  A    between atoms: C_39  and  C_41
REMARK   10  A    between atoms: C_39  and  O_49
REMARK   11  A    between atoms: C_42  and  C_44
REMARK   12  A    between atoms: C_44  and  C_46
REMARK   13  A    between atoms: C_51  and  O_52
REMARK                            x       y       z     vdW  Elec       q    Type
REMARK                         _______ _______ _______ _____ _____    ______ ____
ROOT
ATOM      1  O   UNL     1      17.590  11.610  61.710  0.00  0.00    +0.000 OA
ATOM      2  O   UNL     1      21.723  11.230  61.958  0.00  0.00    +0.000 OA
ATOM      3  O   UNL     1      17.315  11.812  63.991  0.00  0.00    +0.000 OA
ATOM      4  O   UNL     1      20.247   8.225  56.275  0.00  0.00    +0.000 OA
ATOM      5  O   UNL     1      17.150  12.216  58.966  0.00  0.00    +0.000 OA
ATOM      6  C   UNL     1      19.756   9.934  61.977  0.00  0.00    +0.000 C 
ATOM      7  C   UNL     1      21.027  10.414  61.349  0.00  0.00    +0.000 C 
ATOM      8  C   UNL     1      18.613  10.773  61.865  0.00  0.00    +0.000 C 
ATOM      9  C   UNL     1      21.316   9.905  59.911  0.00  0.00    +0.000 C 
ATOM     10  C   UNL     1      20.425  10.613  58.905  0.00  0.00    +0.000 C 
ATOM     11  C   UNL     1      19.977   9.993  57.701  0.00  0.00    +0.000 C 
ATOM     12  C   UNL     1      17.075  12.149  62.840  0.00  0.00    +0.000 C 
ATOM     13  C   UNL     1      19.601   9.240  56.515  0.00  0.00    +0.000 C 
ATOM     14  C   UNL     1      16.181  13.288  62.529  0.00  0.00    +0.000 C 
ATOM     15  C   UNL     1      15.777  13.681  61.195  0.00  0.00    +0.000 C 
ATOM     16  C   UNL     1      18.473   9.714  55.649  0.00  0.00    +0.000 C 
ATOM     17  C   UNL     1      15.192  12.818  60.176  0.00  0.00    +0.000 C 
ATOM     18  C   UNL     1      15.233  12.733  57.625  0.00  0.00    +0.000 C 
ATOM     19  C   UNL     1      15.973  12.580  58.922  0.00  0.00    +0.000 C 
ATOM     20  C   UNL     1      15.818  12.175  56.404  0.00  0.00    +0.000 C 
ATOM     21  C   UNL     1      17.810  10.945  55.882  0.00  0.00    +0.000 C 
ATOM     22  C   UNL     1      17.229  12.081  56.105  0.00  0.00    +0.000 C 
ATOM     23  C   UNL     1      17.960   8.933  54.458  0.00  0.00    +0.000 C 
ATOM     24  C   UNL     1      14.242  11.702  60.616  0.00  0.00    +0.000 C 
ATOM     25  C   UNL     1      13.945  13.544  57.553  0.00  0.00    +0.000 C 
ATOM     26  C   UNL     1      18.145  13.275  56.206  0.00  0.00    +0.000 C 
ENDROOT
BRANCH   9  27
ATOM     27  O   UNL     1      21.042   8.505  59.847  0.00  0.00    +0.000 OA
ATOM     28  H   UNL     1      21.728   8.055  60.374  0.00  0.00    +0.000 HD
ENDBRANCH   9  27
BRANCH  10  29
ATOM     29  O   UNL     1      20.061  11.920  59.160  0.00  0.00    +0.000 OA
ATOM     30  H   UNL     1      19.750  12.073  60.072  0.00  0.00    +0.000 HD
ENDBRANCH  10  29
BRANCH  14  31
ATOM     31  O   UNL     1      15.726  14.080  63.569  0.00  0.00    +0.000 OA
ATOM     32  H   UNL     1      14.782  13.894  63.758  0.00  0.00    +0.000 HD
ENDBRANCH  14  31
BRANCH  15  33
ATOM     33  O   UNL     1      15.475  15.027  61.070  0.00  0.00    +0.000 OA
ATOM     34  C   UNL     1      16.600  15.740  60.629  0.00  0.00    +0.000 C 
ENDBRANCH  15  33
BRANCH  20  35
ATOM     35  O   UNL     1      14.991  12.026  55.258  0.00  0.00    +0.000 OA
BRANCH  35  37
ATOM     36  O   UNL     1      15.239  14.133  54.288  0.00  0.00    +0.000 OA
ATOM     37  C   UNL     1      15.246  12.917  54.266  0.00  0.00    +0.000 C 
ATOM     38  C   UNL     1      15.524  12.306  52.943  0.00  0.00    +0.000 C 
ENDBRANCH  35  37
ENDBRANCH  20  35
BRANCH   6  39
ATOM     39  C   UNL     1      19.736   8.711  62.754  0.00  0.00    +0.000 C 
BRANCH  39  41
ATOM     40  O   UNL     1      19.365   9.715  65.070  0.00  0.00    +0.000 OA
ATOM     41  C   UNL     1      19.989   8.717  64.224  0.00  0.00    +0.000 C 
ATOM     42  C   UNL     1      18.802   8.472  65.039  0.00  0.00    +0.000 C 
ATOM     43  C   UNL     1      21.461   8.500  64.716  0.00  0.00    +0.000 C 
BRANCH  42  44
ATOM     44  C   UNL     1      18.842   7.665  66.225  0.00  0.00    +0.000 C 
ATOM     45  C   UNL     1      18.477   8.264  67.560  0.00  0.00    +0.000 C 
BRANCH  44  46
ATOM     46  C   UNL     1      18.670   6.260  66.103  0.00  0.00    +0.000 C 
ATOM     47  C   UNL     1      18.435   5.085  66.052  0.00  0.00    +0.000 C 
ATOM     48  C   UNL     1      18.030   3.604  66.083  0.00  0.00    +0.000 C 
ENDBRANCH  44  46
ENDBRANCH  42  44
ENDBRANCH  39  41
BRANCH  39  49
ATOM     49  O   UNL     1      19.141   7.627  62.126  0.00  0.00    +0.000 OA
ATOM     50  H   UNL     1      18.610   7.084  62.739  0.00  0.00    +0.000 HD
ENDBRANCH  39  49
ENDBRANCH   6  39
BRANCH   9  51
ATOM     51  C   UNL     1      22.734  10.137  59.546  0.00  0.00    +0.000 C 
BRANCH  51  52
ATOM     52  O   UNL     1      24.009  10.366  59.235  0.00  0.00    +0.000 OA
ATOM     53  H   UNL     1      24.256   9.890  58.420  0.00  0.00    +0.000 HD
ENDBRANCH  51  52
ENDBRANCH   9  51
TORSDOF 13
ENDMDL
MODEL 9
REMARK VINA RESULT:      -3.8      9.362     13.633
REMARK  Name = 101808841_CandidaspongiolideA.pdbqt.pdb
REMARK  13 active torsions:
REMARK  status: ('A' for Active; 'I' for Inactive)
REMARK    1  A    between atoms: C_6  and  C_39
REMARK    2  A    between atoms: C_9  and  O_27
REMARK    3  A    between atoms: C_9  and  C_51
REMARK    4  A    between atoms: C_10  and  O_29
REMARK    5  A    between atoms: C_14  and  O_31
REMARK    6  A    between atoms: C_15  and  O_33
REMARK    7  A    between atoms: C_20  and  O_35
REMARK    8  A    between atoms: O_35  and  C_37
REMARK    9  A    between atoms: C_39  and  C_41
REMARK   10  A    between atoms: C_39  and  O_49
REMARK   11  A    between atoms: C_42  and  C_44
REMARK   12  A    between atoms: C_44  and  C_46
REMARK   13  A    between atoms: C_51  and  O_52
REMARK                            x       y       z     vdW  Elec       q    Type
REMARK                         _______ _______ _______ _____ _____    ______ ____
ROOT
ATOM      1  O   UNL     1       4.966  13.065  64.526  0.00  0.00    +0.000 OA
ATOM      2  O   UNL     1       6.432  12.921  60.638  0.00  0.00    +0.000 OA
ATOM      3  O   UNL     1       5.938  15.106  64.984  0.00  0.00    +0.000 OA
ATOM      4  O   UNL     1       5.503   6.572  62.159  0.00  0.00    +0.000 OA
ATOM      5  O   UNL     1       2.914  11.094  64.527  0.00  0.00    +0.000 OA
ATOM      6  C   UNL     1       7.006  12.312  62.839  0.00  0.00    +0.000 C 
ATOM      7  C   UNL     1       6.600  11.995  61.434  0.00  0.00    +0.000 C 
ATOM      8  C   UNL     1       5.982  12.709  63.743  0.00  0.00    +0.000 C 
ATOM      9  C   UNL     1       6.325  10.499  61.120  0.00  0.00    +0.000 C 
ATOM     10  C   UNL     1       4.998  10.064  61.717  0.00  0.00    +0.000 C 
ATOM     11  C   UNL     1       4.753   8.733  62.166  0.00  0.00    +0.000 C 
ATOM     12  C   UNL     1       4.997  14.326  65.019  0.00  0.00    +0.000 C 
ATOM     13  C   UNL     1       4.645   7.342  62.578  0.00  0.00    +0.000 C 
ATOM     14  C   UNL     1       3.685  14.708  65.592  0.00  0.00    +0.000 C 
ATOM     15  C   UNL     1       2.561  13.809  65.753  0.00  0.00    +0.000 C 
ATOM     16  C   UNL     1       3.523   6.908  63.471  0.00  0.00    +0.000 C 
ATOM     17  C   UNL     1       2.578  12.507  66.410  0.00  0.00    +0.000 C 
ATOM     18  C   UNL     1       1.310  10.311  66.124  0.00  0.00    +0.000 C 
ATOM     19  C   UNL     1       2.304  11.295  65.578  0.00  0.00    +0.000 C 
ATOM     20  C   UNL     1       1.264   8.961  65.558  0.00  0.00    +0.000 C 
ATOM     21  C   UNL     1       2.482   7.789  63.856  0.00  0.00    +0.000 C 
ATOM     22  C   UNL     1       1.532   8.608  64.182  0.00  0.00    +0.000 C 
ATOM     23  C   UNL     1       3.400   5.503  64.021  0.00  0.00    +0.000 C 
ATOM     24  C   UNL     1       3.480  12.312  67.631  0.00  0.00    +0.000 C 
ATOM     25  C   UNL     1       0.294  10.732  67.179  0.00  0.00    +0.000 C 
ATOM     26  C   UNL     1       0.844   9.302  63.034  0.00  0.00    +0.000 C 
ENDROOT
BRANCH   9  27
ATOM     27  O   UNL     1       7.361   9.703  61.698  0.00  0.00    +0.000 OA
ATOM     28  H   UNL     1       8.050  10.316  62.014  0.00  0.00    +0.000 HD
ENDBRANCH   9  27
BRANCH  10  29
ATOM     29  O   UNL     1       3.981  10.994  61.797  0.00  0.00    +0.000 OA
ATOM     30  H   UNL     1       3.245  10.726  62.380  0.00  0.00    +0.000 HD
ENDBRANCH  10  29
BRANCH  14  31
ATOM     31  O   UNL     1       3.479  16.026  65.960  0.00  0.00    +0.000 OA
ATOM     32  H   UNL     1       4.289  16.558  65.808  0.00  0.00    +0.000 HD
ENDBRANCH  14  31
BRANCH  15  33
ATOM     33  O   UNL     1       1.328  14.438  65.725  0.00  0.00    +0.000 OA
ATOM     34  C   UNL     1       0.795  14.408  64.428  0.00  0.00    +0.000 C 
ENDBRANCH  15  33
BRANCH  20  35
ATOM     35  O   UNL     1       0.574   7.945  66.273  0.00  0.00    +0.000 OA
BRANCH  35  37
ATOM     36  O   UNL     1      -1.609   8.293  65.526  0.00  0.00    +0.000 OA
ATOM     37  C   UNL     1      -0.629   7.606  65.740  0.00  0.00    +0.000 C 
ATOM     38  C   UNL     1      -0.779   6.165  65.422  0.00  0.00    +0.000 C 
ENDBRANCH  35  37
ENDBRANCH  20  35
BRANCH   6  39
ATOM     39  C   UNL     1       8.404  12.311  63.219  0.00  0.00    +0.000 C 
BRANCH  39  41
ATOM     40  O   UNL     1      10.837  12.881  62.709  0.00  0.00    +0.000 OA
ATOM     41  C   UNL     1       9.425  13.069  62.441  0.00  0.00    +0.000 C 
ATOM     42  C   UNL     1      10.307  12.233  61.632  0.00  0.00    +0.000 C 
ATOM     43  C   UNL     1       9.168  14.593  62.183  0.00  0.00    +0.000 C 
BRANCH  42  44
ATOM     44  C   UNL     1      10.731  12.618  60.315  0.00  0.00    +0.000 C 
ATOM     45  C   UNL     1      12.186  12.525  59.932  0.00  0.00    +0.000 C 
BRANCH  44  46
ATOM     46  C   UNL     1       9.797  12.543  59.247  0.00  0.00    +0.000 C 
ATOM     47  C   UNL     1       9.020  12.582  58.334  0.00  0.00    +0.000 C 
ATOM     48  C   UNL     1       8.027  12.777  57.180  0.00  0.00    +0.000 C 
ENDBRANCH  44  46
ENDBRANCH  42  44
ENDBRANCH  39  41
BRANCH  39  49
ATOM     49  O   UNL     1       8.660  11.863  64.507  0.00  0.00    +0.000 OA
ATOM     50  H   UNL     1       9.608  11.912  64.739  0.00  0.00    +0.000 HD
ENDBRANCH  39  49
ENDBRANCH   6  39
BRANCH   9  51
ATOM     51  C   UNL     1       6.297  10.265  59.657  0.00  0.00    +0.000 C 
BRANCH  51  52
ATOM     52  O   UNL     1       6.293  10.071  58.339  0.00  0.00    +0.000 OA
ATOM     53  H   UNL     1       5.947   9.185  58.122  0.00  0.00    +0.000 HD
ENDBRANCH  51  52
ENDBRANCH   9  51
TORSDOF 13
ENDMDL
