MODEL 1
REMARK VINA RESULT:      -4.5      0.000      0.000
REMARK  Name = 102471178_CandidaspongiolideCore.pdbqt.pdb
REMARK  13 active torsions:
REMARK  status: ('A' for Active; 'I' for Inactive)
REMARK    1  A    between atoms: C_6  and  C_39
REMARK    2  A    between atoms: C_8  and  O_27
REMARK    3  A    between atoms: C_8  and  C_51
REMARK    4  A    between atoms: C_10  and  O_29
REMARK    5  A    between atoms: C_15  and  O_31
REMARK    6  A    between atoms: C_16  and  O_33
REMARK    7  A    between atoms: C_21  and  O_35
REMARK    8  A    between atoms: O_35  and  C_37
REMARK    9  A    between atoms: C_39  and  C_41
REMARK   10  A    between atoms: C_39  and  O_49
REMARK   11  A    between atoms: C_42  and  C_44
REMARK   12  A    between atoms: C_44  and  C_46
REMARK   13  A    between atoms: C_51  and  O_52
REMARK                            x       y       z     vdW  Elec       q    Type
REMARK                         _______ _______ _______ _____ _____    ______ ____
ROOT
ATOM      1  O   UNL     1      14.965   6.851  69.293  0.00  0.00    +0.000 OA
ATOM      2  O   UNL     1      17.064   6.858  68.362  0.00  0.00    +0.000 OA
ATOM      3  O   UNL     1      21.466   4.995  67.098  0.00  0.00    +0.000 OA
ATOM      4  O   UNL     1      13.747   7.763  67.625  0.00  0.00    +0.000 OA
ATOM      5  O   UNL     1      16.489   9.531  66.305  0.00  0.00    +0.000 OA
ATOM      6  C   UNL     1      16.407   5.142  69.904  0.00  0.00    +0.000 C 
ATOM      7  C   UNL     1      17.691   4.775  70.396  0.00  0.00    +0.000 C 
ATOM      8  C   UNL     1      18.936   4.356  71.044  0.00  0.00    +0.000 C 
ATOM      9  C   UNL     1      16.207   6.368  69.086  0.00  0.00    +0.000 C 
ATOM     10  C   UNL     1      19.887   3.686  70.076  0.00  0.00    +0.000 C 
ATOM     11  C   UNL     1      20.131   4.134  68.750  0.00  0.00    +0.000 C 
ATOM     12  C   UNL     1      20.329   4.665  67.418  0.00  0.00    +0.000 C 
ATOM     13  C   UNL     1      14.601   7.873  68.497  0.00  0.00    +0.000 C 
ATOM     14  C   UNL     1      19.169   4.844  66.493  0.00  0.00    +0.000 C 
ATOM     15  C   UNL     1      15.047   9.222  68.925  0.00  0.00    +0.000 C 
ATOM     16  C   UNL     1      16.399   9.553  69.326  0.00  0.00    +0.000 C 
ATOM     17  C   UNL     1      17.469   9.978  68.432  0.00  0.00    +0.000 C 
ATOM     18  C   UNL     1      19.183   5.900  65.550  0.00  0.00    +0.000 C 
ATOM     19  C   UNL     1      18.732   8.793  66.543  0.00  0.00    +0.000 C 
ATOM     20  C   UNL     1      17.842   4.129  66.703  0.00  0.00    +0.000 C 
ATOM     21  C   UNL     1      18.721   8.238  65.194  0.00  0.00    +0.000 C 
ATOM     22  C   UNL     1      17.484   9.466  67.028  0.00  0.00    +0.000 C 
ATOM     23  C   UNL     1      19.221   6.938  64.771  0.00  0.00    +0.000 C 
ATOM     24  C   UNL     1      18.377  11.152  68.787  0.00  0.00    +0.000 C 
ATOM     25  C   UNL     1      19.865   8.417  67.488  0.00  0.00    +0.000 C 
ATOM     26  C   UNL     1      19.766   6.703  63.386  0.00  0.00    +0.000 C 
ENDROOT
BRANCH   8  27
ATOM     27  O   UNL     1      18.553   3.403  72.039  0.00  0.00    +0.000 OA
ATOM     28  H   UNL     1      19.274   3.439  72.699  0.00  0.00    +0.000 HD
ENDBRANCH   8  27
BRANCH  10  29
ATOM     29  O   UNL     1      20.599   2.595  70.548  0.00  0.00    +0.000 OA
ATOM     30  H   UNL     1      20.115   2.113  71.245  0.00  0.00    +0.000 HD
ENDBRANCH  10  29
BRANCH  15  31
ATOM     31  O   UNL     1      14.316  10.314  68.482  0.00  0.00    +0.000 OA
ATOM     32  H   UNL     1      13.361  10.182  68.661  0.00  0.00    +0.000 HD
ENDBRANCH  15  31
BRANCH  16  33
ATOM     33  O   UNL     1      16.541   9.961  70.640  0.00  0.00    +0.000 OA
ATOM     34  C   UNL     1      17.033   8.890  71.409  0.00  0.00    +0.000 C 
ENDBRANCH  16  33
BRANCH  21  35
ATOM     35  O   UNL     1      18.329   9.156  64.187  0.00  0.00    +0.000 OA
BRANCH  35  37
ATOM     36  O   UNL     1      20.408  10.174  63.846  0.00  0.00    +0.000 OA
ATOM     37  C   UNL     1      19.206  10.188  64.039  0.00  0.00    +0.000 C 
ATOM     38  C   UNL     1      18.584  11.537  64.086  0.00  0.00    +0.000 C 
ENDBRANCH  35  37
ENDBRANCH  21  35
BRANCH   6  39
ATOM     39  C   UNL     1      15.313   4.231  70.152  0.00  0.00    +0.000 C 
BRANCH  39  41
ATOM     40  O   UNL     1      13.272   3.701  71.585  0.00  0.00    +0.000 OA
ATOM     41  C   UNL     1      14.604   4.252  71.462  0.00  0.00    +0.000 C 
ATOM     42  C   UNL     1      14.320   2.907  71.956  0.00  0.00    +0.000 C 
ATOM     43  C   UNL     1      14.732   5.519  72.381  0.00  0.00    +0.000 C 
BRANCH  42  44
ATOM     44  C   UNL     1      14.396   2.517  73.332  0.00  0.00    +0.000 C 
ATOM     45  C   UNL     1      15.735   2.449  74.029  0.00  0.00    +0.000 C 
BRANCH  44  46
ATOM     46  C   UNL     1      13.264   2.637  74.178  0.00  0.00    +0.000 C 
ATOM     47  C   UNL     1      12.278   2.728  74.854  0.00  0.00    +0.000 C 
ATOM     48  C   UNL     1      10.979   2.817  75.665  0.00  0.00    +0.000 C 
ENDBRANCH  44  46
ENDBRANCH  42  44
ENDBRANCH  39  41
BRANCH  39  49
ATOM     49  O   UNL     1      15.020   3.317  69.154  0.00  0.00    +0.000 OA
ATOM     50  H   UNL     1      14.072   3.257  68.927  0.00  0.00    +0.000 HD
ENDBRANCH  39  49
ENDBRANCH   6  39
BRANCH   8  51
ATOM     51  C   UNL     1      19.605   5.474  71.729  0.00  0.00    +0.000 C 
BRANCH  51  52
ATOM     52  O   UNL     1      20.244   6.484  72.321  0.00  0.00    +0.000 OA
ATOM     53  H   UNL     1      19.664   6.934  72.968  0.00  0.00    +0.000 HD
ENDBRANCH  51  52
ENDBRANCH   8  51
TORSDOF 13
ENDMDL
MODEL 2
REMARK VINA RESULT:      -4.5     10.056     14.708
REMARK  Name = 102471178_CandidaspongiolideCore.pdbqt.pdb
REMARK  13 active torsions:
REMARK  status: ('A' for Active; 'I' for Inactive)
REMARK    1  A    between atoms: C_6  and  C_39
REMARK    2  A    between atoms: C_8  and  O_27
REMARK    3  A    between atoms: C_8  and  C_51
REMARK    4  A    between atoms: C_10  and  O_29
REMARK    5  A    between atoms: C_15  and  O_31
REMARK    6  A    between atoms: C_16  and  O_33
REMARK    7  A    between atoms: C_21  and  O_35
REMARK    8  A    between atoms: O_35  and  C_37
REMARK    9  A    between atoms: C_39  and  C_41
REMARK   10  A    between atoms: C_39  and  O_49
REMARK   11  A    between atoms: C_42  and  C_44
REMARK   12  A    between atoms: C_44  and  C_46
REMARK   13  A    between atoms: C_51  and  O_52
REMARK                            x       y       z     vdW  Elec       q    Type
REMARK                         _______ _______ _______ _____ _____    ______ ____
ROOT
ATOM      1  O   UNL     1      17.180  10.906  59.080  0.00  0.00    +0.000 OA
ATOM      2  O   UNL     1      15.506  12.390  58.559  0.00  0.00    +0.000 OA
ATOM      3  O   UNL     1      12.717  15.226  55.623  0.00  0.00    +0.000 OA
ATOM      4  O   UNL     1      16.077   9.459  60.417  0.00  0.00    +0.000 OA
ATOM      5  O   UNL     1      13.715  11.864  61.427  0.00  0.00    +0.000 OA
ATOM      6  C   UNL     1      17.259  11.913  56.993  0.00  0.00    +0.000 C 
ATOM      7  C   UNL     1      17.229  13.121  56.243  0.00  0.00    +0.000 C 
ATOM      8  C   UNL     1      17.361  14.342  55.443  0.00  0.00    +0.000 C 
ATOM      9  C   UNL     1      16.529  11.776  58.281  0.00  0.00    +0.000 C 
ATOM     10  C   UNL     1      16.131  14.610  54.604  0.00  0.00    +0.000 C 
ATOM     11  C   UNL     1      14.795  14.442  55.058  0.00  0.00    +0.000 C 
ATOM     12  C   UNL     1      13.468  14.257  55.607  0.00  0.00    +0.000 C 
ATOM     13  C   UNL     1      16.542  10.575  60.218  0.00  0.00    +0.000 C 
ATOM     14  C   UNL     1      13.060  12.935  56.172  0.00  0.00    +0.000 C 
ATOM     15  C   UNL     1      16.701  11.520  61.351  0.00  0.00    +0.000 C 
ATOM     16  C   UNL     1      16.529  12.955  61.255  0.00  0.00    +0.000 C 
ATOM     17  C   UNL     1      15.272  13.672  61.424  0.00  0.00    +0.000 C 
ATOM     18  C   UNL     1      12.138  12.889  57.246  0.00  0.00    +0.000 C 
ATOM     19  C   UNL     1      13.096  13.710  60.069  0.00  0.00    +0.000 C 
ATOM     20  C   UNL     1      13.802  11.646  55.849  0.00  0.00    +0.000 C 
ATOM     21  C   UNL     1      11.884  13.021  59.639  0.00  0.00    +0.000 C 
ATOM     22  C   UNL     1      13.997  12.997  61.031  0.00  0.00    +0.000 C 
ATOM     23  C   UNL     1      11.359  12.922  58.284  0.00  0.00    +0.000 C 
ATOM     24  C   UNL     1      15.191  14.943  62.264  0.00  0.00    +0.000 C 
ATOM     25  C   UNL     1      13.542  14.959  59.321  0.00  0.00    +0.000 C 
ATOM     26  C   UNL     1       9.884  12.799  58.005  0.00  0.00    +0.000 C 
ENDROOT
BRANCH   8  27
ATOM     27  O   UNL     1      18.468  14.114  54.569  0.00  0.00    +0.000 OA
ATOM     28  H   UNL     1      18.626  13.150  54.624  0.00  0.00    +0.000 HD
ENDBRANCH   8  27
BRANCH  10  29
ATOM     29  O   UNL     1      16.338  15.101  53.324  0.00  0.00    +0.000 OA
ATOM     30  H   UNL     1      15.536  15.510  52.951  0.00  0.00    +0.000 HD
ENDBRANCH  10  29
BRANCH  15  31
ATOM     31  O   UNL     1      16.528  11.024  62.633  0.00  0.00    +0.000 OA
ATOM     32  H   UNL     1      15.659  11.301  62.994  0.00  0.00    +0.000 HD
ENDBRANCH  15  31
BRANCH  16  33
ATOM     33  O   UNL     1      17.664  13.703  61.511  0.00  0.00    +0.000 OA
ATOM     34  C   UNL     1      18.198  14.168  60.295  0.00  0.00    +0.000 C 
ENDBRANCH  16  33
BRANCH  21  35
ATOM     35  O   UNL     1      11.068  12.555  60.701  0.00  0.00    +0.000 OA
BRANCH  35  37
ATOM     36  O   UNL     1       9.864  14.525  61.077  0.00  0.00    +0.000 OA
ATOM     37  C   UNL     1      10.522  13.564  61.434  0.00  0.00    +0.000 C 
ATOM     38  C   UNL     1      10.736  13.449  62.899  0.00  0.00    +0.000 C 
ENDBRANCH  35  37
ENDBRANCH  21  35
BRANCH   6  39
ATOM     39  C   UNL     1      17.955  10.786  56.413  0.00  0.00    +0.000 C 
BRANCH  39  41
ATOM     40  O   UNL     1      20.185  12.021  56.339  0.00  0.00    +0.000 OA
ATOM     41  C   UNL     1      19.329  10.956  55.863  0.00  0.00    +0.000 C 
ATOM     42  C   UNL     1      20.357  10.780  56.885  0.00  0.00    +0.000 C 
ATOM     43  C   UNL     1      19.568  10.741  54.326  0.00  0.00    +0.000 C 
BRANCH  42  44
ATOM     44  C   UNL     1      21.615  10.133  56.664  0.00  0.00    +0.000 C 
ATOM     45  C   UNL     1      22.835  10.947  56.302  0.00  0.00    +0.000 C 
BRANCH  44  46
ATOM     46  C   UNL     1      21.869   8.848  57.209  0.00  0.00    +0.000 C 
ATOM     47  C   UNL     1      22.103   7.784  57.709  0.00  0.00    +0.000 C 
ATOM     48  C   UNL     1      22.417   6.456  58.411  0.00  0.00    +0.000 C 
ENDBRANCH  44  46
ENDBRANCH  42  44
ENDBRANCH  39  41
BRANCH  39  49
ATOM     49  O   UNL     1      17.259   9.591  56.338  0.00  0.00    +0.000 OA
ATOM     50  H   UNL     1      16.402   9.592  56.805  0.00  0.00    +0.000 HD
ENDBRANCH  39  49
ENDBRANCH   6  39
BRANCH   8  51
ATOM     51  C   UNL     1      17.680  15.514  56.274  0.00  0.00    +0.000 C 
BRANCH  51  52
ATOM     52  O   UNL     1      18.002  16.586  56.999  0.00  0.00    +0.000 OA
ATOM     53  H   UNL     1      17.730  17.410  56.546  0.00  0.00    +0.000 HD
ENDBRANCH  51  52
ENDBRANCH   8  51
TORSDOF 13
ENDMDL
MODEL 3
REMARK VINA RESULT:      -4.4      9.029     12.090
REMARK  Name = 102471178_CandidaspongiolideCore.pdbqt.pdb
REMARK  13 active torsions:
REMARK  status: ('A' for Active; 'I' for Inactive)
REMARK    1  A    between atoms: C_6  and  C_39
REMARK    2  A    between atoms: C_8  and  O_27
REMARK    3  A    between atoms: C_8  and  C_51
REMARK    4  A    between atoms: C_10  and  O_29
REMARK    5  A    between atoms: C_15  and  O_31
REMARK    6  A    between atoms: C_16  and  O_33
REMARK    7  A    between atoms: C_21  and  O_35
REMARK    8  A    between atoms: O_35  and  C_37
REMARK    9  A    between atoms: C_39  and  C_41
REMARK   10  A    between atoms: C_39  and  O_49
REMARK   11  A    between atoms: C_42  and  C_44
REMARK   12  A    between atoms: C_44  and  C_46
REMARK   13  A    between atoms: C_51  and  O_52
REMARK                            x       y       z     vdW  Elec       q    Type
REMARK                         _______ _______ _______ _____ _____    ______ ____
ROOT
ATOM      1  O   UNL     1      18.447   0.306  62.331  0.00  0.00    +0.000 OA
ATOM      2  O   UNL     1      18.156  -1.053  60.503  0.00  0.00    +0.000 OA
ATOM      3  O   UNL     1      15.794  -4.253  57.567  0.00  0.00    +0.000 OA
ATOM      4  O   UNL     1      19.201   2.196  61.352  0.00  0.00    +0.000 OA
ATOM      5  O   UNL     1      20.541   0.480  58.587  0.00  0.00    +0.000 OA
ATOM      6  C   UNL     1      16.737  -1.256  62.426  0.00  0.00    +0.000 C 
ATOM      7  C   UNL     1      16.346  -2.616  62.277  0.00  0.00    +0.000 C 
ATOM      8  C   UNL     1      15.929  -4.020  62.290  0.00  0.00    +0.000 C 
ATOM      9  C   UNL     1      17.844  -0.671  61.624  0.00  0.00    +0.000 C 
ATOM     10  C   UNL     1      15.055  -4.367  61.104  0.00  0.00    +0.000 C 
ATOM     11  C   UNL     1      15.286  -3.918  59.776  0.00  0.00    +0.000 C 
ATOM     12  C   UNL     1      15.603  -3.427  58.452  0.00  0.00    +0.000 C 
ATOM     13  C   UNL     1      19.369   1.022  61.661  0.00  0.00    +0.000 C 
ATOM     14  C   UNL     1      15.736  -1.959  58.200  0.00  0.00    +0.000 C 
ATOM     15  C   UNL     1      20.727   0.428  61.588  0.00  0.00    +0.000 C 
ATOM     16  C   UNL     1      21.005  -0.944  61.213  0.00  0.00    +0.000 C 
ATOM     17  C   UNL     1      21.213  -1.426  59.854  0.00  0.00    +0.000 C 
ATOM     18  C   UNL     1      16.641  -1.499  57.213  0.00  0.00    +0.000 C 
ATOM     19  C   UNL     1      19.673  -1.589  57.811  0.00  0.00    +0.000 C 
ATOM     20  C   UNL     1      15.164  -0.915  59.149  0.00  0.00    +0.000 C 
ATOM     21  C   UNL     1      18.932  -0.911  56.753  0.00  0.00    +0.000 C 
ATOM     22  C   UNL     1      20.504  -0.744  58.729  0.00  0.00    +0.000 C 
ATOM     23  C   UNL     1      17.550  -1.140  56.358  0.00  0.00    +0.000 C 
ATOM     24  C   UNL     1      22.351  -2.386  59.520  0.00  0.00    +0.000 C 
ATOM     25  C   UNL     1      19.350  -3.043  58.126  0.00  0.00    +0.000 C 
ATOM     26  C   UNL     1      17.076  -0.927  54.944  0.00  0.00    +0.000 C 
ENDROOT
BRANCH   8  27
ATOM     27  O   UNL     1      15.162  -4.186  63.485  0.00  0.00    +0.000 OA
ATOM     28  H   UNL     1      14.678  -3.340  63.580  0.00  0.00    +0.000 HD
ENDBRANCH   8  27
BRANCH  10  29
ATOM     29  O   UNL     1      13.991  -5.224  61.338  0.00  0.00    +0.000 OA
ATOM     30  H   UNL     1      13.777  -5.297  62.287  0.00  0.00    +0.000 HD
ENDBRANCH  10  29
BRANCH  15  31
ATOM     31  O   UNL     1      21.796   1.287  61.389  0.00  0.00    +0.000 OA
ATOM     32  H   UNL     1      22.067   1.284  60.445  0.00  0.00    +0.000 HD
ENDBRANCH  15  31
BRANCH  16  33
ATOM     33  O   UNL     1      21.586  -1.718  62.202  0.00  0.00    +0.000 OA
ATOM     34  C   UNL     1      20.613  -2.567  62.758  0.00  0.00    +0.000 C 
ENDBRANCH  16  33
BRANCH  21  35
ATOM     35  O   UNL     1      19.724  -0.067  55.933  0.00  0.00    +0.000 OA
BRANCH  35  37
ATOM     36  O   UNL     1      20.492  -1.687  54.430  0.00  0.00    +0.000 OA
ATOM     37  C   UNL     1      20.641  -0.752  55.195  0.00  0.00    +0.000 C 
ATOM     38  C   UNL     1      22.034  -0.249  55.322  0.00  0.00    +0.000 C 
ENDBRANCH  35  37
ENDBRANCH  21  35
BRANCH   6  39
ATOM     39  C   UNL     1      15.959  -0.434  63.324  0.00  0.00    +0.000 C 
BRANCH  39  41
ATOM     40  O   UNL     1      16.928  -1.500  65.428  0.00  0.00    +0.000 OA
ATOM     41  C   UNL     1      15.855  -0.791  64.767  0.00  0.00    +0.000 C 
ATOM     42  C   UNL     1      16.887  -0.142  65.571  0.00  0.00    +0.000 C 
ATOM     43  C   UNL     1      14.476  -1.282  65.335  0.00  0.00    +0.000 C 
BRANCH  42  44
ATOM     44  C   UNL     1      16.681   0.375  66.890  0.00  0.00    +0.000 C 
ATOM     45  C   UNL     1      16.971  -0.486  68.097  0.00  0.00    +0.000 C 
BRANCH  44  46
ATOM     46  C   UNL     1      16.661   1.774  67.120  0.00  0.00    +0.000 C 
ATOM     47  C   UNL     1      16.596   2.954  67.326  0.00  0.00    +0.000 C 
ATOM     48  C   UNL     1      16.449   4.452  67.618  0.00  0.00    +0.000 C 
ENDBRANCH  44  46
ENDBRANCH  42  44
ENDBRANCH  39  41
BRANCH  39  49
ATOM     49  O   UNL     1      15.278   0.635  62.765  0.00  0.00    +0.000 OA
ATOM     50  H   UNL     1      15.499   1.503  63.154  0.00  0.00    +0.000 HD
ENDBRANCH  39  49
ENDBRANCH   6  39
BRANCH   8  51
ATOM     51  C   UNL     1      17.078  -4.937  62.365  0.00  0.00    +0.000 C 
BRANCH  51  52
ATOM     52  O   UNL     1      18.139  -5.739  62.462  0.00  0.00    +0.000 OA
ATOM     53  H   UNL     1      18.920  -5.249  62.790  0.00  0.00    +0.000 HD
ENDBRANCH  51  52
ENDBRANCH   8  51
TORSDOF 13
ENDMDL
MODEL 4
REMARK VINA RESULT:      -4.4     15.203     19.474
REMARK  Name = 102471178_CandidaspongiolideCore.pdbqt.pdb
REMARK  13 active torsions:
REMARK  status: ('A' for Active; 'I' for Inactive)
REMARK    1  A    between atoms: C_6  and  C_39
REMARK    2  A    between atoms: C_8  and  O_27
REMARK    3  A    between atoms: C_8  and  C_51
REMARK    4  A    between atoms: C_10  and  O_29
REMARK    5  A    between atoms: C_15  and  O_31
REMARK    6  A    between atoms: C_16  and  O_33
REMARK    7  A    between atoms: C_21  and  O_35
REMARK    8  A    between atoms: O_35  and  C_37
REMARK    9  A    between atoms: C_39  and  C_41
REMARK   10  A    between atoms: C_39  and  O_49
REMARK   11  A    between atoms: C_42  and  C_44
REMARK   12  A    between atoms: C_44  and  C_46
REMARK   13  A    between atoms: C_51  and  O_52
REMARK                            x       y       z     vdW  Elec       q    Type
REMARK                         _______ _______ _______ _____ _____    ______ ____
ROOT
ATOM      1  O   UNL     1      19.478  -2.320  52.250  0.00  0.00    +0.000 OA
ATOM      2  O   UNL     1      18.611  -0.396  51.341  0.00  0.00    +0.000 OA
ATOM      3  O   UNL     1      15.188   3.065  50.480  0.00  0.00    +0.000 OA
ATOM      4  O   UNL     1      21.480  -1.585  52.992  0.00  0.00    +0.000 OA
ATOM      5  O   UNL     1      21.647   1.007  50.617  0.00  0.00    +0.000 OA
ATOM      6  C   UNL     1      17.179  -2.041  52.338  0.00  0.00    +0.000 C 
ATOM      7  C   UNL     1      15.978  -1.755  51.632  0.00  0.00    +0.000 C 
ATOM      8  C   UNL     1      14.702  -1.620  50.924  0.00  0.00    +0.000 C 
ATOM      9  C   UNL     1      18.485  -1.469  51.919  0.00  0.00    +0.000 C 
ATOM     10  C   UNL     1      14.036  -0.288  51.193  0.00  0.00    +0.000 C 
ATOM     11  C   UNL     1      14.721   0.956  51.247  0.00  0.00    +0.000 C 
ATOM     12  C   UNL     1      15.494   2.179  51.271  0.00  0.00    +0.000 C 
ATOM     13  C   UNL     1      20.727  -1.853  52.063  0.00  0.00    +0.000 C 
ATOM     14  C   UNL     1      16.654   2.324  52.203  0.00  0.00    +0.000 C 
ATOM     15  C   UNL     1      21.268  -1.975  50.687  0.00  0.00    +0.000 C 
ATOM     16  C   UNL     1      20.561  -1.578  49.487  0.00  0.00    +0.000 C 
ATOM     17  C   UNL     1      20.582  -0.248  48.891  0.00  0.00    +0.000 C 
ATOM     18  C   UNL     1      17.762   3.120  51.822  0.00  0.00    +0.000 C 
ATOM     19  C   UNL     1      19.716   2.029  49.689  0.00  0.00    +0.000 C 
ATOM     20  C   UNL     1      16.837   1.429  53.421  0.00  0.00    +0.000 C 
ATOM     21  C   UNL     1      19.841   3.158  50.605  0.00  0.00    +0.000 C 
ATOM     22  C   UNL     1      20.742   0.941  49.783  0.00  0.00    +0.000 C 
ATOM     23  C   UNL     1      18.780   3.790  51.376  0.00  0.00    +0.000 C 
ATOM     24  C   UNL     1      20.755  -0.057  47.387  0.00  0.00    +0.000 C 
ATOM     25  C   UNL     1      18.424   1.853  48.904  0.00  0.00    +0.000 C 
ATOM     26  C   UNL     1      18.822   5.250  51.747  0.00  0.00    +0.000 C 
ENDROOT
BRANCH   8  27
ATOM     27  O   UNL     1      13.864  -2.659  51.435  0.00  0.00    +0.000 OA
ATOM     28  H   UNL     1      13.140  -2.730  50.781  0.00  0.00    +0.000 HD
ENDBRANCH   8  27
BRANCH  10  29
ATOM     29  O   UNL     1      12.659  -0.293  51.344  0.00  0.00    +0.000 OA
ATOM     30  H   UNL     1      12.385  -0.614  52.224  0.00  0.00    +0.000 HD
ENDBRANCH  10  29
BRANCH  15  31
ATOM     31  O   UNL     1      22.645  -2.005  50.536  0.00  0.00    +0.000 OA
ATOM     32  H   UNL     1      23.080  -2.187  51.396  0.00  0.00    +0.000 HD
ENDBRANCH  15  31
BRANCH  16  33
ATOM     33  O   UNL     1      20.268  -2.605  48.608  0.00  0.00    +0.000 OA
ATOM     34  C   UNL     1      18.909  -2.946  48.729  0.00  0.00    +0.000 C 
ENDBRANCH  16  33
BRANCH  21  35
ATOM     35  O   UNL     1      21.112   3.787  50.590  0.00  0.00    +0.000 OA
BRANCH  35  37
ATOM     36  O   UNL     1      20.749   5.225  48.781  0.00  0.00    +0.000 OA
ATOM     37  C   UNL     1      21.388   4.397  49.404  0.00  0.00    +0.000 C 
ATOM     38  C   UNL     1      22.691   4.013  48.801  0.00  0.00    +0.000 C 
ENDBRANCH  35  37
ENDBRANCH  21  35
BRANCH   6  39
ATOM     39  C   UNL     1      17.071  -2.841  53.537  0.00  0.00    +0.000 C 
BRANCH  39  41
ATOM     40  O   UNL     1      17.614  -2.889  56.028  0.00  0.00    +0.000 OA
ATOM     41  C   UNL     1      17.087  -2.189  54.877  0.00  0.00    +0.000 C 
ATOM     42  C   UNL     1      18.444  -2.013  55.388  0.00  0.00    +0.000 C 
ATOM     43  C   UNL     1      15.861  -1.312  55.315  0.00  0.00    +0.000 C 
BRANCH  42  44
ATOM     44  C   UNL     1      18.890  -0.869  56.125  0.00  0.00    +0.000 C 
ATOM     45  C   UNL     1      19.192  -0.987  57.601  0.00  0.00    +0.000 C 
BRANCH  44  46
ATOM     46  C   UNL     1      19.490   0.228  55.457  0.00  0.00    +0.000 C 
ATOM     47  C   UNL     1      20.038   1.129  54.886  0.00  0.00    +0.000 C 
ATOM     48  C   UNL     1      20.790   2.236  54.135  0.00  0.00    +0.000 C 
ENDBRANCH  44  46
ENDBRANCH  42  44
ENDBRANCH  39  41
BRANCH  39  49
ATOM     49  O   UNL     1      17.024  -4.215  53.372  0.00  0.00    +0.000 OA
ATOM     50  H   UNL     1      16.648  -4.507  52.520  0.00  0.00    +0.000 HD
ENDBRANCH  39  49
ENDBRANCH   6  39
BRANCH   8  51
ATOM     51  C   UNL     1      14.849  -1.836  49.475  0.00  0.00    +0.000 C 
BRANCH  51  52
ATOM     52  O   UNL     1      14.991  -2.074  48.171  0.00  0.00    +0.000 OA
ATOM     53  H   UNL     1      15.893  -1.845  47.869  0.00  0.00    +0.000 HD
ENDBRANCH  51  52
ENDBRANCH   8  51
TORSDOF 13
ENDMDL
MODEL 5
REMARK VINA RESULT:      -4.3      7.308     12.276
REMARK  Name = 102471178_CandidaspongiolideCore.pdbqt.pdb
REMARK  13 active torsions:
REMARK  status: ('A' for Active; 'I' for Inactive)
REMARK    1  A    between atoms: C_6  and  C_39
REMARK    2  A    between atoms: C_8  and  O_27
REMARK    3  A    between atoms: C_8  and  C_51
REMARK    4  A    between atoms: C_10  and  O_29
REMARK    5  A    between atoms: C_15  and  O_31
REMARK    6  A    between atoms: C_16  and  O_33
REMARK    7  A    between atoms: C_21  and  O_35
REMARK    8  A    between atoms: O_35  and  C_37
REMARK    9  A    between atoms: C_39  and  C_41
REMARK   10  A    between atoms: C_39  and  O_49
REMARK   11  A    between atoms: C_42  and  C_44
REMARK   12  A    between atoms: C_44  and  C_46
REMARK   13  A    between atoms: C_51  and  O_52
REMARK                            x       y       z     vdW  Elec       q    Type
REMARK                         _______ _______ _______ _____ _____    ______ ____
ROOT
ATOM      1  O   UNL     1      22.275  11.987  60.971  0.00  0.00    +0.000 OA
ATOM      2  O   UNL     1      20.117  11.391  60.457  0.00  0.00    +0.000 OA
ATOM      3  O   UNL     1      15.347  10.437  61.338  0.00  0.00    +0.000 OA
ATOM      4  O   UNL     1      22.711  13.487  59.341  0.00  0.00    +0.000 OA
ATOM      5  O   UNL     1      20.396  12.055  57.111  0.00  0.00    +0.000 OA
ATOM      6  C   UNL     1      20.877  11.417  62.731  0.00  0.00    +0.000 C 
ATOM      7  C   UNL     1      19.972  10.469  63.284  0.00  0.00    +0.000 C 
ATOM      8  C   UNL     1      19.159   9.457  63.963  0.00  0.00    +0.000 C 
ATOM      9  C   UNL     1      21.017  11.596  61.262  0.00  0.00    +0.000 C 
ATOM     10  C   UNL     1      17.697   9.843  64.022  0.00  0.00    +0.000 C 
ATOM     11  C   UNL     1      16.978  10.435  62.948  0.00  0.00    +0.000 C 
ATOM     12  C   UNL     1      16.320  11.022  61.800  0.00  0.00    +0.000 C 
ATOM     13  C   UNL     1      22.492  12.333  59.689  0.00  0.00    +0.000 C 
ATOM     14  C   UNL     1      16.851  12.275  61.182  0.00  0.00    +0.000 C 
ATOM     15  C   UNL     1      22.771  11.215  58.752  0.00  0.00    +0.000 C 
ATOM     16  C   UNL     1      21.984  10.003  58.661  0.00  0.00    +0.000 C 
ATOM     17  C   UNL     1      20.809   9.815  57.821  0.00  0.00    +0.000 C 
ATOM     18  C   UNL     1      16.701  12.485  59.789  0.00  0.00    +0.000 C 
ATOM     19  C   UNL     1      18.472  10.869  57.838  0.00  0.00    +0.000 C 
ATOM     20  C   UNL     1      17.802  13.208  61.919  0.00  0.00    +0.000 C 
ATOM     21  C   UNL     1      17.632  12.041  57.612  0.00  0.00    +0.000 C 
ATOM     22  C   UNL     1      19.934  10.991  57.530  0.00  0.00    +0.000 C 
ATOM     23  C   UNL     1      16.608  12.575  58.498  0.00  0.00    +0.000 C 
ATOM     24  C   UNL     1      20.623   8.549  56.990  0.00  0.00    +0.000 C 
ATOM     25  C   UNL     1      17.912   9.700  58.636  0.00  0.00    +0.000 C 
ATOM     26  C   UNL     1      15.402  13.311  57.973  0.00  0.00    +0.000 C 
ENDROOT
BRANCH   8  27
ATOM     27  O   UNL     1      19.665   9.387  65.299  0.00  0.00    +0.000 OA
ATOM     28  H   UNL     1      19.363   8.515  65.625  0.00  0.00    +0.000 HD
ENDBRANCH   8  27
BRANCH  10  29
ATOM     29  O   UNL     1      17.015   9.546  65.191  0.00  0.00    +0.000 OA
ATOM     30  H   UNL     1      16.690   8.626  65.205  0.00  0.00    +0.000 HD
ENDBRANCH  10  29
BRANCH  15  31
ATOM     31  O   UNL     1      23.483  11.504  57.599  0.00  0.00    +0.000 OA
ATOM     32  H   UNL     1      23.746  10.676  57.142  0.00  0.00    +0.000 HD
ENDBRANCH  15  31
BRANCH  16  33
ATOM     33  O   UNL     1      22.655   8.839  58.993  0.00  0.00    +0.000 OA
ATOM     34  C   UNL     1      22.228   8.401  60.259  0.00  0.00    +0.000 C 
ENDBRANCH  16  33
BRANCH  21  35
ATOM     35  O   UNL     1      17.734  12.592  56.309  0.00  0.00    +0.000 OA
BRANCH  35  37
ATOM     36  O   UNL     1      16.185  11.204  55.238  0.00  0.00    +0.000 OA
ATOM     37  C   UNL     1      17.266  11.757  55.341  0.00  0.00    +0.000 C 
ATOM     38  C   UNL     1      18.213  11.516  54.222  0.00  0.00    +0.000 C 
ENDBRANCH  35  37
ENDBRANCH  21  35
BRANCH   6  39
ATOM     39  C   UNL     1      21.597  12.266  63.652  0.00  0.00    +0.000 C 
BRANCH  39  41
ATOM     40  O   UNL     1      22.080  14.701  64.237  0.00  0.00    +0.000 OA
ATOM     41  C   UNL     1      21.133  13.658  63.907  0.00  0.00    +0.000 C 
ATOM     42  C   UNL     1      21.672  14.606  62.936  0.00  0.00    +0.000 C 
ATOM     43  C   UNL     1      19.805  13.885  64.714  0.00  0.00    +0.000 C 
BRANCH  42  44
ATOM     44  C   UNL     1      20.944  15.712  62.392  0.00  0.00    +0.000 C 
ATOM     45  C   UNL     1      21.182  17.109  62.916  0.00  0.00    +0.000 C 
BRANCH  44  46
ATOM     46  C   UNL     1      20.363  15.627  61.102  0.00  0.00    +0.000 C 
ATOM     47  C   UNL     1      19.876  15.506  60.013  0.00  0.00    +0.000 C 
ATOM     48  C   UNL     1      19.250  15.281  58.630  0.00  0.00    +0.000 C 
ENDBRANCH  44  46
ENDBRANCH  42  44
ENDBRANCH  39  41
BRANCH  39  49
ATOM     49  O   UNL     1      22.751  11.746  64.213  0.00  0.00    +0.000 OA
ATOM     50  H   UNL     1      23.477  11.594  63.578  0.00  0.00    +0.000 HD
ENDBRANCH  39  49
ENDBRANCH   6  39
BRANCH   8  51
ATOM     51  C   UNL     1      19.313   8.126  63.355  0.00  0.00    +0.000 C 
BRANCH  51  52
ATOM     52  O   UNL     1      19.466   6.939  62.767  0.00  0.00    +0.000 OA
ATOM     53  H   UNL     1      19.881   6.296  63.377  0.00  0.00    +0.000 HD
ENDBRANCH  51  52
ENDBRANCH   8  51
TORSDOF 13
ENDMDL
MODEL 6
REMARK VINA RESULT:      -4.1     12.150     16.117
REMARK  Name = 102471178_CandidaspongiolideCore.pdbqt.pdb
REMARK  13 active torsions:
REMARK  status: ('A' for Active; 'I' for Inactive)
REMARK    1  A    between atoms: C_6  and  C_39
REMARK    2  A    between atoms: C_8  and  O_27
REMARK    3  A    between atoms: C_8  and  C_51
REMARK    4  A    between atoms: C_10  and  O_29
REMARK    5  A    between atoms: C_15  and  O_31
REMARK    6  A    between atoms: C_16  and  O_33
REMARK    7  A    between atoms: C_21  and  O_35
REMARK    8  A    between atoms: O_35  and  C_37
REMARK    9  A    between atoms: C_39  and  C_41
REMARK   10  A    between atoms: C_39  and  O_49
REMARK   11  A    between atoms: C_42  and  C_44
REMARK   12  A    between atoms: C_44  and  C_46
REMARK   13  A    between atoms: C_51  and  O_52
REMARK                            x       y       z     vdW  Elec       q    Type
REMARK                         _______ _______ _______ _____ _____    ______ ____
ROOT
ATOM      1  O   UNL     1       5.517  11.053  73.724  0.00  0.00    +0.000 OA
ATOM      2  O   UNL     1       4.987   9.430  75.260  0.00  0.00    +0.000 OA
ATOM      3  O   UNL     1       2.147   6.046  77.479  0.00  0.00    +0.000 OA
ATOM      4  O   UNL     1       7.556  10.360  73.046  0.00  0.00    +0.000 OA
ATOM      5  O   UNL     1       8.229   8.693  76.071  0.00  0.00    +0.000 OA
ATOM      6  C   UNL     1       3.279  10.495  73.956  0.00  0.00    +0.000 C 
ATOM      7  C   UNL     1       2.175  10.309  74.833  0.00  0.00    +0.000 C 
ATOM      8  C   UNL     1       0.975  10.258  75.673  0.00  0.00    +0.000 C 
ATOM      9  C   UNL     1       4.676  10.241  74.397  0.00  0.00    +0.000 C 
ATOM     10  C   UNL     1       0.491   8.841  75.892  0.00  0.00    +0.000 C 
ATOM     11  C   UNL     1       1.341   7.733  76.154  0.00  0.00    +0.000 C 
ATOM     12  C   UNL     1       2.278   6.664  76.428  0.00  0.00    +0.000 C 
ATOM     13  C   UNL     1       6.828  10.819  73.918  0.00  0.00    +0.000 C 
ATOM     14  C   UNL     1       3.389   6.367  75.474  0.00  0.00    +0.000 C 
ATOM     15  C   UNL     1       7.426  11.433  75.130  0.00  0.00    +0.000 C 
ATOM     16  C   UNL     1       6.854  11.357  76.458  0.00  0.00    +0.000 C 
ATOM     17  C   UNL     1       7.099  10.296  77.427  0.00  0.00    +0.000 C 
ATOM     18  C   UNL     1       4.619   5.869  75.967  0.00  0.00    +0.000 C 
ATOM     19  C   UNL     1       6.521   7.799  77.456  0.00  0.00    +0.000 C 
ATOM     20  C   UNL     1       3.372   6.846  74.029  0.00  0.00    +0.000 C 
ATOM     21  C   UNL     1       6.751   6.461  76.922  0.00  0.00    +0.000 C 
ATOM     22  C   UNL     1       7.374   8.914  76.932  0.00  0.00    +0.000 C 
ATOM     23  C   UNL     1       5.747   5.498  76.493  0.00  0.00    +0.000 C 
ATOM     24  C   UNL     1       7.386  10.613  78.892  0.00  0.00    +0.000 C 
ATOM     25  C   UNL     1       5.265   8.063  78.275  0.00  0.00    +0.000 C 
ATOM     26  C   UNL     1       5.975   4.011  76.584  0.00  0.00    +0.000 C 
ENDROOT
BRANCH   8  27
ATOM     27  O   UNL     1      -0.031  10.976  74.954  0.00  0.00    +0.000 OA
ATOM     28  H   UNL     1      -0.840  10.865  75.494  0.00  0.00    +0.000 HD
ENDBRANCH   8  27
BRANCH  10  29
ATOM     29  O   UNL     1      -0.880   8.637  75.886  0.00  0.00    +0.000 OA
ATOM     30  H   UNL     1      -1.256   8.685  74.987  0.00  0.00    +0.000 HD
ENDBRANCH  10  29
BRANCH  15  31
ATOM     31  O   UNL     1       8.792  11.669  75.125  0.00  0.00    +0.000 OA
ATOM     32  H   UNL     1       9.161  11.564  76.028  0.00  0.00    +0.000 HD
ENDBRANCH  15  31
BRANCH  16  33
ATOM     33  O   UNL     1       6.470  12.568  77.005  0.00  0.00    +0.000 OA
ATOM     34  C   UNL     1       5.072  12.693  76.922  0.00  0.00    +0.000 C 
ENDBRANCH  16  33
BRANCH  21  35
ATOM     35  O   UNL     1       8.097   6.022  77.002  0.00  0.00    +0.000 OA
BRANCH  35  37
ATOM     36  O   UNL     1       8.049   5.208  79.195  0.00  0.00    +0.000 OA
ATOM     37  C   UNL     1       8.527   5.860  78.284  0.00  0.00    +0.000 C 
ATOM     38  C   UNL     1       9.799   6.561  78.602  0.00  0.00    +0.000 C 
ENDBRANCH  35  37
ENDBRANCH  21  35
BRANCH   6  39
ATOM     39  C   UNL     1       2.989  10.855  72.587  0.00  0.00    +0.000 C 
BRANCH  39  41
ATOM     40  O   UNL     1       1.873   8.824  71.523  0.00  0.00    +0.000 OA
ATOM     41  C   UNL     1       2.935   9.806  71.531  0.00  0.00    +0.000 C 
ATOM     42  C   UNL     1       1.734   9.912  70.708  0.00  0.00    +0.000 C 
ATOM     43  C   UNL     1       4.272   9.133  71.054  0.00  0.00    +0.000 C 
BRANCH  42  44
ATOM     44  C   UNL     1       1.695   9.677  69.297  0.00  0.00    +0.000 C 
ATOM     45  C   UNL     1       1.952  10.810  68.331  0.00  0.00    +0.000 C 
BRANCH  44  46
ATOM     46  C   UNL     1       1.879   8.370  68.779  0.00  0.00    +0.000 C 
ATOM     47  C   UNL     1       1.987   7.259  68.339  0.00  0.00    +0.000 C 
ATOM     48  C   UNL     1       2.053   5.838  67.765  0.00  0.00    +0.000 C 
ENDBRANCH  44  46
ENDBRANCH  42  44
ENDBRANCH  39  41
BRANCH  39  49
ATOM     49  O   UNL     1       2.837  12.204  72.312  0.00  0.00    +0.000 OA
ATOM     50  H   UNL     1       3.344  12.518  71.539  0.00  0.00    +0.000 HD
ENDBRANCH  39  49
ENDBRANCH   6  39
BRANCH   8  51
ATOM     51  C   UNL     1       1.174  10.937  76.963  0.00  0.00    +0.000 C 
BRANCH  51  52
ATOM     52  O   UNL     1       1.343  11.516  78.153  0.00  0.00    +0.000 OA
ATOM     53  H   UNL     1       1.949  12.282  78.087  0.00  0.00    +0.000 HD
ENDBRANCH  51  52
ENDBRANCH   8  51
TORSDOF 13
ENDMDL
MODEL 7
REMARK VINA RESULT:      -4.0      1.993      3.150
REMARK  Name = 102471178_CandidaspongiolideCore.pdbqt.pdb
REMARK  13 active torsions:
REMARK  status: ('A' for Active; 'I' for Inactive)
REMARK    1  A    between atoms: C_6  and  C_39
REMARK    2  A    between atoms: C_8  and  O_27
REMARK    3  A    between atoms: C_8  and  C_51
REMARK    4  A    between atoms: C_10  and  O_29
REMARK    5  A    between atoms: C_15  and  O_31
REMARK    6  A    between atoms: C_16  and  O_33
REMARK    7  A    between atoms: C_21  and  O_35
REMARK    8  A    between atoms: O_35  and  C_37
REMARK    9  A    between atoms: C_39  and  C_41
REMARK   10  A    between atoms: C_39  and  O_49
REMARK   11  A    between atoms: C_42  and  C_44
REMARK   12  A    between atoms: C_44  and  C_46
REMARK   13  A    between atoms: C_51  and  O_52
REMARK                            x       y       z     vdW  Elec       q    Type
REMARK                         _______ _______ _______ _____ _____    ______ ____
ROOT
ATOM      1  O   UNL     1      15.139   6.986  70.139  0.00  0.00    +0.000 OA
ATOM      2  O   UNL     1      17.318   6.260  70.081  0.00  0.00    +0.000 OA
ATOM      3  O   UNL     1      21.256   3.627  71.496  0.00  0.00    +0.000 OA
ATOM      4  O   UNL     1      14.580   6.856  67.955  0.00  0.00    +0.000 OA
ATOM      5  O   UNL     1      17.900   7.267  66.863  0.00  0.00    +0.000 OA
ATOM      6  C   UNL     1      15.930   5.834  71.989  0.00  0.00    +0.000 C 
ATOM      7  C   UNL     1      16.940   5.711  72.983  0.00  0.00    +0.000 C 
ATOM      8  C   UNL     1      17.869   5.640  74.114  0.00  0.00    +0.000 C 
ATOM      9  C   UNL     1      16.230   6.364  70.633  0.00  0.00    +0.000 C 
ATOM     10  C   UNL     1      18.798   4.450  74.017  0.00  0.00    +0.000 C 
ATOM     11  C   UNL     1      19.425   4.015  72.818  0.00  0.00    +0.000 C 
ATOM     12  C   UNL     1      20.031   3.649  71.556  0.00  0.00    +0.000 C 
ATOM     13  C   UNL     1      15.229   7.378  68.854  0.00  0.00    +0.000 C 
ATOM     14  C   UNL     1      19.180   3.356  70.363  0.00  0.00    +0.000 C 
ATOM     15  C   UNL     1      15.906   8.677  68.617  0.00  0.00    +0.000 C 
ATOM     16  C   UNL     1      17.181   9.057  69.190  0.00  0.00    +0.000 C 
ATOM     17  C   UNL     1      18.488   8.784  68.607  0.00  0.00    +0.000 C 
ATOM     18  C   UNL     1      19.666   3.657  69.067  0.00  0.00    +0.000 C 
ATOM     19  C   UNL     1      19.774   6.611  68.163  0.00  0.00    +0.000 C 
ATOM     20  C   UNL     1      17.700   3.020  70.481  0.00  0.00    +0.000 C 
ATOM     21  C   UNL     1      19.907   5.377  67.397  0.00  0.00    +0.000 C 
ATOM     22  C   UNL     1      18.669   7.549  67.784  0.00  0.00    +0.000 C 
ATOM     23  C   UNL     1      20.134   4.036  67.917  0.00  0.00    +0.000 C 
ATOM     24  C   UNL     1      19.571   9.857  68.554  0.00  0.00    +0.000 C 
ATOM     25  C   UNL     1      20.545   6.759  69.468  0.00  0.00    +0.000 C 
ATOM     26  C   UNL     1      20.881   2.989  67.132  0.00  0.00    +0.000 C 
ENDROOT
BRANCH   8  27
ATOM     27  O   UNL     1      17.051   5.486  75.277  0.00  0.00    +0.000 OA
ATOM     28  H   UNL     1      17.670   5.177  75.968  0.00  0.00    +0.000 HD
ENDBRANCH   8  27
BRANCH  10  29
ATOM     29  O   UNL     1      19.088   3.782  75.196  0.00  0.00    +0.000 OA
ATOM     30  H   UNL     1      18.350   3.821  75.833  0.00  0.00    +0.000 HD
ENDBRANCH  10  29
BRANCH  15  31
ATOM     31  O   UNL     1      15.592   9.364  67.454  0.00  0.00    +0.000 OA
ATOM     32  H   UNL     1      16.409   9.598  66.964  0.00  0.00    +0.000 HD
ENDBRANCH  15  31
BRANCH  16  33
ATOM     33  O   UNL     1      17.140  10.141  70.049  0.00  0.00    +0.000 OA
ATOM     34  C   UNL     1      15.990  10.054  70.853  0.00  0.00    +0.000 C 
ENDBRANCH  16  33
BRANCH  21  35
ATOM     35  O   UNL     1      19.988   5.565  65.994  0.00  0.00    +0.000 OA
BRANCH  35  37
ATOM     36  O   UNL     1      22.283   5.999  65.861  0.00  0.00    +0.000 OA
ATOM     37  C   UNL     1      21.114   6.229  65.611  0.00  0.00    +0.000 C 
ATOM     38  C   UNL     1      20.871   7.393  64.719  0.00  0.00    +0.000 C 
ENDBRANCH  35  37
ENDBRANCH  21  35
BRANCH   6  39
ATOM     39  C   UNL     1      14.611   5.342  72.316  0.00  0.00    +0.000 C 
BRANCH  39  41
ATOM     40  O   UNL     1      15.209   3.001  73.133  0.00  0.00    +0.000 OA
ATOM     41  C   UNL     1      14.350   3.876  72.366  0.00  0.00    +0.000 C 
ATOM     42  C   UNL     1      14.046   3.416  73.719  0.00  0.00    +0.000 C 
ATOM     43  C   UNL     1      13.885   3.138  71.060  0.00  0.00    +0.000 C 
BRANCH  42  44
ATOM     44  C   UNL     1      13.074   2.413  74.034  0.00  0.00    +0.000 C 
ATOM     45  C   UNL     1      13.437   0.949  73.945  0.00  0.00    +0.000 C 
BRANCH  44  46
ATOM     46  C   UNL     1      11.958   2.724  74.852  0.00  0.00    +0.000 C 
ATOM     47  C   UNL     1      11.045   2.990  75.582  0.00  0.00    +0.000 C 
ATOM     48  C   UNL     1       9.924   3.348  76.566  0.00  0.00    +0.000 C 
ENDBRANCH  44  46
ENDBRANCH  42  44
ENDBRANCH  39  41
BRANCH  39  49
ATOM     49  O   UNL     1      13.617   6.288  72.506  0.00  0.00    +0.000 OA
ATOM     50  H   UNL     1      13.472   6.879  71.743  0.00  0.00    +0.000 HD
ENDBRANCH  39  49
ENDBRANCH   6  39
BRANCH   8  51
ATOM     51  C   UNL     1      18.642   6.883  74.272  0.00  0.00    +0.000 C 
BRANCH  51  52
ATOM     52  O   UNL     1      19.332   8.019  74.374  0.00  0.00    +0.000 OA
ATOM     53  H   UNL     1      19.976   7.973  75.110  0.00  0.00    +0.000 HD
ENDBRANCH  51  52
ENDBRANCH   8  51
TORSDOF 13
ENDMDL
MODEL 8
REMARK VINA RESULT:      -4.0      7.690     14.314
REMARK  Name = 102471178_CandidaspongiolideCore.pdbqt.pdb
REMARK  13 active torsions:
REMARK  status: ('A' for Active; 'I' for Inactive)
REMARK    1  A    between atoms: C_6  and  C_39
REMARK    2  A    between atoms: C_8  and  O_27
REMARK    3  A    between atoms: C_8  and  C_51
REMARK    4  A    between atoms: C_10  and  O_29
REMARK    5  A    between atoms: C_15  and  O_31
REMARK    6  A    between atoms: C_16  and  O_33
REMARK    7  A    between atoms: C_21  and  O_35
REMARK    8  A    between atoms: O_35  and  C_37
REMARK    9  A    between atoms: C_39  and  C_41
REMARK   10  A    between atoms: C_39  and  O_49
REMARK   11  A    between atoms: C_42  and  C_44
REMARK   12  A    between atoms: C_44  and  C_46
REMARK   13  A    between atoms: C_51  and  O_52
REMARK                            x       y       z     vdW  Elec       q    Type
REMARK                         _______ _______ _______ _____ _____    ______ ____
ROOT
ATOM      1  O   UNL     1      18.054  14.683  58.065  0.00  0.00    +0.000 OA
ATOM      2  O   UNL     1      18.577  12.487  58.489  0.00  0.00    +0.000 OA
ATOM      3  O   UNL     1      20.548   8.043  57.590  0.00  0.00    +0.000 OA
ATOM      4  O   UNL     1      18.618  15.651  60.025  0.00  0.00    +0.000 OA
ATOM      5  O   UNL     1      18.106  12.699  61.872  0.00  0.00    +0.000 OA
ATOM      6  C   UNL     1      18.782  13.396  56.280  0.00  0.00    +0.000 C 
ATOM      7  C   UNL     1      18.635  12.198  55.527  0.00  0.00    +0.000 C 
ATOM      8  C   UNL     1      18.420  11.059  54.630  0.00  0.00    +0.000 C 
ATOM      9  C   UNL     1      18.476  13.445  57.733  0.00  0.00    +0.000 C 
ATOM     10  C   UNL     1      19.519  10.025  54.746  0.00  0.00    +0.000 C 
ATOM     11  C   UNL     1      20.100   9.604  55.972  0.00  0.00    +0.000 C 
ATOM     12  C   UNL     1      20.627   9.223  57.265  0.00  0.00    +0.000 C 
ATOM     13  C   UNL     1      17.888  14.905  59.382  0.00  0.00    +0.000 C 
ATOM     14  C   UNL     1      21.203  10.254  58.182  0.00  0.00    +0.000 C 
ATOM     15  C   UNL     1      16.596  14.460  59.959  0.00  0.00    +0.000 C 
ATOM     16  C   UNL     1      16.006  13.154  59.746  0.00  0.00    +0.000 C 
ATOM     17  C   UNL     1      16.258  11.968  60.554  0.00  0.00    +0.000 C 
ATOM     18  C   UNL     1      21.094  10.082  59.584  0.00  0.00    +0.000 C 
ATOM     19  C   UNL     1      18.348  10.533  60.931  0.00  0.00    +0.000 C 
ATOM     20  C   UNL     1      21.646  11.625  57.690  0.00  0.00    +0.000 C 
ATOM     21  C   UNL     1      19.681  10.402  61.509  0.00  0.00    +0.000 C 
ATOM     22  C   UNL     1      17.597  11.802  61.197  0.00  0.00    +0.000 C 
ATOM     23  C   UNL     1      20.883   9.908  60.852  0.00  0.00    +0.000 C 
ATOM     24  C   UNL     1      15.117  11.063  61.009  0.00  0.00    +0.000 C 
ATOM     25  C   UNL     1      17.902   9.540  59.867  0.00  0.00    +0.000 C 
ATOM     26  C   UNL     1      21.979   9.208  61.613  0.00  0.00    +0.000 C 
ENDROOT
BRANCH   8  27
ATOM     27  O   UNL     1      18.440  11.599  53.307  0.00  0.00    +0.000 OA
ATOM     28  H   UNL     1      18.094  10.875  52.746  0.00  0.00    +0.000 HD
ENDBRANCH   8  27
BRANCH  10  29
ATOM     29  O   UNL     1      19.939   9.421  53.571  0.00  0.00    +0.000 OA
ATOM     30  H   UNL     1      19.497   8.565  53.418  0.00  0.00    +0.000 HD
ENDBRANCH  10  29
BRANCH  15  31
ATOM     31  O   UNL     1      16.157  15.087  61.115  0.00  0.00    +0.000 OA
ATOM     32  H   UNL     1      15.360  14.636  61.468  0.00  0.00    +0.000 HD
ENDBRANCH  15  31
BRANCH  16  33
ATOM     33  O   UNL     1      14.795  13.157  59.077  0.00  0.00    +0.000 OA
ATOM     34  C   UNL     1      15.006  12.795  57.734  0.00  0.00    +0.000 C 
ENDBRANCH  16  33
BRANCH  21  35
ATOM     35  O   UNL     1      19.738  10.631  62.908  0.00  0.00    +0.000 OA
BRANCH  35  37
ATOM     36  O   UNL     1      19.170   8.481  63.635  0.00  0.00    +0.000 OA
ATOM     37  C   UNL     1      19.060   9.694  63.627  0.00  0.00    +0.000 C 
ATOM     38  C   UNL     1      18.059  10.249  64.574  0.00  0.00    +0.000 C 
ENDBRANCH  35  37
ENDBRANCH  21  35
BRANCH   6  39
ATOM     39  C   UNL     1      19.327  14.548  55.598  0.00  0.00    +0.000 C 
BRANCH  39  41
ATOM     40  O   UNL     1      21.173  16.303  55.725  0.00  0.00    +0.000 OA
ATOM     41  C   UNL     1      20.759  14.918  55.779  0.00  0.00    +0.000 C 
ATOM     42  C   UNL     1      20.968  15.753  56.959  0.00  0.00    +0.000 C 
ATOM     43  C   UNL     1      21.869  14.015  55.132  0.00  0.00    +0.000 C 
BRANCH  42  44
ATOM     44  C   UNL     1      22.098  15.653  57.831  0.00  0.00    +0.000 C 
ATOM     45  C   UNL     1      23.204  16.681  57.763  0.00  0.00    +0.000 C 
BRANCH  44  46
ATOM     46  C   UNL     1      22.011  14.920  59.042  0.00  0.00    +0.000 C 
ATOM     47  C   UNL     1      21.898  14.327  60.078  0.00  0.00    +0.000 C 
ATOM     48  C   UNL     1      21.689  13.598  61.412  0.00  0.00    +0.000 C 
ENDBRANCH  44  46
ENDBRANCH  42  44
ENDBRANCH  39  41
BRANCH  39  49
ATOM     49  O   UNL     1      18.446  15.305  54.845  0.00  0.00    +0.000 OA
ATOM     50  H   UNL     1      17.585  15.469  55.274  0.00  0.00    +0.000 HD
ENDBRANCH  39  49
ENDBRANCH   6  39
BRANCH   8  51
ATOM     51  C   UNL     1      17.104  10.433  54.839  0.00  0.00    +0.000 C 
BRANCH  51  52
ATOM     52  O   UNL     1      15.893   9.907  55.024  0.00  0.00    +0.000 OA
ATOM     53  H   UNL     1      15.942   9.103  55.581  0.00  0.00    +0.000 HD
ENDBRANCH  51  52
ENDBRANCH   8  51
TORSDOF 13
ENDMDL
MODEL 9
REMARK VINA RESULT:      -3.8     12.108     15.334
REMARK  Name = 102471178_CandidaspongiolideCore.pdbqt.pdb
REMARK  13 active torsions:
REMARK  status: ('A' for Active; 'I' for Inactive)
REMARK    1  A    between atoms: C_6  and  C_39
REMARK    2  A    between atoms: C_8  and  O_27
REMARK    3  A    between atoms: C_8  and  C_51
REMARK    4  A    between atoms: C_10  and  O_29
REMARK    5  A    between atoms: C_15  and  O_31
REMARK    6  A    between atoms: C_16  and  O_33
REMARK    7  A    between atoms: C_21  and  O_35
REMARK    8  A    between atoms: O_35  and  C_37
REMARK    9  A    between atoms: C_39  and  C_41
REMARK   10  A    between atoms: C_39  and  O_49
REMARK   11  A    between atoms: C_42  and  C_44
REMARK   12  A    between atoms: C_44  and  C_46
REMARK   13  A    between atoms: C_51  and  O_52
REMARK                            x       y       z     vdW  Elec       q    Type
REMARK                         _______ _______ _______ _____ _____    ______ ____
ROOT
ATOM      1  O   UNL     1       4.700  13.244  59.648  0.00  0.00    +0.000 OA
ATOM      2  O   UNL     1       6.949  13.641  59.893  0.00  0.00    +0.000 OA
ATOM      3  O   UNL     1      11.459  13.101  61.844  0.00  0.00    +0.000 OA
ATOM      4  O   UNL     1       4.542  13.005  57.408  0.00  0.00    +0.000 OA
ATOM      5  O   UNL     1       7.368  15.009  56.785  0.00  0.00    +0.000 OA
ATOM      6  C   UNL     1       5.711  12.488  61.592  0.00  0.00    +0.000 C 
ATOM      7  C   UNL     1       6.527  12.794  62.716  0.00  0.00    +0.000 C 
ATOM      8  C   UNL     1       7.230  13.098  63.965  0.00  0.00    +0.000 C 
ATOM      9  C   UNL     1       5.885  13.182  60.290  0.00  0.00    +0.000 C 
ATOM     10  C   UNL     1       8.619  12.499  64.000  0.00  0.00    +0.000 C 
ATOM     11  C   UNL     1       9.519  12.490  62.900  0.00  0.00    +0.000 C 
ATOM     12  C   UNL     1      10.376  12.537  61.735  0.00  0.00    +0.000 C 
ATOM     13  C   UNL     1       4.747  13.713  58.387  0.00  0.00    +0.000 C 
ATOM     14  C   UNL     1       9.921  11.954  60.436  0.00  0.00    +0.000 C 
ATOM     15  C   UNL     1       4.745  15.190  58.243  0.00  0.00    +0.000 C 
ATOM     16  C   UNL     1       5.602  16.091  58.987  0.00  0.00    +0.000 C 
ATOM     17  C   UNL     1       6.941  16.507  58.591  0.00  0.00    +0.000 C 
ATOM     18  C   UNL     1      10.359  12.531  59.219  0.00  0.00    +0.000 C 
ATOM     19  C   UNL     1       9.153  15.236  58.333  0.00  0.00    +0.000 C 
ATOM     20  C   UNL     1       8.780  10.950  60.349  0.00  0.00    +0.000 C 
ATOM     21  C   UNL     1       9.952  14.264  57.595  0.00  0.00    +0.000 C 
ATOM     22  C   UNL     1       7.789  15.561  57.803  0.00  0.00    +0.000 C 
ATOM     23  C   UNL     1      10.726  13.159  58.144  0.00  0.00    +0.000 C 
ATOM     24  C   UNL     1       7.378  17.966  58.686  0.00  0.00    +0.000 C 
ATOM     25  C   UNL     1       9.593  15.646  59.732  0.00  0.00    +0.000 C 
ATOM     26  C   UNL     1      11.972  12.644  57.472  0.00  0.00    +0.000 C 
ENDROOT
BRANCH   8  27
ATOM     27  O   UNL     1       6.450  12.501  65.004  0.00  0.00    +0.000 OA
ATOM     28  H   UNL     1       6.725  11.562  65.003  0.00  0.00    +0.000 HD
ENDBRANCH   8  27
BRANCH  10  29
ATOM     29  O   UNL     1       9.046  11.973  65.209  0.00  0.00    +0.000 OA
ATOM     30  H   UNL     1       9.081  12.647  65.913  0.00  0.00    +0.000 HD
ENDBRANCH  10  29
BRANCH  15  31
ATOM     31  O   UNL     1       4.286  15.720  57.047  0.00  0.00    +0.000 OA
ATOM     32  H   UNL     1       5.035  16.066  56.516  0.00  0.00    +0.000 HD
ENDBRANCH  15  31
BRANCH  16  33
ATOM     33  O   UNL     1       4.944  16.969  59.829  0.00  0.00    +0.000 OA
ATOM     34  C   UNL     1       5.078  16.526  61.157  0.00  0.00    +0.000 C 
ENDBRANCH  16  33
BRANCH  21  35
ATOM     35  O   UNL     1      10.104  14.558  56.216  0.00  0.00    +0.000 OA
BRANCH  35  37
ATOM     36  O   UNL     1      11.930  16.011  56.385  0.00  0.00    +0.000 OA
ATOM     37  C   UNL     1      10.822  15.692  55.991  0.00  0.00    +0.000 C 
ATOM     38  C   UNL     1      10.159  16.675  55.095  0.00  0.00    +0.000 C 
ENDBRANCH  35  37
ENDBRANCH  21  35
BRANCH   6  39
ATOM     39  C   UNL     1       4.759  11.409  61.735  0.00  0.00    +0.000 C 
BRANCH  39  41
ATOM     40  O   UNL     1       4.077   9.072  60.977  0.00  0.00    +0.000 OA
ATOM     41  C   UNL     1       5.113  10.033  61.288  0.00  0.00    +0.000 C 
ATOM     42  C   UNL     1       4.640   9.754  59.935  0.00  0.00    +0.000 C 
ATOM     43  C   UNL     1       6.322   9.296  61.968  0.00  0.00    +0.000 C 
BRANCH  42  44
ATOM     44  C   UNL     1       5.366   8.992  58.965  0.00  0.00    +0.000 C 
ATOM     45  C   UNL     1       6.372   9.670  58.064  0.00  0.00    +0.000 C 
BRANCH  44  46
ATOM     46  C   UNL     1       5.520   7.591  59.118  0.00  0.00    +0.000 C 
ATOM     47  C   UNL     1       5.700   6.412  59.248  0.00  0.00    +0.000 C 
ATOM     48  C   UNL     1       5.998   4.918  59.428  0.00  0.00    +0.000 C 
ENDBRANCH  44  46
ENDBRANCH  42  44
ENDBRANCH  39  41
BRANCH  39  49
ATOM     49  O   UNL     1       3.509  11.738  62.233  0.00  0.00    +0.000 OA
ATOM     50  H   UNL     1       2.843  11.028  62.155  0.00  0.00    +0.000 HD
ENDBRANCH  39  49
ENDBRANCH   6  39
BRANCH   8  51
ATOM     51  C   UNL     1       7.290  14.546  64.226  0.00  0.00    +0.000 C 
BRANCH  51  52
ATOM     52  O   UNL     1       7.372  15.849  64.496  0.00  0.00    +0.000 OA
ATOM     53  H   UNL     1       8.242  16.072  64.884  0.00  0.00    +0.000 HD
ENDBRANCH  51  52
ENDBRANCH   8  51
TORSDOF 13
ENDMDL
