MODEL 1
REMARK VINA RESULT:      -3.4      0.000      0.000
REMARK  Name = 10281_Thymoquinone.pdbqt.pdb
REMARK  1 active torsions:
REMARK  status: ('A' for Active; 'I' for Inactive)
REMARK    1  A    between atoms: C_3  and  C_10
REMARK                            x       y       z     vdW  Elec       q    Type
REMARK                         _______ _______ _______ _____ _____    ______ ____
ROOT
ATOM      1  O   UNL     1      17.504  -0.732  55.435  0.00  0.00    +0.000 OA
ATOM      2  O   UNL     1      21.342   2.741  53.969  0.00  0.00    +0.000 OA
ATOM      3  C   UNL     1      18.215   0.933  53.831  0.00  0.00    +0.000 C 
ATOM      4  C   UNL     1      18.334   0.068  55.053  0.00  0.00    +0.000 C 
ATOM      5  C   UNL     1      19.273   1.692  53.686  0.00  0.00    +0.000 C 
ATOM      6  C   UNL     1      20.644   1.040  55.627  0.00  0.00    +0.000 C 
ATOM      7  C   UNL     1      20.537   1.930  54.385  0.00  0.00    +0.000 C 
ATOM      8  C   UNL     1      19.587   0.286  55.766  0.00  0.00    +0.000 C 
ATOM      9  C   UNL     1      21.786   0.998  56.588  0.00  0.00    +0.000 C 
ENDROOT
BRANCH   3  10
ATOM     10  C   UNL     1      17.057   0.866  53.004  0.00  0.00    +0.000 C 
ATOM     11  C   UNL     1      16.055   1.995  52.991  0.00  0.00    +0.000 C 
ATOM     12  C   UNL     1      17.003  -0.089  51.837  0.00  0.00    +0.000 C 
ENDBRANCH   3  10
TORSDOF 1
ENDMDL
MODEL 2
REMARK VINA RESULT:      -3.1      2.389      3.201
REMARK  Name = 10281_Thymoquinone.pdbqt.pdb
REMARK  1 active torsions:
REMARK  status: ('A' for Active; 'I' for Inactive)
REMARK    1  A    between atoms: C_3  and  C_10
REMARK                            x       y       z     vdW  Elec       q    Type
REMARK                         _______ _______ _______ _____ _____    ______ ____
ROOT
ATOM      1  O   UNL     1      16.249   0.034  52.666  0.00  0.00    +0.000 OA
ATOM      2  O   UNL     1      19.782  -0.000  56.723  0.00  0.00    +0.000 OA
ATOM      3  C   UNL     1      16.844  -0.896  54.818  0.00  0.00    +0.000 C 
ATOM      4  C   UNL     1      17.010  -0.018  53.611  0.00  0.00    +0.000 C 
ATOM      5  C   UNL     1      17.829  -0.726  55.664  0.00  0.00    +0.000 C 
ATOM      6  C   UNL     1      19.201   0.972  54.522  0.00  0.00    +0.000 C 
ATOM      7  C   UNL     1      19.046   0.082  55.758  0.00  0.00    +0.000 C 
ATOM      8  C   UNL     1      18.216   0.798  53.682  0.00  0.00    +0.000 C 
ATOM      9  C   UNL     1      20.313   1.934  54.258  0.00  0.00    +0.000 C 
ENDROOT
BRANCH   3  10
ATOM     10  C   UNL     1      15.724  -1.771  54.931  0.00  0.00    +0.000 C 
ATOM     11  C   UNL     1      14.375  -1.241  55.350  0.00  0.00    +0.000 C 
ATOM     12  C   UNL     1      15.732  -3.118  54.252  0.00  0.00    +0.000 C 
ENDBRANCH   3  10
TORSDOF 1
ENDMDL
MODEL 3
REMARK VINA RESULT:      -3.0     14.900     15.960
REMARK  Name = 10281_Thymoquinone.pdbqt.pdb
REMARK  1 active torsions:
REMARK  status: ('A' for Active; 'I' for Inactive)
REMARK    1  A    between atoms: C_3  and  C_10
REMARK                            x       y       z     vdW  Elec       q    Type
REMARK                         _______ _______ _______ _____ _____    ______ ____
ROOT
ATOM      1  O   UNL     1       5.937   5.194  58.829  0.00  0.00    +0.000 OA
ATOM      2  O   UNL     1       6.219   8.683  62.914  0.00  0.00    +0.000 OA
ATOM      3  C   UNL     1       5.252   5.717  61.089  0.00  0.00    +0.000 C 
ATOM      4  C   UNL     1       5.962   5.943  59.785  0.00  0.00    +0.000 C 
ATOM      5  C   UNL     1       5.473   6.702  61.923  0.00  0.00    +0.000 C 
ATOM      6  C   UNL     1       6.937   8.178  60.600  0.00  0.00    +0.000 C 
ATOM      7  C   UNL     1       6.220   7.961  61.935  0.00  0.00    +0.000 C 
ATOM      8  C   UNL     1       6.713   7.193  59.773  0.00  0.00    +0.000 C 
ATOM      9  C   UNL     1       7.793   9.347  60.234  0.00  0.00    +0.000 C 
ENDROOT
BRANCH   3  10
ATOM     10  C   UNL     1       4.467   4.545  61.295  0.00  0.00    +0.000 C 
ATOM     11  C   UNL     1       3.031   4.494  60.836  0.00  0.00    +0.000 C 
ATOM     12  C   UNL     1       5.128   3.218  61.575  0.00  0.00    +0.000 C 
ENDBRANCH   3  10
TORSDOF 1
ENDMDL
MODEL 4
REMARK VINA RESULT:      -3.0      7.218      7.938
REMARK  Name = 10281_Thymoquinone.pdbqt.pdb
REMARK  1 active torsions:
REMARK  status: ('A' for Active; 'I' for Inactive)
REMARK    1  A    between atoms: C_3  and  C_10
REMARK                            x       y       z     vdW  Elec       q    Type
REMARK                         _______ _______ _______ _____ _____    ______ ____
ROOT
ATOM      1  O   UNL     1      16.787   9.406  54.954  0.00  0.00    +0.000 OA
ATOM      2  O   UNL     1      21.960   8.031  55.498  0.00  0.00    +0.000 OA
ATOM      3  C   UNL     1      18.805   8.657  53.850  0.00  0.00    +0.000 C 
ATOM      4  C   UNL     1      17.957   9.085  55.013  0.00  0.00    +0.000 C 
ATOM      5  C   UNL     1      20.025   8.374  54.234  0.00  0.00    +0.000 C 
ATOM      6  C   UNL     1      19.912   8.797  56.659  0.00  0.00    +0.000 C 
ATOM      7  C   UNL     1      20.789   8.360  55.482  0.00  0.00    +0.000 C 
ATOM      8  C   UNL     1      18.697   9.077  56.270  0.00  0.00    +0.000 C 
ATOM      9  C   UNL     1      20.337   8.905  58.087  0.00  0.00    +0.000 C 
ENDROOT
BRANCH   3  10
ATOM     10  C   UNL     1      18.259   8.603  52.535  0.00  0.00    +0.000 C 
ATOM     11  C   UNL     1      18.061   9.866  51.734  0.00  0.00    +0.000 C 
ATOM     12  C   UNL     1      18.260   7.310  51.756  0.00  0.00    +0.000 C 
ENDBRANCH   3  10
TORSDOF 1
ENDMDL
MODEL 5
REMARK VINA RESULT:      -2.9     12.907     14.291
REMARK  Name = 10281_Thymoquinone.pdbqt.pdb
REMARK  1 active torsions:
REMARK  status: ('A' for Active; 'I' for Inactive)
REMARK    1  A    between atoms: C_3  and  C_10
REMARK                            x       y       z     vdW  Elec       q    Type
REMARK                         _______ _______ _______ _____ _____    ______ ____
ROOT
ATOM      1  O   UNL     1      10.677  13.128  56.662  0.00  0.00    +0.000 OA
ATOM      2  O   UNL     1      13.523  11.868  61.050  0.00  0.00    +0.000 OA
ATOM      3  C   UNL     1      12.849  12.571  57.570  0.00  0.00    +0.000 C 
ATOM      4  C   UNL     1      11.372  12.840  57.616  0.00  0.00    +0.000 C 
ATOM      5  C   UNL     1      13.314  12.287  58.760  0.00  0.00    +0.000 C 
ATOM      6  C   UNL     1      11.286  12.434  60.152  0.00  0.00    +0.000 C 
ATOM      7  C   UNL     1      12.792  12.158  60.122  0.00  0.00    +0.000 C 
ATOM      8  C   UNL     1      10.829  12.716  58.963  0.00  0.00    +0.000 C 
ATOM      9  C   UNL     1      10.404  12.396  61.358  0.00  0.00    +0.000 C 
ENDROOT
BRANCH   3  10
ATOM     10  C   UNL     1      13.563  12.647  56.338  0.00  0.00    +0.000 C 
ATOM     11  C   UNL     1      13.495  11.516  55.341  0.00  0.00    +0.000 C 
ATOM     12  C   UNL     1      14.043  13.976  55.810  0.00  0.00    +0.000 C 
ENDBRANCH   3  10
TORSDOF 1
ENDMDL
MODEL 6
REMARK VINA RESULT:      -2.9     21.320     22.641
REMARK  Name = 10281_Thymoquinone.pdbqt.pdb
REMARK  1 active torsions:
REMARK  status: ('A' for Active; 'I' for Inactive)
REMARK    1  A    between atoms: C_3  and  C_10
REMARK                            x       y       z     vdW  Elec       q    Type
REMARK                         _______ _______ _______ _____ _____    ______ ____
ROOT
ATOM      1  O   UNL     1      12.258   5.600  75.748  0.00  0.00    +0.000 OA
ATOM      2  O   UNL     1      10.086   0.691  75.385  0.00  0.00    +0.000 OA
ATOM      3  C   UNL     1      12.439   3.375  74.816  0.00  0.00    +0.000 C 
ATOM      4  C   UNL     1      11.817   4.474  75.628  0.00  0.00    +0.000 C 
ATOM      5  C   UNL     1      11.727   2.277  74.884  0.00  0.00    +0.000 C 
ATOM      6  C   UNL     1       9.871   2.959  76.354  0.00  0.00    +0.000 C 
ATOM      7  C   UNL     1      10.494   1.827  75.532  0.00  0.00    +0.000 C 
ATOM      8  C   UNL     1      10.585   4.050  76.282  0.00  0.00    +0.000 C 
ATOM      9  C   UNL     1       8.610   2.882  77.152  0.00  0.00    +0.000 C 
ENDROOT
BRANCH   3  10
ATOM     10  C   UNL     1      13.653   3.597  74.103  0.00  0.00    +0.000 C 
ATOM     11  C   UNL     1      14.976   3.168  74.689  0.00  0.00    +0.000 C 
ATOM     12  C   UNL     1      13.633   3.860  72.617  0.00  0.00    +0.000 C 
ENDBRANCH   3  10
TORSDOF 1
ENDMDL
MODEL 7
REMARK VINA RESULT:      -2.9     13.392     14.918
REMARK  Name = 10281_Thymoquinone.pdbqt.pdb
REMARK  1 active torsions:
REMARK  status: ('A' for Active; 'I' for Inactive)
REMARK    1  A    between atoms: C_3  and  C_10
REMARK                            x       y       z     vdW  Elec       q    Type
REMARK                         _______ _______ _______ _____ _____    ______ ____
ROOT
ATOM      1  O   UNL     1      14.260  12.725  58.088  0.00  0.00    +0.000 OA
ATOM      2  O   UNL     1       9.924  12.180  61.225  0.00  0.00    +0.000 OA
ATOM      3  C   UNL     1      13.419  12.280  60.312  0.00  0.00    +0.000 C 
ATOM      4  C   UNL     1      13.320  12.590  58.846  0.00  0.00    +0.000 C 
ATOM      5  C   UNL     1      12.232  12.197  60.858  0.00  0.00    +0.000 C 
ATOM      6  C   UNL     1      10.752  12.638  58.938  0.00  0.00    +0.000 C 
ATOM      7  C   UNL     1      10.836  12.323  60.434  0.00  0.00    +0.000 C 
ATOM      8  C   UNL     1      11.938  12.719  58.400  0.00  0.00    +0.000 C 
ATOM      9  C   UNL     1       9.501  12.834  58.144  0.00  0.00    +0.000 C 
ENDROOT
BRANCH   3  10
ATOM     10  C   UNL     1      14.690  12.121  60.936  0.00  0.00    +0.000 C 
ATOM     11  C   UNL     1      15.144  13.079  62.010  0.00  0.00    +0.000 C 
ATOM     12  C   UNL     1      15.419  10.801  60.865  0.00  0.00    +0.000 C 
ENDBRANCH   3  10
TORSDOF 1
ENDMDL
MODEL 8
REMARK VINA RESULT:      -2.9     12.827     13.708
REMARK  Name = 10281_Thymoquinone.pdbqt.pdb
REMARK  1 active torsions:
REMARK  status: ('A' for Active; 'I' for Inactive)
REMARK    1  A    between atoms: C_3  and  C_10
REMARK                            x       y       z     vdW  Elec       q    Type
REMARK                         _______ _______ _______ _____ _____    ______ ____
ROOT
ATOM      1  O   UNL     1      18.319  12.580  62.062  0.00  0.00    +0.000 OA
ATOM      2  O   UNL     1      13.152  11.815  60.773  0.00  0.00    +0.000 OA
ATOM      3  C   UNL     1      16.711  11.200  60.894  0.00  0.00    +0.000 C 
ATOM      4  C   UNL     1      17.169  12.354  61.738  0.00  0.00    +0.000 C 
ATOM      5  C   UNL     1      15.413  11.229  60.720  0.00  0.00    +0.000 C 
ATOM      6  C   UNL     1      14.771  13.248  61.978  0.00  0.00    +0.000 C 
ATOM      7  C   UNL     1      14.288  12.076  61.119  0.00  0.00    +0.000 C 
ATOM      8  C   UNL     1      16.065  13.213  62.148  0.00  0.00    +0.000 C 
ATOM      9  C   UNL     1      13.917  14.323  62.569  0.00  0.00    +0.000 C 
ENDROOT
BRANCH   3  10
ATOM     10  C   UNL     1      17.647  10.246  60.399  0.00  0.00    +0.000 C 
ATOM     11  C   UNL     1      18.178   9.155  61.296  0.00  0.00    +0.000 C 
ATOM     12  C   UNL     1      17.809  10.030  58.914  0.00  0.00    +0.000 C 
ENDBRANCH   3  10
TORSDOF 1
ENDMDL
MODEL 9
REMARK VINA RESULT:      -2.8     17.266     18.417
REMARK  Name = 10281_Thymoquinone.pdbqt.pdb
REMARK  1 active torsions:
REMARK  status: ('A' for Active; 'I' for Inactive)
REMARK    1  A    between atoms: C_3  and  C_10
REMARK                            x       y       z     vdW  Elec       q    Type
REMARK                         _______ _______ _______ _____ _____    ______ ____
ROOT
ATOM      1  O   UNL     1       8.853  -0.675  66.533  0.00  0.00    +0.000 OA
ATOM      2  O   UNL     1       8.261  -1.383  71.833  0.00  0.00    +0.000 OA
ATOM      3  C   UNL     1       7.373  -1.330  68.330  0.00  0.00    +0.000 C 
ATOM      4  C   UNL     1       8.658  -0.853  67.719  0.00  0.00    +0.000 C 
ATOM      5  C   UNL     1       7.476  -1.424  69.632  0.00  0.00    +0.000 C 
ATOM      6  C   UNL     1       9.801  -0.706  70.017  0.00  0.00    +0.000 C 
ATOM      7  C   UNL     1       8.497  -1.192  70.655  0.00  0.00    +0.000 C 
ATOM      8  C   UNL     1       9.692  -0.614  68.719  0.00  0.00    +0.000 C 
ATOM      9  C   UNL     1      11.065  -0.363  70.737  0.00  0.00    +0.000 C 
ENDROOT
BRANCH   3  10
ATOM     10  C   UNL     1       6.243  -1.621  67.511  0.00  0.00    +0.000 C 
ATOM     11  C   UNL     1       5.766  -3.043  67.339  0.00  0.00    +0.000 C 
ATOM     12  C   UNL     1       5.259  -0.536  67.147  0.00  0.00    +0.000 C 
ENDBRANCH   3  10
TORSDOF 1
ENDMDL
