MODEL 1
REMARK VINA RESULT:      -4.0      0.000      0.000
REMARK  Name = 10288191_Binimetinib.pdbqt.pdb
REMARK  6 active torsions:
REMARK  status: ('A' for Active; 'I' for Inactive)
REMARK    1  A    between atoms: C_6  and  N_21
REMARK    2  A    between atoms: C_7  and  C_14
REMARK    3  A    between atoms: N_13  and  O_16
REMARK    4  A    between atoms: O_16  and  C_17
REMARK    5  A    between atoms: C_18  and  O_19
REMARK    6  A    between atoms: N_21  and  C_25
REMARK                            x       y       z     vdW  Elec       q    Type
REMARK                         _______ _______ _______ _____ _____    ______ ____
ROOT
ATOM      1  F   UNL     1      11.658   5.877  75.791  0.00  0.00    +0.000 F 
ATOM      2  N   UNL     1      12.715   1.868  73.991  0.00  0.00    +0.000 N 
ATOM      3  N   UNL     1      11.444   2.963  75.425  0.00  0.00    +0.000 NA
ATOM      4  C   UNL     1      13.087   3.174  73.849  0.00  0.00    +0.000 A 
ATOM      5  C   UNL     1      12.273   3.845  74.757  0.00  0.00    +0.000 A 
ATOM      6  C   UNL     1      13.325   5.959  74.075  0.00  0.00    +0.000 A 
ATOM      7  C   UNL     1      14.142   5.225  73.176  0.00  0.00    +0.000 A 
ATOM      8  C   UNL     1      14.031   3.828  73.055  0.00  0.00    +0.000 A 
ATOM      9  C   UNL     1      12.398   5.243  74.868  0.00  0.00    +0.000 A 
ATOM     10  C   UNL     1      11.738   1.773  74.935  0.00  0.00    +0.000 A 
ATOM     11  C   UNL     1      13.249   0.770  73.255  0.00  0.00    +0.000 C 
ENDROOT
BRANCH   7  14
ATOM     12  O   UNL     1      16.155   6.422  72.880  0.00  0.00    +0.000 OA
ATOM     13  N   UNL     1      14.968   5.904  70.973  0.00  0.00    +0.000 N 
ATOM     14  C   UNL     1      15.182   5.904  72.337  0.00  0.00    +0.000 C 
ATOM     15  H   UNL     1      14.041   5.812  70.577  0.00  0.00    +0.000 HD
BRANCH  13  16
ATOM     16  O   UNL     1      15.811   6.789  70.265  0.00  0.00    +0.000 OA
BRANCH  16  17
ATOM     17  C   UNL     1      15.063   7.329  69.306  0.00  0.00    +0.000 C 
ATOM     18  C   UNL     1      14.211   7.947  68.192  0.00  0.00    +0.000 C 
BRANCH  18  19
ATOM     19  O   UNL     1      13.478   8.479  67.220  0.00  0.00    +0.000 OA
ATOM     20  H   UNL     1      13.914   8.347  66.361  0.00  0.00    +0.000 HD
ENDBRANCH  18  19
ENDBRANCH  16  17
ENDBRANCH  13  16
ENDBRANCH   7  14
BRANCH   6  21
ATOM     21  N   UNL     1      13.425   7.373  74.145  0.00  0.00    +0.000 N 
ATOM     22  H   UNL     1      14.340   7.698  74.495  0.00  0.00    +0.000 HD
BRANCH  21  25
ATOM     23 BR   UNL     1      10.271  11.665  71.177  0.00  0.00    +0.000 Br
ATOM     24  F   UNL     1      11.145   8.510  75.199  0.00  0.00    +0.000 F 
ATOM     25  C   UNL     1      12.742   8.392  73.449  0.00  0.00    +0.000 A 
ATOM     26  C   UNL     1      11.568   8.935  73.996  0.00  0.00    +0.000 A 
ATOM     27  C   UNL     1      13.134   8.848  72.188  0.00  0.00    +0.000 A 
ATOM     28  C   UNL     1      10.826   9.908  73.335  0.00  0.00    +0.000 A 
ATOM     29  C   UNL     1      12.404   9.823  71.510  0.00  0.00    +0.000 A 
ATOM     30  C   UNL     1      11.255  10.346  72.090  0.00  0.00    +0.000 A 
ENDBRANCH  21  25
ENDBRANCH   6  21
TORSDOF 6
ENDMDL
MODEL 2
REMARK VINA RESULT:      -3.9     14.303     17.916
REMARK  Name = 10288191_Binimetinib.pdbqt.pdb
REMARK  6 active torsions:
REMARK  status: ('A' for Active; 'I' for Inactive)
REMARK    1  A    between atoms: C_6  and  N_21
REMARK    2  A    between atoms: C_7  and  C_14
REMARK    3  A    between atoms: N_13  and  O_16
REMARK    4  A    between atoms: O_16  and  C_17
REMARK    5  A    between atoms: C_18  and  O_19
REMARK    6  A    between atoms: N_21  and  C_25
REMARK                            x       y       z     vdW  Elec       q    Type
REMARK                         _______ _______ _______ _____ _____    ______ ____
ROOT
ATOM      1  F   UNL     1      19.000   8.210  56.573  0.00  0.00    +0.000 F 
ATOM      2  N   UNL     1      18.110   9.500  52.333  0.00  0.00    +0.000 N 
ATOM      3  N   UNL     1      19.129   8.039  53.635  0.00  0.00    +0.000 NA
ATOM      4  C   UNL     1      17.794   9.895  53.601  0.00  0.00    +0.000 A 
ATOM      5  C   UNL     1      18.441   8.960  54.404  0.00  0.00    +0.000 A 
ATOM      6  C   UNL     1      17.555  10.110  56.387  0.00  0.00    +0.000 A 
ATOM      7  C   UNL     1      16.927  11.046  55.524  0.00  0.00    +0.000 A 
ATOM      8  C   UNL     1      17.040  10.947  54.125  0.00  0.00    +0.000 A 
ATOM      9  C   UNL     1      18.320   9.074  55.802  0.00  0.00    +0.000 A 
ATOM     10  C   UNL     1      18.904   8.395  52.385  0.00  0.00    +0.000 A 
ATOM     11  C   UNL     1      17.664  10.130  51.134  0.00  0.00    +0.000 C 
ENDROOT
BRANCH   7  14
ATOM     12  O   UNL     1      16.684  13.292  56.206  0.00  0.00    +0.000 OA
ATOM     13  N   UNL     1      14.820  11.949  56.386  0.00  0.00    +0.000 N 
ATOM     14  C   UNL     1      16.140  12.199  56.067  0.00  0.00    +0.000 C 
ATOM     15  H   UNL     1      14.492  11.017  56.610  0.00  0.00    +0.000 HD
BRANCH  13  16
ATOM     16  O   UNL     1      14.214  12.971  57.148  0.00  0.00    +0.000 OA
BRANCH  16  17
ATOM     17  C   UNL     1      14.185  12.532  58.405  0.00  0.00    +0.000 C 
ATOM     18  C   UNL     1      14.156  12.015  59.847  0.00  0.00    +0.000 C 
BRANCH  18  19
ATOM     19  O   UNL     1      14.136  11.559  61.095  0.00  0.00    +0.000 OA
ATOM     20  H   UNL     1      14.990  11.727  61.527  0.00  0.00    +0.000 HD
ENDBRANCH  18  19
ENDBRANCH  16  17
ENDBRANCH  13  16
ENDBRANCH   7  14
BRANCH   6  21
ATOM     21  N   UNL     1      17.388  10.205  57.793  0.00  0.00    +0.000 N 
ATOM     22  H   UNL     1      16.419  10.027  58.100  0.00  0.00    +0.000 HD
BRANCH  21  25
ATOM     23 BR   UNL     1      21.194   9.649  62.525  0.00  0.00    +0.000 Br
ATOM     24  F   UNL     1      16.586   9.130  60.203  0.00  0.00    +0.000 F 
ATOM     25  C   UNL     1      18.305  10.055  58.854  0.00  0.00    +0.000 A 
ATOM     26  C   UNL     1      17.863   9.529  60.080  0.00  0.00    +0.000 A 
ATOM     27  C   UNL     1      19.634  10.476  58.778  0.00  0.00    +0.000 A 
ATOM     28  C   UNL     1      18.709   9.401  61.176  0.00  0.00    +0.000 A 
ATOM     29  C   UNL     1      20.499  10.354  59.865  0.00  0.00    +0.000 A 
ATOM     30  C   UNL     1      20.028   9.816  61.057  0.00  0.00    +0.000 A 
ENDBRANCH  21  25
ENDBRANCH   6  21
TORSDOF 6
ENDMDL
MODEL 3
REMARK VINA RESULT:      -3.9     13.081     14.916
REMARK  Name = 10288191_Binimetinib.pdbqt.pdb
REMARK  6 active torsions:
REMARK  status: ('A' for Active; 'I' for Inactive)
REMARK    1  A    between atoms: C_6  and  N_21
REMARK    2  A    between atoms: C_7  and  C_14
REMARK    3  A    between atoms: N_13  and  O_16
REMARK    4  A    between atoms: O_16  and  C_17
REMARK    5  A    between atoms: C_18  and  O_19
REMARK    6  A    between atoms: N_21  and  C_25
REMARK                            x       y       z     vdW  Elec       q    Type
REMARK                         _______ _______ _______ _____ _____    ______ ____
ROOT
ATOM      1  F   UNL     1      16.522  10.308  62.469  0.00  0.00    +0.000 F 
ATOM      2  N   UNL     1      20.546   8.604  61.313  0.00  0.00    +0.000 N 
ATOM      3  N   UNL     1      19.111   8.987  62.945  0.00  0.00    +0.000 NA
ATOM      4  C   UNL     1      19.478   9.193  60.698  0.00  0.00    +0.000 A 
ATOM      5  C   UNL     1      18.586   9.421  61.742  0.00  0.00    +0.000 A 
ATOM      6  C   UNL     1      17.012  10.399  60.128  0.00  0.00    +0.000 A 
ATOM      7  C   UNL     1      17.963  10.158  59.102  0.00  0.00    +0.000 A 
ATOM      8  C   UNL     1      19.203   9.553  59.378  0.00  0.00    +0.000 A 
ATOM      9  C   UNL     1      17.350  10.030  61.451  0.00  0.00    +0.000 A 
ATOM     10  C   UNL     1      20.299   8.495  62.648  0.00  0.00    +0.000 A 
ATOM     11  C   UNL     1      21.731   8.152  60.662  0.00  0.00    +0.000 C 
ENDROOT
BRANCH   7  14
ATOM     12  O   UNL     1      17.502  11.748  57.421  0.00  0.00    +0.000 OA
ATOM     13  N   UNL     1      17.694   9.554  56.744  0.00  0.00    +0.000 N 
ATOM     14  C   UNL     1      17.700  10.565  57.684  0.00  0.00    +0.000 C 
ATOM     15  H   UNL     1      17.499   8.592  56.994  0.00  0.00    +0.000 HD
BRANCH  13  16
ATOM     16  O   UNL     1      17.167   9.942  55.494  0.00  0.00    +0.000 OA
BRANCH  16  17
ATOM     17  C   UNL     1      17.788   9.198  54.580  0.00  0.00    +0.000 C 
ATOM     18  C   UNL     1      18.500   8.351  53.520  0.00  0.00    +0.000 C 
BRANCH  18  19
ATOM     19  O   UNL     1      19.116   7.623  52.595  0.00  0.00    +0.000 OA
ATOM     20  H   UNL     1      20.017   7.403  52.887  0.00  0.00    +0.000 HD
ENDBRANCH  18  19
ENDBRANCH  16  17
ENDBRANCH  13  16
ENDBRANCH   7  14
BRANCH   6  21
ATOM     21  N   UNL     1      15.750  10.969  59.817  0.00  0.00    +0.000 N 
ATOM     22  H   UNL     1      15.093  10.295  59.394  0.00  0.00    +0.000 HD
BRANCH  21  25
ATOM     23 BR   UNL     1      13.030  15.863  62.232  0.00  0.00    +0.000 Br
ATOM     24  F   UNL     1      16.986  13.432  59.923  0.00  0.00    +0.000 F 
ATOM     25  C   UNL     1      15.076  12.089  60.346  0.00  0.00    +0.000 A 
ATOM     26  C   UNL     1      15.740  13.326  60.413  0.00  0.00    +0.000 A 
ATOM     27  C   UNL     1      13.790  12.020  60.886  0.00  0.00    +0.000 A 
ATOM     28  C   UNL     1      15.144  14.454  60.968  0.00  0.00    +0.000 A 
ATOM     29  C   UNL     1      13.176  13.140  61.445  0.00  0.00    +0.000 A 
ATOM     30  C   UNL     1      13.859  14.350  61.480  0.00  0.00    +0.000 A 
ENDBRANCH  21  25
ENDBRANCH   6  21
TORSDOF 6
ENDMDL
MODEL 4
REMARK VINA RESULT:      -3.8      9.242     11.747
REMARK  Name = 10288191_Binimetinib.pdbqt.pdb
REMARK  6 active torsions:
REMARK  status: ('A' for Active; 'I' for Inactive)
REMARK    1  A    between atoms: C_6  and  N_21
REMARK    2  A    between atoms: C_7  and  C_14
REMARK    3  A    between atoms: N_13  and  O_16
REMARK    4  A    between atoms: O_16  and  C_17
REMARK    5  A    between atoms: C_18  and  O_19
REMARK    6  A    between atoms: N_21  and  C_25
REMARK                            x       y       z     vdW  Elec       q    Type
REMARK                         _______ _______ _______ _____ _____    ______ ____
ROOT
ATOM      1  F   UNL     1       4.076  11.516  69.638  0.00  0.00    +0.000 F 
ATOM      2  N   UNL     1       7.192  11.628  72.911  0.00  0.00    +0.000 N 
ATOM      3  N   UNL     1       6.624  12.305  70.889  0.00  0.00    +0.000 NA
ATOM      4  C   UNL     1       5.956  11.086  72.704  0.00  0.00    +0.000 A 
ATOM      5  C   UNL     1       5.616  11.527  71.429  0.00  0.00    +0.000 A 
ATOM      6  C   UNL     1       3.478  10.331  71.630  0.00  0.00    +0.000 A 
ATOM      7  C   UNL     1       3.880   9.895  72.920  0.00  0.00    +0.000 A 
ATOM      8  C   UNL     1       5.121  10.269  73.468  0.00  0.00    +0.000 A 
ATOM      9  C   UNL     1       4.372  11.143  70.893  0.00  0.00    +0.000 A 
ATOM     10  C   UNL     1       7.563  12.346  71.815  0.00  0.00    +0.000 A 
ATOM     11  C   UNL     1       7.972  11.485  74.096  0.00  0.00    +0.000 C 
ENDROOT
BRANCH   7  14
ATOM     12  O   UNL     1       2.013   9.450  74.292  0.00  0.00    +0.000 OA
ATOM     13  N   UNL     1       3.405   7.673  73.831  0.00  0.00    +0.000 N 
ATOM     14  C   UNL     1       3.012   8.993  73.743  0.00  0.00    +0.000 C 
ATOM     15  H   UNL     1       4.368   7.392  73.696  0.00  0.00    +0.000 HD
BRANCH  13  16
ATOM     16  O   UNL     1       2.727   6.943  74.832  0.00  0.00    +0.000 OA
BRANCH  16  17
ATOM     17  C   UNL     1       3.543   5.952  75.187  0.00  0.00    +0.000 C 
ATOM     18  C   UNL     1       4.493   4.820  75.593  0.00  0.00    +0.000 C 
BRANCH  18  19
ATOM     19  O   UNL     1       5.322   3.843  75.944  0.00  0.00    +0.000 OA
ATOM     20  H   UNL     1       4.878   3.229  76.553  0.00  0.00    +0.000 HD
ENDBRANCH  18  19
ENDBRANCH  16  17
ENDBRANCH  13  16
ENDBRANCH   7  14
BRANCH   6  21
ATOM     21  N   UNL     1       2.203   9.978  71.118  0.00  0.00    +0.000 N 
ATOM     22  H   UNL     1       1.450  10.610  71.432  0.00  0.00    +0.000 HD
BRANCH  21  25
ATOM     23 BR   UNL     1       0.806   6.820  66.092  0.00  0.00    +0.000 Br
ATOM     24  F   UNL     1       3.460   7.608  70.476  0.00  0.00    +0.000 F 
ATOM     25  C   UNL     1       1.827   9.252  69.968  0.00  0.00    +0.000 A 
ATOM     26  C   UNL     1       2.503   8.063  69.650  0.00  0.00    +0.000 A 
ATOM     27  C   UNL     1       0.854   9.698  69.071  0.00  0.00    +0.000 A 
ATOM     28  C   UNL     1       2.209   7.330  68.505  0.00  0.00    +0.000 A 
ATOM     29  C   UNL     1       0.544   8.977  67.918  0.00  0.00    +0.000 A 
ATOM     30  C   UNL     1       1.225   7.796  67.646  0.00  0.00    +0.000 A 
ENDBRANCH  21  25
ENDBRANCH   6  21
TORSDOF 6
ENDMDL
MODEL 5
REMARK VINA RESULT:      -3.8     10.428     12.609
REMARK  Name = 10288191_Binimetinib.pdbqt.pdb
REMARK  6 active torsions:
REMARK  status: ('A' for Active; 'I' for Inactive)
REMARK    1  A    between atoms: C_6  and  N_21
REMARK    2  A    between atoms: C_7  and  C_14
REMARK    3  A    between atoms: N_13  and  O_16
REMARK    4  A    between atoms: O_16  and  C_17
REMARK    5  A    between atoms: C_18  and  O_19
REMARK    6  A    between atoms: N_21  and  C_25
REMARK                            x       y       z     vdW  Elec       q    Type
REMARK                         _______ _______ _______ _____ _____    ______ ____
ROOT
ATOM      1  F   UNL     1      17.551  10.344  65.321  0.00  0.00    +0.000 F 
ATOM      2  N   UNL     1      19.594   6.392  64.519  0.00  0.00    +0.000 N 
ATOM      3  N   UNL     1      18.476   7.624  65.969  0.00  0.00    +0.000 NA
ATOM      4  C   UNL     1      19.325   7.550  63.848  0.00  0.00    +0.000 A 
ATOM      5  C   UNL     1      18.618   8.308  64.776  0.00  0.00    +0.000 A 
ATOM      6  C   UNL     1      18.433  10.105  63.109  0.00  0.00    +0.000 A 
ATOM      7  C   UNL     1      19.172   9.297  62.204  0.00  0.00    +0.000 A 
ATOM      8  C   UNL     1      19.624   8.014  62.565  0.00  0.00    +0.000 A 
ATOM      9  C   UNL     1      18.174   9.591  64.401  0.00  0.00    +0.000 A 
ATOM     10  C   UNL     1      19.078   6.465  65.777  0.00  0.00    +0.000 A 
ATOM     11  C   UNL     1      20.290   5.268  63.986  0.00  0.00    +0.000 C 
ENDROOT
BRANCH   7  14
ATOM     12  O   UNL     1      20.166  10.831  60.712  0.00  0.00    +0.000 OA
ATOM     13  N   UNL     1      19.103   9.016  59.773  0.00  0.00    +0.000 N 
ATOM     14  C   UNL     1      19.529   9.788  60.835  0.00  0.00    +0.000 C 
ATOM     15  H   UNL     1      18.307   8.394  59.849  0.00  0.00    +0.000 HD
BRANCH  13  16
ATOM     16  O   UNL     1      19.212   9.658  58.521  0.00  0.00    +0.000 OA
BRANCH  16  17
ATOM     17  C   UNL     1      20.153   9.001  57.846  0.00  0.00    +0.000 C 
ATOM     18  C   UNL     1      21.228   8.234  57.067  0.00  0.00    +0.000 C 
BRANCH  18  19
ATOM     19  O   UNL     1      22.154   7.563  56.391  0.00  0.00    +0.000 OA
ATOM     20  H   UNL     1      21.733   6.959  55.756  0.00  0.00    +0.000 HD
ENDBRANCH  18  19
ENDBRANCH  16  17
ENDBRANCH  13  16
ENDBRANCH   7  14
BRANCH   6  21
ATOM     21  N   UNL     1      17.950  11.376  62.705  0.00  0.00    +0.000 N 
ATOM     22  H   UNL     1      18.702  12.034  62.449  0.00  0.00    +0.000 HD
BRANCH  21  25
ATOM     23 BR   UNL     1      12.504  13.150  60.611  0.00  0.00    +0.000 Br
ATOM     24  F   UNL     1      16.789  13.759  63.467  0.00  0.00    +0.000 F 
ATOM     25  C   UNL     1      16.707  11.774  62.170  0.00  0.00    +0.000 A 
ATOM     26  C   UNL     1      16.126  12.980  62.597  0.00  0.00    +0.000 A 
ATOM     27  C   UNL     1      15.973  10.987  61.280  0.00  0.00    +0.000 A 
ATOM     28  C   UNL     1      14.881  13.402  62.140  0.00  0.00    +0.000 A 
ATOM     29  C   UNL     1      14.724  11.393  60.811  0.00  0.00    +0.000 A 
ATOM     30  C   UNL     1      14.188  12.599  61.245  0.00  0.00    +0.000 A 
ENDBRANCH  21  25
ENDBRANCH   6  21
TORSDOF 6
ENDMDL
MODEL 6
REMARK VINA RESULT:      -3.7     13.183     16.114
REMARK  Name = 10288191_Binimetinib.pdbqt.pdb
REMARK  6 active torsions:
REMARK  status: ('A' for Active; 'I' for Inactive)
REMARK    1  A    between atoms: C_6  and  N_21
REMARK    2  A    between atoms: C_7  and  C_14
REMARK    3  A    between atoms: N_13  and  O_16
REMARK    4  A    between atoms: O_16  and  C_17
REMARK    5  A    between atoms: C_18  and  O_19
REMARK    6  A    between atoms: N_21  and  C_25
REMARK                            x       y       z     vdW  Elec       q    Type
REMARK                         _______ _______ _______ _____ _____    ______ ____
ROOT
ATOM      1  F   UNL     1      16.344  12.206  57.928  0.00  0.00    +0.000 F 
ATOM      2  N   UNL     1      13.099  14.717  56.032  0.00  0.00    +0.000 N 
ATOM      3  N   UNL     1      15.177  13.986  55.893  0.00  0.00    +0.000 NA
ATOM      4  C   UNL     1      13.252  13.913  57.124  0.00  0.00    +0.000 A 
ATOM      5  C   UNL     1      14.563  13.460  57.015  0.00  0.00    +0.000 A 
ATOM      6  C   UNL     1      14.247  12.169  59.083  0.00  0.00    +0.000 A 
ATOM      7  C   UNL     1      12.921  12.672  59.155  0.00  0.00    +0.000 A 
ATOM      8  C   UNL     1      12.412  13.547  58.178  0.00  0.00    +0.000 A 
ATOM      9  C   UNL     1      15.060  12.587  58.002  0.00  0.00    +0.000 A 
ATOM     10  C   UNL     1      14.259  14.742  55.319  0.00  0.00    +0.000 A 
ATOM     11  C   UNL     1      11.906  15.411  55.675  0.00  0.00    +0.000 C 
ENDROOT
BRANCH   7  14
ATOM     12  O   UNL     1      12.445  12.352  61.444  0.00  0.00    +0.000 OA
ATOM     13  N   UNL     1      10.724  11.957  59.965  0.00  0.00    +0.000 N 
ATOM     14  C   UNL     1      12.016  12.315  60.294  0.00  0.00    +0.000 C 
ATOM     15  H   UNL     1      10.488  11.588  59.052  0.00  0.00    +0.000 HD
BRANCH  13  16
ATOM     16  O   UNL     1      10.008  11.365  61.027  0.00  0.00    +0.000 OA
BRANCH  16  17
ATOM     17  C   UNL     1       8.789  11.900  61.000  0.00  0.00    +0.000 C 
ATOM     18  C   UNL     1       7.382  12.508  60.979  0.00  0.00    +0.000 C 
BRANCH  18  19
ATOM     19  O   UNL     1       6.161  13.030  60.968  0.00  0.00    +0.000 OA
ATOM     20  H   UNL     1       6.002  13.493  60.127  0.00  0.00    +0.000 HD
ENDBRANCH  18  19
ENDBRANCH  16  17
ENDBRANCH  13  16
ENDBRANCH   7  14
BRANCH   6  21
ATOM     21  N   UNL     1      14.722  11.252  60.056  0.00  0.00    +0.000 N 
ATOM     22  H   UNL     1      14.497  10.270  59.833  0.00  0.00    +0.000 HD
BRANCH  21  25
ATOM     23 BR   UNL     1      19.227  11.433  64.162  0.00  0.00    +0.000 Br
ATOM     24  F   UNL     1      16.563   9.214  60.306  0.00  0.00    +0.000 F 
ATOM     25  C   UNL     1      15.775  11.345  60.989  0.00  0.00    +0.000 A 
ATOM     26  C   UNL     1      16.683  10.280  61.115  0.00  0.00    +0.000 A 
ATOM     27  C   UNL     1      15.925  12.423  61.864  0.00  0.00    +0.000 A 
ATOM     28  C   UNL     1      17.713  10.294  62.050  0.00  0.00    +0.000 A 
ATOM     29  C   UNL     1      16.952  12.456  62.807  0.00  0.00    +0.000 A 
ATOM     30  C   UNL     1      17.839  11.390  62.891  0.00  0.00    +0.000 A 
ENDBRANCH  21  25
ENDBRANCH   6  21
TORSDOF 6
ENDMDL
MODEL 7
REMARK VINA RESULT:      -3.7      4.372      7.219
REMARK  Name = 10288191_Binimetinib.pdbqt.pdb
REMARK  6 active torsions:
REMARK  status: ('A' for Active; 'I' for Inactive)
REMARK    1  A    between atoms: C_6  and  N_21
REMARK    2  A    between atoms: C_7  and  C_14
REMARK    3  A    between atoms: N_13  and  O_16
REMARK    4  A    between atoms: O_16  and  C_17
REMARK    5  A    between atoms: C_18  and  O_19
REMARK    6  A    between atoms: N_21  and  C_25
REMARK                            x       y       z     vdW  Elec       q    Type
REMARK                         _______ _______ _______ _____ _____    ______ ____
ROOT
ATOM      1  F   UNL     1      14.443   6.601  72.816  0.00  0.00    +0.000 F 
ATOM      2  N   UNL     1      13.594  10.203  70.219  0.00  0.00    +0.000 N 
ATOM      3  N   UNL     1      13.394   9.288  72.218  0.00  0.00    +0.000 NA
ATOM      4  C   UNL     1      14.218   8.994  70.105  0.00  0.00    +0.000 A 
ATOM      5  C   UNL     1      14.085   8.437  71.374  0.00  0.00    +0.000 A 
ATOM      6  C   UNL     1      15.309   6.456  70.589  0.00  0.00    +0.000 A 
ATOM      7  C   UNL     1      15.404   7.062  69.308  0.00  0.00    +0.000 A 
ATOM      8  C   UNL     1      14.860   8.335  69.056  0.00  0.00    +0.000 A 
ATOM      9  C   UNL     1      14.632   7.161  71.611  0.00  0.00    +0.000 A 
ATOM     10  C   UNL     1      13.114  10.350  71.486  0.00  0.00    +0.000 A 
ATOM     11  C   UNL     1      13.477  11.175  69.184  0.00  0.00    +0.000 C 
ENDROOT
BRANCH   7  14
ATOM     12  O   UNL     1      15.563   5.328  67.716  0.00  0.00    +0.000 OA
ATOM     13  N   UNL     1      17.219   6.930  67.670  0.00  0.00    +0.000 N 
ATOM     14  C   UNL     1      16.062   6.358  68.161  0.00  0.00    +0.000 C 
ATOM     15  H   UNL     1      17.800   7.533  68.238  0.00  0.00    +0.000 HD
BRANCH  13  16
ATOM     16  O   UNL     1      17.943   6.090  66.796  0.00  0.00    +0.000 OA
BRANCH  16  17
ATOM     17  C   UNL     1      18.715   6.890  66.065  0.00  0.00    +0.000 C 
ATOM     18  C   UNL     1      19.595   7.813  65.214  0.00  0.00    +0.000 C 
BRANCH  18  19
ATOM     19  O   UNL     1      20.350   8.615  64.471  0.00  0.00    +0.000 OA
ATOM     20  H   UNL     1      19.814   9.342  64.112  0.00  0.00    +0.000 HD
ENDBRANCH  18  19
ENDBRANCH  16  17
ENDBRANCH  13  16
ENDBRANCH   7  14
BRANCH   6  21
ATOM     21  N   UNL     1      15.905   5.191  70.830  0.00  0.00    +0.000 N 
ATOM     22  H   UNL     1      16.769   5.249  71.391  0.00  0.00    +0.000 HD
BRANCH  21  25
ATOM     23 BR   UNL     1      13.560  -0.437  70.690  0.00  0.00    +0.000 Br
ATOM     24  F   UNL     1      17.079   3.146  69.400  0.00  0.00    +0.000 F 
ATOM     25  C   UNL     1      15.358   3.891  70.852  0.00  0.00    +0.000 A 
ATOM     26  C   UNL     1      15.961   2.875  70.092  0.00  0.00    +0.000 A 
ATOM     27  C   UNL     1      14.185   3.569  71.539  0.00  0.00    +0.000 A 
ATOM     28  C   UNL     1      15.440   1.586  70.037  0.00  0.00    +0.000 A 
ATOM     29  C   UNL     1      13.648   2.283  71.498  0.00  0.00    +0.000 A 
ATOM     30  C   UNL     1      14.282   1.301  70.746  0.00  0.00    +0.000 A 
ENDBRANCH  21  25
ENDBRANCH   6  21
TORSDOF 6
ENDMDL
MODEL 8
REMARK VINA RESULT:      -3.7     10.155     12.145
REMARK  Name = 10288191_Binimetinib.pdbqt.pdb
REMARK  6 active torsions:
REMARK  status: ('A' for Active; 'I' for Inactive)
REMARK    1  A    between atoms: C_6  and  N_21
REMARK    2  A    between atoms: C_7  and  C_14
REMARK    3  A    between atoms: N_13  and  O_16
REMARK    4  A    between atoms: O_16  and  C_17
REMARK    5  A    between atoms: C_18  and  O_19
REMARK    6  A    between atoms: N_21  and  C_25
REMARK                            x       y       z     vdW  Elec       q    Type
REMARK                         _______ _______ _______ _____ _____    ______ ____
ROOT
ATOM      1  F   UNL     1      17.822   9.976  65.529  0.00  0.00    +0.000 F 
ATOM      2  N   UNL     1      19.493   5.834  64.836  0.00  0.00    +0.000 N 
ATOM      3  N   UNL     1      18.342   7.151  66.181  0.00  0.00    +0.000 NA
ATOM      4  C   UNL     1      19.446   7.032  64.183  0.00  0.00    +0.000 A 
ATOM      5  C   UNL     1      18.714   7.844  65.044  0.00  0.00    +0.000 A 
ATOM      6  C   UNL     1      18.951   9.690  63.438  0.00  0.00    +0.000 A 
ATOM      7  C   UNL     1      19.705   8.824  62.603  0.00  0.00    +0.000 A 
ATOM      8  C   UNL     1      19.959   7.489  62.967  0.00  0.00    +0.000 A 
ATOM      9  C   UNL     1      18.470   9.179  64.667  0.00  0.00    +0.000 A 
ATOM     10  C   UNL     1      18.829   5.936  66.021  0.00  0.00    +0.000 A 
ATOM     11  C   UNL     1      20.121   4.650  64.351  0.00  0.00    +0.000 C 
ENDROOT
BRANCH   7  14
ATOM     12  O   UNL     1      21.139  10.191  61.321  0.00  0.00    +0.000 OA
ATOM     13  N   UNL     1      19.819   8.702  60.160  0.00  0.00    +0.000 N 
ATOM     14  C   UNL     1      20.290   9.304  61.310  0.00  0.00    +0.000 C 
ATOM     15  H   UNL     1      18.908   8.262  60.122  0.00  0.00    +0.000 HD
BRANCH  13  16
ATOM     16  O   UNL     1      20.183   9.376  58.974  0.00  0.00    +0.000 OA
BRANCH  16  17
ATOM     17  C   UNL     1      19.078   9.969  58.528  0.00  0.00    +0.000 C 
ATOM     18  C   UNL     1      17.806  10.660  58.025  0.00  0.00    +0.000 C 
BRANCH  18  19
ATOM     19  O   UNL     1      16.705  11.266  57.594  0.00  0.00    +0.000 OA
ATOM     20  H   UNL     1      16.007  11.211  58.269  0.00  0.00    +0.000 HD
ENDBRANCH  18  19
ENDBRANCH  16  17
ENDBRANCH  13  16
ENDBRANCH   7  14
BRANCH   6  21
ATOM     21  N   UNL     1      18.671  11.019  63.027  0.00  0.00    +0.000 N 
ATOM     22  H   UNL     1      19.507  11.529  62.704  0.00  0.00    +0.000 HD
BRANCH  21  25
ATOM     23 BR   UNL     1      13.469  13.649  61.235  0.00  0.00    +0.000 Br
ATOM     24  F   UNL     1      17.784  13.400  64.099  0.00  0.00    +0.000 F 
ATOM     25  C   UNL     1      17.483  11.620  62.561  0.00  0.00    +0.000 A 
ATOM     26  C   UNL     1      17.040  12.819  63.144  0.00  0.00    +0.000 A 
ATOM     27  C   UNL     1      16.667  11.041  61.586  0.00  0.00    +0.000 A 
ATOM     28  C   UNL     1      15.853  13.433  62.759  0.00  0.00    +0.000 A 
ATOM     29  C   UNL     1      15.474  11.641  61.186  0.00  0.00    +0.000 A 
ATOM     30  C   UNL     1      15.077  12.835  61.776  0.00  0.00    +0.000 A 
ENDBRANCH  21  25
ENDBRANCH   6  21
TORSDOF 6
ENDMDL
MODEL 9
REMARK VINA RESULT:      -3.6     17.657     20.055
REMARK  Name = 10288191_Binimetinib.pdbqt.pdb
REMARK  6 active torsions:
REMARK  status: ('A' for Active; 'I' for Inactive)
REMARK    1  A    between atoms: C_6  and  N_21
REMARK    2  A    between atoms: C_7  and  C_14
REMARK    3  A    between atoms: N_13  and  O_16
REMARK    4  A    between atoms: O_16  and  C_17
REMARK    5  A    between atoms: C_18  and  O_19
REMARK    6  A    between atoms: N_21  and  C_25
REMARK                            x       y       z     vdW  Elec       q    Type
REMARK                         _______ _______ _______ _____ _____    ______ ____
ROOT
ATOM      1  F   UNL     1      20.979  -0.072  57.108  0.00  0.00    +0.000 F 
ATOM      2  N   UNL     1      21.644   3.162  54.021  0.00  0.00    +0.000 N 
ATOM      3  N   UNL     1      22.375   2.208  55.872  0.00  0.00    +0.000 NA
ATOM      4  C   UNL     1      20.762   2.146  54.253  0.00  0.00    +0.000 A 
ATOM      5  C   UNL     1      21.242   1.557  55.419  0.00  0.00    +0.000 A 
ATOM      6  C   UNL     1      19.396  -0.062  55.313  0.00  0.00    +0.000 A 
ATOM      7  C   UNL     1      18.939   0.585  54.134  0.00  0.00    +0.000 A 
ATOM      8  C   UNL     1      19.617   1.693  53.594  0.00  0.00    +0.000 A 
ATOM      9  C   UNL     1      20.551   0.450  55.948  0.00  0.00    +0.000 A 
ATOM     10  C   UNL     1      22.591   3.175  55.000  0.00  0.00    +0.000 A 
ATOM     11  C   UNL     1      21.599   4.062  52.916  0.00  0.00    +0.000 C 
ENDROOT
BRANCH   7  14
ATOM     12  O   UNL     1      17.654  -0.990  52.935  0.00  0.00    +0.000 OA
ATOM     13  N   UNL     1      16.653   1.036  53.383  0.00  0.00    +0.000 N 
ATOM     14  C   UNL     1      17.696   0.133  53.430  0.00  0.00    +0.000 C 
ATOM     15  H   UNL     1      16.805   2.034  53.459  0.00  0.00    +0.000 HD
BRANCH  13  16
ATOM     16  O   UNL     1      15.630   0.677  52.478  0.00  0.00    +0.000 OA
BRANCH  16  17
ATOM     17  C   UNL     1      14.619   0.227  53.218  0.00  0.00    +0.000 C 
ATOM     18  C   UNL     1      13.447  -0.293  54.058  0.00  0.00    +0.000 C 
BRANCH  18  19
ATOM     19  O   UNL     1      12.428  -0.746  54.780  0.00  0.00    +0.000 OA
ATOM     20  H   UNL     1      12.751  -1.130  55.613  0.00  0.00    +0.000 HD
ENDBRANCH  18  19
ENDBRANCH  16  17
ENDBRANCH  13  16
ENDBRANCH   7  14
BRANCH   6  21
ATOM     21  N   UNL     1      18.720  -1.205  55.812  0.00  0.00    +0.000 N 
ATOM     22  H   UNL     1      19.094  -2.092  55.440  0.00  0.00    +0.000 HD
BRANCH  21  25
ATOM     23 BR   UNL     1      15.371  -1.911  60.859  0.00  0.00    +0.000 Br
ATOM     24  F   UNL     1      15.968  -1.363  55.737  0.00  0.00    +0.000 F 
ATOM     25  C   UNL     1      17.979  -1.409  56.994  0.00  0.00    +0.000 A 
ATOM     26  C   UNL     1      16.576  -1.458  56.931  0.00  0.00    +0.000 A 
ATOM     27  C   UNL     1      18.567  -1.491  58.258  0.00  0.00    +0.000 A 
ATOM     28  C   UNL     1      15.790  -1.609  58.068  0.00  0.00    +0.000 A 
ATOM     29  C   UNL     1      17.797  -1.644  59.410  0.00  0.00    +0.000 A 
ATOM     30  C   UNL     1      16.413  -1.702  59.305  0.00  0.00    +0.000 A 
ENDBRANCH  21  25
ENDBRANCH   6  21
TORSDOF 6
ENDMDL
