MODEL 1
REMARK VINA RESULT:      -4.6      0.000      0.000
REMARK  Name = 10639_Physcion.pdbqt.pdb
REMARK  3 active torsions:
REMARK  status: ('A' for Active; 'I' for Inactive)
REMARK    1  A    between atoms: C_10  and  O_18
REMARK    2  A    between atoms: C_12  and  O_20
REMARK    3  A    between atoms: C_15  and  O_22
REMARK                            x       y       z     vdW  Elec       q    Type
REMARK                         _______ _______ _______ _____ _____    ______ ____
ROOT
ATOM      1  O   UNL     1      15.752   2.448  51.831  0.00  0.00    +0.000 OA
ATOM      2  O   UNL     1      19.488   0.248  54.926  0.00  0.00    +0.000 OA
ATOM      3  C   UNL     1      18.927   1.901  53.371  0.00  0.00    +0.000 A 
ATOM      4  C   UNL     1      17.945   2.469  52.565  0.00  0.00    +0.000 A 
ATOM      5  C   UNL     1      16.256   0.736  53.414  0.00  0.00    +0.000 A 
ATOM      6  C   UNL     1      17.261   0.186  54.212  0.00  0.00    +0.000 A 
ATOM      7  C   UNL     1      16.577   1.907  52.559  0.00  0.00    +0.000 C 
ATOM      8  C   UNL     1      18.622   0.744  54.220  0.00  0.00    +0.000 C 
ATOM      9  C   UNL     1      20.224   2.419  53.390  0.00  0.00    +0.000 A 
ATOM     10  C   UNL     1      18.281   3.574  51.770  0.00  0.00    +0.000 A 
ATOM     11  C   UNL     1      20.542   3.515  52.595  0.00  0.00    +0.000 A 
ATOM     12  C   UNL     1      14.983   0.153  53.458  0.00  0.00    +0.000 A 
ATOM     13  C   UNL     1      17.007  -0.917  55.034  0.00  0.00    +0.000 A 
ATOM     14  C   UNL     1      19.574   4.097  51.783  0.00  0.00    +0.000 A 
ATOM     15  C   UNL     1      15.740  -1.491  55.072  0.00  0.00    +0.000 A 
ATOM     16  C   UNL     1      14.731  -0.948  54.279  0.00  0.00    +0.000 A 
ATOM     17  C   UNL     1      21.935   4.069  52.617  0.00  0.00    +0.000 C 
ENDROOT
BRANCH  10  18
ATOM     18  O   UNL     1      17.385   4.200  50.946  0.00  0.00    +0.000 OA
ATOM     19  H   UNL     1      17.819   4.989  50.544  0.00  0.00    +0.000 HD
ENDBRANCH  10  18
BRANCH  12  20
ATOM     20  O   UNL     1      13.951   0.635  52.706  0.00  0.00    +0.000 OA
ATOM     21  H   UNL     1      13.102   0.323  53.067  0.00  0.00    +0.000 HD
ENDBRANCH  12  20
BRANCH  15  22
ATOM     22  O   UNL     1      15.593  -2.568  55.910  0.00  0.00    +0.000 OA
ATOM     23  C   UNL     1      15.796  -2.294  57.270  0.00  0.00    +0.000 C 
ENDBRANCH  15  22
TORSDOF 3
ENDMDL
MODEL 2
REMARK VINA RESULT:      -4.5      1.872      4.330
REMARK  Name = 10639_Physcion.pdbqt.pdb
REMARK  3 active torsions:
REMARK  status: ('A' for Active; 'I' for Inactive)
REMARK    1  A    between atoms: C_10  and  O_18
REMARK    2  A    between atoms: C_12  and  O_20
REMARK    3  A    between atoms: C_15  and  O_22
REMARK                            x       y       z     vdW  Elec       q    Type
REMARK                         _______ _______ _______ _____ _____    ______ ____
ROOT
ATOM      1  O   UNL     1      17.694  -0.747  55.748  0.00  0.00    +0.000 OA
ATOM      2  O   UNL     1      18.998   2.868  52.058  0.00  0.00    +0.000 OA
ATOM      3  C   UNL     1      19.615   1.691  53.981  0.00  0.00    +0.000 A 
ATOM      4  C   UNL     1      19.266   0.746  54.942  0.00  0.00    +0.000 A 
ATOM      5  C   UNL     1      17.000   0.420  53.786  0.00  0.00    +0.000 A 
ATOM      6  C   UNL     1      17.377   1.372  52.837  0.00  0.00    +0.000 A 
ATOM      7  C   UNL     1      17.948   0.078  54.878  0.00  0.00    +0.000 C 
ATOM      8  C   UNL     1      18.687   2.037  52.899  0.00  0.00    +0.000 C 
ATOM      9  C   UNL     1      20.856   2.332  54.027  0.00  0.00    +0.000 A 
ATOM     10  C   UNL     1      20.184   0.446  55.958  0.00  0.00    +0.000 A 
ATOM     11  C   UNL     1      21.755   2.024  55.042  0.00  0.00    +0.000 A 
ATOM     12  C   UNL     1      15.737  -0.173  53.664  0.00  0.00    +0.000 A 
ATOM     13  C   UNL     1      16.518   1.727  51.791  0.00  0.00    +0.000 A 
ATOM     14  C   UNL     1      21.425   1.082  56.010  0.00  0.00    +0.000 A 
ATOM     15  C   UNL     1      15.265   1.134  51.676  0.00  0.00    +0.000 A 
ATOM     16  C   UNL     1      14.881   0.183  52.619  0.00  0.00    +0.000 A 
ATOM     17  C   UNL     1      23.086   2.713  55.088  0.00  0.00    +0.000 C 
ENDROOT
BRANCH  10  18
ATOM     18  O   UNL     1      19.932  -0.468  56.946  0.00  0.00    +0.000 OA
ATOM     19  H   UNL     1      20.723  -0.531  57.532  0.00  0.00    +0.000 HD
ENDBRANCH  10  18
BRANCH  12  20
ATOM     20  O   UNL     1      15.300  -1.111  54.553  0.00  0.00    +0.000 OA
ATOM     21  H   UNL     1      15.565  -0.862  55.457  0.00  0.00    +0.000 HD
ENDBRANCH  12  20
BRANCH  15  22
ATOM     22  O   UNL     1      14.499   1.550  50.616  0.00  0.00    +0.000 OA
ATOM     23  C   UNL     1      14.886   2.771  50.047  0.00  0.00    +0.000 C 
ENDBRANCH  15  22
TORSDOF 3
ENDMDL
MODEL 3
REMARK VINA RESULT:      -4.4      1.551      5.724
REMARK  Name = 10639_Physcion.pdbqt.pdb
REMARK  3 active torsions:
REMARK  status: ('A' for Active; 'I' for Inactive)
REMARK    1  A    between atoms: C_10  and  O_18
REMARK    2  A    between atoms: C_12  and  O_20
REMARK    3  A    between atoms: C_15  and  O_22
REMARK                            x       y       z     vdW  Elec       q    Type
REMARK                         _______ _______ _______ _____ _____    ______ ____
ROOT
ATOM      1  O   UNL     1      17.388   3.490  51.494  0.00  0.00    +0.000 OA
ATOM      2  O   UNL     1      19.425   0.148  55.109  0.00  0.00    +0.000 OA
ATOM      3  C   UNL     1      17.575   0.801  53.837  0.00  0.00    +0.000 A 
ATOM      4  C   UNL     1      17.051   1.679  52.892  0.00  0.00    +0.000 A 
ATOM      5  C   UNL     1      19.314   2.878  52.763  0.00  0.00    +0.000 A 
ATOM      6  C   UNL     1      19.813   1.984  53.711  0.00  0.00    +0.000 A 
ATOM      7  C   UNL     1      17.901   2.747  52.323  0.00  0.00    +0.000 C 
ATOM      8  C   UNL     1      18.969   0.922  54.278  0.00  0.00    +0.000 C 
ATOM      9  C   UNL     1      16.787  -0.214  54.385  0.00  0.00    +0.000 A 
ATOM     10  C   UNL     1      15.714   1.526  52.499  0.00  0.00    +0.000 A 
ATOM     11  C   UNL     1      15.463  -0.351  53.985  0.00  0.00    +0.000 A 
ATOM     12  C   UNL     1      20.175   3.865  52.266  0.00  0.00    +0.000 A 
ATOM     13  C   UNL     1      21.136   2.069  54.156  0.00  0.00    +0.000 A 
ATOM     14  C   UNL     1      14.920   0.515  53.042  0.00  0.00    +0.000 A 
ATOM     15  C   UNL     1      21.986   3.052  53.658  0.00  0.00    +0.000 A 
ATOM     16  C   UNL     1      21.496   3.948  52.711  0.00  0.00    +0.000 A 
ATOM     17  C   UNL     1      14.618  -1.441  54.575  0.00  0.00    +0.000 C 
ENDROOT
BRANCH  10  18
ATOM     18  O   UNL     1      15.110   2.339  51.578  0.00  0.00    +0.000 OA
ATOM     19  H   UNL     1      14.134   2.310  51.718  0.00  0.00    +0.000 HD
ENDBRANCH  10  18
BRANCH  12  20
ATOM     20  O   UNL     1      19.759   4.774  51.337  0.00  0.00    +0.000 OA
ATOM     21  H   UNL     1      19.956   5.677  51.643  0.00  0.00    +0.000 HD
ENDBRANCH  12  20
BRANCH  15  22
ATOM     22  O   UNL     1      23.264   3.050  54.158  0.00  0.00    +0.000 OA
ATOM     23  C   UNL     1      23.412   3.656  55.414  0.00  0.00    +0.000 C 
ENDBRANCH  15  22
TORSDOF 3
ENDMDL
MODEL 4
REMARK VINA RESULT:      -4.2      1.827      3.035
REMARK  Name = 10639_Physcion.pdbqt.pdb
REMARK  3 active torsions:
REMARK  status: ('A' for Active; 'I' for Inactive)
REMARK    1  A    between atoms: C_10  and  O_18
REMARK    2  A    between atoms: C_12  and  O_20
REMARK    3  A    between atoms: C_15  and  O_22
REMARK                            x       y       z     vdW  Elec       q    Type
REMARK                         _______ _______ _______ _____ _____    ______ ____
ROOT
ATOM      1  O   UNL     1      17.766   2.949  51.060  0.00  0.00    +0.000 OA
ATOM      2  O   UNL     1      16.830  -0.667  54.859  0.00  0.00    +0.000 OA
ATOM      3  C   UNL     1      18.289   0.916  53.950  0.00  0.00    +0.000 A 
ATOM      4  C   UNL     1      18.526   1.859  52.953  0.00  0.00    +0.000 A 
ATOM      5  C   UNL     1      16.229   1.347  51.934  0.00  0.00    +0.000 A 
ATOM      6  C   UNL     1      16.019   0.408  52.945  0.00  0.00    +0.000 A 
ATOM      7  C   UNL     1      17.505   2.107  51.912  0.00  0.00    +0.000 C 
ATOM      8  C   UNL     1      17.033   0.160  53.981  0.00  0.00    +0.000 C 
ATOM      9  C   UNL     1      19.243   0.670  54.941  0.00  0.00    +0.000 A 
ATOM     10  C   UNL     1      19.741   2.559  52.961  0.00  0.00    +0.000 A 
ATOM     11  C   UNL     1      20.443   1.372  54.935  0.00  0.00    +0.000 A 
ATOM     12  C   UNL     1      15.219   1.530  50.981  0.00  0.00    +0.000 A 
ATOM     13  C   UNL     1      14.833  -0.332  53.008  0.00  0.00    +0.000 A 
ATOM     14  C   UNL     1      20.697   2.318  53.948  0.00  0.00    +0.000 A 
ATOM     15  C   UNL     1      13.835  -0.145  52.057  0.00  0.00    +0.000 A 
ATOM     16  C   UNL     1      14.036   0.791  51.045  0.00  0.00    +0.000 A 
ATOM     17  C   UNL     1      21.464   1.105  56.000  0.00  0.00    +0.000 C 
ENDROOT
BRANCH  10  18
ATOM     18  O   UNL     1      20.064   3.504  52.025  0.00  0.00    +0.000 OA
ATOM     19  H   UNL     1      19.289   3.643  51.432  0.00  0.00    +0.000 HD
ENDBRANCH  10  18
BRANCH  12  20
ATOM     20  O   UNL     1      15.353   2.430  49.964  0.00  0.00    +0.000 OA
ATOM     21  H   UNL     1      14.617   2.331  49.333  0.00  0.00    +0.000 HD
ENDBRANCH  12  20
BRANCH  15  22
ATOM     22  O   UNL     1      12.711  -0.918  52.206  0.00  0.00    +0.000 OA
ATOM     23  C   UNL     1      12.605  -1.580  53.437  0.00  0.00    +0.000 C 
ENDBRANCH  15  22
TORSDOF 3
ENDMDL
MODEL 5
REMARK VINA RESULT:      -4.1      1.884      6.823
REMARK  Name = 10639_Physcion.pdbqt.pdb
REMARK  3 active torsions:
REMARK  status: ('A' for Active; 'I' for Inactive)
REMARK    1  A    between atoms: C_10  and  O_18
REMARK    2  A    between atoms: C_12  and  O_20
REMARK    3  A    between atoms: C_15  and  O_22
REMARK                            x       y       z     vdW  Elec       q    Type
REMARK                         _______ _______ _______ _____ _____    ______ ____
ROOT
ATOM      1  O   UNL     1      20.742   0.145  56.838  0.00  0.00    +0.000 OA
ATOM      2  O   UNL     1      16.655   0.349  53.426  0.00  0.00    +0.000 OA
ATOM      3  C   UNL     1      17.570  -0.581  55.366  0.00  0.00    +0.000 A 
ATOM      4  C   UNL     1      18.643  -0.628  56.252  0.00  0.00    +0.000 A 
ATOM      5  C   UNL     1      19.868   1.135  54.850  0.00  0.00    +0.000 A 
ATOM      6  C   UNL     1      18.779   1.161  53.979  0.00  0.00    +0.000 A 
ATOM      7  C   UNL     1      19.828   0.227  56.026  0.00  0.00    +0.000 C 
ATOM      8  C   UNL     1      17.600   0.312  54.202  0.00  0.00    +0.000 C 
ATOM      9  C   UNL     1      16.443  -1.382  55.565  0.00  0.00    +0.000 A 
ATOM     10  C   UNL     1      18.572  -1.496  57.351  0.00  0.00    +0.000 A 
ATOM     11  C   UNL     1      16.388  -2.238  56.659  0.00  0.00    +0.000 A 
ATOM     12  C   UNL     1      20.957   1.972  54.575  0.00  0.00    +0.000 A 
ATOM     13  C   UNL     1      18.771   2.000  52.859  0.00  0.00    +0.000 A 
ATOM     14  C   UNL     1      17.449  -2.299  57.556  0.00  0.00    +0.000 A 
ATOM     15  C   UNL     1      19.857   2.829  52.591  0.00  0.00    +0.000 A 
ATOM     16  C   UNL     1      20.948   2.809  53.456  0.00  0.00    +0.000 A 
ATOM     17  C   UNL     1      15.177  -3.096  56.870  0.00  0.00    +0.000 C 
ENDROOT
BRANCH  10  18
ATOM     18  O   UNL     1      19.575  -1.613  58.276  0.00  0.00    +0.000 OA
ATOM     19  H   UNL     1      19.229  -1.335  59.157  0.00  0.00    +0.000 HD
ENDBRANCH  10  18
BRANCH  12  20
ATOM     20  O   UNL     1      22.058   2.001  55.382  0.00  0.00    +0.000 OA
ATOM     21  H   UNL     1      22.505   2.863  55.304  0.00  0.00    +0.000 HD
ENDBRANCH  12  20
BRANCH  15  22
ATOM     22  O   UNL     1      19.752   3.612  51.469  0.00  0.00    +0.000 OA
ATOM     23  C   UNL     1      18.527   4.278  51.322  0.00  0.00    +0.000 C 
ENDBRANCH  15  22
TORSDOF 3
ENDMDL
MODEL 6
REMARK VINA RESULT:      -4.1      2.004      6.671
REMARK  Name = 10639_Physcion.pdbqt.pdb
REMARK  3 active torsions:
REMARK  status: ('A' for Active; 'I' for Inactive)
REMARK    1  A    between atoms: C_10  and  O_18
REMARK    2  A    between atoms: C_12  and  O_20
REMARK    3  A    between atoms: C_15  and  O_22
REMARK                            x       y       z     vdW  Elec       q    Type
REMARK                         _______ _______ _______ _____ _____    ______ ____
ROOT
ATOM      1  O   UNL     1      21.509   1.784  55.330  0.00  0.00    +0.000 OA
ATOM      2  O   UNL     1      17.043   1.378  52.455  0.00  0.00    +0.000 OA
ATOM      3  C   UNL     1      18.286   0.648  54.295  0.00  0.00    +0.000 A 
ATOM      4  C   UNL     1      19.457   0.761  55.041  0.00  0.00    +0.000 A 
ATOM      5  C   UNL     1      20.295   2.576  53.435  0.00  0.00    +0.000 A 
ATOM      6  C   UNL     1      19.112   2.441  52.707  0.00  0.00    +0.000 A 
ATOM      7  C   UNL     1      20.501   1.727  54.637  0.00  0.00    +0.000 C 
ATOM      8  C   UNL     1      18.073   1.481  53.107  0.00  0.00    +0.000 C 
ATOM      9  C   UNL     1      17.290  -0.260  54.662  0.00  0.00    +0.000 A 
ATOM     10  C   UNL     1      19.618  -0.055  56.169  0.00  0.00    +0.000 A 
ATOM     11  C   UNL     1      17.465  -1.062  55.784  0.00  0.00    +0.000 A 
ATOM     12  C   UNL     1      21.240   3.511  52.995  0.00  0.00    +0.000 A 
ATOM     13  C   UNL     1      18.874   3.219  51.568  0.00  0.00    +0.000 A 
ATOM     14  C   UNL     1      18.627  -0.964  56.542  0.00  0.00    +0.000 A 
ATOM     15  C   UNL     1      19.817   4.146  51.137  0.00  0.00    +0.000 A 
ATOM     16  C   UNL     1      21.001   4.286  51.858  0.00  0.00    +0.000 A 
ATOM     17  C   UNL     1      16.394  -2.035  56.176  0.00  0.00    +0.000 C 
ENDROOT
BRANCH  10  18
ATOM     18  O   UNL     1      20.732  -0.017  56.964  0.00  0.00    +0.000 OA
ATOM     19  H   UNL     1      21.050  -0.939  57.112  0.00  0.00    +0.000 HD
ENDBRANCH  10  18
BRANCH  12  20
ATOM     20  O   UNL     1      22.420   3.698  53.656  0.00  0.00    +0.000 OA
ATOM     21  H   UNL     1      23.156   3.336  53.131  0.00  0.00    +0.000 HD
ENDBRANCH  12  20
BRANCH  15  22
ATOM     22  O   UNL     1      19.489   4.858  50.011  0.00  0.00    +0.000 OA
ATOM     23  C   UNL     1      18.114   5.018  49.789  0.00  0.00    +0.000 C 
ENDBRANCH  15  22
TORSDOF 3
ENDMDL
MODEL 7
REMARK VINA RESULT:      -4.0     22.260     24.270
REMARK  Name = 10639_Physcion.pdbqt.pdb
REMARK  3 active torsions:
REMARK  status: ('A' for Active; 'I' for Inactive)
REMARK    1  A    between atoms: C_10  and  O_18
REMARK    2  A    between atoms: C_12  and  O_20
REMARK    3  A    between atoms: C_15  and  O_22
REMARK                            x       y       z     vdW  Elec       q    Type
REMARK                         _______ _______ _______ _____ _____    ______ ____
ROOT
ATOM      1  O   UNL     1       7.452   2.646  77.590  0.00  0.00    +0.000 OA
ATOM      2  O   UNL     1      10.655  -0.295  74.513  0.00  0.00    +0.000 OA
ATOM      3  C   UNL     1      10.266   1.745  75.585  0.00  0.00    +0.000 A 
ATOM      4  C   UNL     1       9.423   2.507  76.390  0.00  0.00    +0.000 A 
ATOM      5  C   UNL     1       7.784   0.539  76.522  0.00  0.00    +0.000 A 
ATOM      6  C   UNL     1       8.649  -0.201  75.714  0.00  0.00    +0.000 A 
ATOM      7  C   UNL     1       8.154   1.931  76.885  0.00  0.00    +0.000 C 
ATOM      8  C   UNL     1       9.910   0.370  75.220  0.00  0.00    +0.000 C 
ATOM      9  C   UNL     1      11.468   2.273  75.108  0.00  0.00    +0.000 A 
ATOM     10  C   UNL     1       9.802   3.817  76.714  0.00  0.00    +0.000 A 
ATOM     11  C   UNL     1      11.830   3.574  75.438  0.00  0.00    +0.000 A 
ATOM     12  C   UNL     1       6.599  -0.070  76.956  0.00  0.00    +0.000 A 
ATOM     13  C   UNL     1       8.343  -1.516  75.346  0.00  0.00    +0.000 A 
ATOM     14  C   UNL     1      11.002   4.351  76.241  0.00  0.00    +0.000 A 
ATOM     15  C   UNL     1       7.164  -2.114  75.780  0.00  0.00    +0.000 A 
ATOM     16  C   UNL     1       6.296  -1.382  76.587  0.00  0.00    +0.000 A 
ATOM     17  C   UNL     1      13.121   4.139  74.925  0.00  0.00    +0.000 C 
ENDROOT
BRANCH  10  18
ATOM     18  O   UNL     1       9.041   4.643  77.497  0.00  0.00    +0.000 OA
ATOM     19  H   UNL     1       8.376   4.099  77.981  0.00  0.00    +0.000 HD
ENDBRANCH  10  18
BRANCH  12  20
ATOM     20  O   UNL     1       5.706   0.592  77.747  0.00  0.00    +0.000 OA
ATOM     21  H   UNL     1       6.009   0.581  78.673  0.00  0.00    +0.000 HD
ENDBRANCH  12  20
BRANCH  15  22
ATOM     22  O   UNL     1       6.957  -3.405  75.364  0.00  0.00    +0.000 OA
ATOM     23  C   UNL     1       5.862  -4.051  75.955  0.00  0.00    +0.000 C 
ENDBRANCH  15  22
TORSDOF 3
ENDMDL
MODEL 8
REMARK VINA RESULT:      -4.0     21.511     24.785
REMARK  Name = 10639_Physcion.pdbqt.pdb
REMARK  3 active torsions:
REMARK  status: ('A' for Active; 'I' for Inactive)
REMARK    1  A    between atoms: C_10  and  O_18
REMARK    2  A    between atoms: C_12  and  O_20
REMARK    3  A    between atoms: C_15  and  O_22
REMARK                            x       y       z     vdW  Elec       q    Type
REMARK                         _______ _______ _______ _____ _____    ______ ____
ROOT
ATOM      1  O   UNL     1       8.232   0.116  75.950  0.00  0.00    +0.000 OA
ATOM      2  O   UNL     1      10.283   4.958  76.803  0.00  0.00    +0.000 OA
ATOM      3  C   UNL     1      10.535   2.843  75.840  0.00  0.00    +0.000 A 
ATOM      4  C   UNL     1       9.992   1.580  75.623  0.00  0.00    +0.000 A 
ATOM      5  C   UNL     1       7.910   2.254  76.960  0.00  0.00    +0.000 A 
ATOM      6  C   UNL     1       8.479   3.512  77.162  0.00  0.00    +0.000 A 
ATOM      7  C   UNL     1       8.662   1.241  76.174  0.00  0.00    +0.000 C 
ATOM      8  C   UNL     1       9.801   3.850  76.615  0.00  0.00    +0.000 C 
ATOM      9  C   UNL     1      11.790   3.179  75.327  0.00  0.00    +0.000 A 
ATOM     10  C   UNL     1      10.728   0.648  74.877  0.00  0.00    +0.000 A 
ATOM     11  C   UNL     1      12.508   2.244  74.589  0.00  0.00    +0.000 A 
ATOM     12  C   UNL     1       6.647   2.002  77.511  0.00  0.00    +0.000 A 
ATOM     13  C   UNL     1       7.809   4.497  77.895  0.00  0.00    +0.000 A 
ATOM     14  C   UNL     1      11.982   0.977  74.361  0.00  0.00    +0.000 A 
ATOM     15  C   UNL     1       6.555   4.240  78.440  0.00  0.00    +0.000 A 
ATOM     16  C   UNL     1       5.979   2.987  78.242  0.00  0.00    +0.000 A 
ATOM     17  C   UNL     1      13.854   2.607  74.039  0.00  0.00    +0.000 C 
ENDROOT
BRANCH  10  18
ATOM     18  O   UNL     1      10.278  -0.617  74.610  0.00  0.00    +0.000 OA
ATOM     19  H   UNL     1      11.046  -1.236  74.611  0.00  0.00    +0.000 HD
ENDBRANCH  10  18
BRANCH  12  20
ATOM     20  O   UNL     1       6.027   0.796  77.354  0.00  0.00    +0.000 OA
ATOM     21  H   UNL     1       5.163   0.805  77.804  0.00  0.00    +0.000 HD
ENDBRANCH  12  20
BRANCH  15  22
ATOM     22  O   UNL     1       5.982   5.271  79.141  0.00  0.00    +0.000 OA
ATOM     23  C   UNL     1       5.347   6.243  78.355  0.00  0.00    +0.000 C 
ENDBRANCH  15  22
TORSDOF 3
ENDMDL
MODEL 9
REMARK VINA RESULT:      -4.0      9.785     10.787
REMARK  Name = 10639_Physcion.pdbqt.pdb
REMARK  3 active torsions:
REMARK  status: ('A' for Active; 'I' for Inactive)
REMARK    1  A    between atoms: C_10  and  O_18
REMARK    2  A    between atoms: C_12  and  O_20
REMARK    3  A    between atoms: C_15  and  O_22
REMARK                            x       y       z     vdW  Elec       q    Type
REMARK                         _______ _______ _______ _____ _____    ______ ____
ROOT
ATOM      1  O   UNL     1      17.475  10.303  57.429  0.00  0.00    +0.000 OA
ATOM      2  O   UNL     1      20.752   8.597  61.267  0.00  0.00    +0.000 OA
ATOM      3  C   UNL     1      20.337   8.833  58.979  0.00  0.00    +0.000 A 
ATOM      4  C   UNL     1      19.474   9.281  57.982  0.00  0.00    +0.000 A 
ATOM      5  C   UNL     1      17.834  10.093  59.778  0.00  0.00    +0.000 A 
ATOM      6  C   UNL     1      18.718   9.634  60.756  0.00  0.00    +0.000 A 
ATOM      7  C   UNL     1      18.195   9.926  58.346  0.00  0.00    +0.000 C 
ATOM      8  C   UNL     1      19.991   8.993  60.395  0.00  0.00    +0.000 C 
ATOM      9  C   UNL     1      21.550   8.221  58.652  0.00  0.00    +0.000 A 
ATOM     10  C   UNL     1      19.845   9.108  56.641  0.00  0.00    +0.000 A 
ATOM     11  C   UNL     1      21.903   8.057  57.317  0.00  0.00    +0.000 A 
ATOM     12  C   UNL     1      16.640  10.695  60.195  0.00  0.00    +0.000 A 
ATOM     13  C   UNL     1      18.422   9.769  62.116  0.00  0.00    +0.000 A 
ATOM     14  C   UNL     1      21.055   8.498  56.307  0.00  0.00    +0.000 A 
ATOM     15  C   UNL     1      17.234  10.368  62.524  0.00  0.00    +0.000 A 
ATOM     16  C   UNL     1      16.346  10.829  61.554  0.00  0.00    +0.000 A 
ATOM     17  C   UNL     1      23.205   7.400  56.970  0.00  0.00    +0.000 C 
ENDROOT
BRANCH  10  18
ATOM     18  O   UNL     1      19.065   9.515  55.592  0.00  0.00    +0.000 OA
ATOM     19  H   UNL     1      19.643   9.685  54.812  0.00  0.00    +0.000 HD
ENDBRANCH  10  18
BRANCH  12  20
ATOM     20  O   UNL     1      15.727  11.167  59.298  0.00  0.00    +0.000 OA
ATOM     21  H   UNL     1      15.314  11.980  59.640  0.00  0.00    +0.000 HD
ENDBRANCH  12  20
BRANCH  15  22
ATOM     22  O   UNL     1      17.038  10.452  63.879  0.00  0.00    +0.000 OA
ATOM     23  C   UNL     1      17.883   9.645  64.653  0.00  0.00    +0.000 C 
ENDBRANCH  15  22
TORSDOF 3
ENDMDL
