MODEL 1
REMARK VINA RESULT:      -4.6      0.000      0.000
REMARK  Name = 10940649_MilnamideD.pdbqt.pdb
REMARK  7 active torsions:
REMARK  status: ('A' for Active; 'I' for Inactive)
REMARK    1  A    between atoms: C_3  and  C_8
REMARK    2  A    between atoms: C_22  and  C_25
REMARK    3  A    between atoms: C_22  and  C_38
REMARK    4  A    between atoms: N_24  and  C_27
REMARK    5  A    between atoms: C_27  and  C_28
REMARK    6  A    between atoms: C_32  and  C_35
REMARK    7  A    between atoms: C_35  and  O_36
REMARK                            x       y       z     vdW  Elec       q    Type
REMARK                         _______ _______ _______ _____ _____    ______ ____
ROOT
ATOM      1  O   UNL     1      15.449   5.714  71.363  0.00  0.00    +0.000 OA
ATOM      2  N   UNL     1      16.804   4.713  72.885  0.00  0.00    +0.000 N 
ATOM      3  C   UNL     1      15.574   5.171  72.454  0.00  0.00    +0.000 C 
ATOM      4  H   UNL     1      16.885   4.358  73.845  0.00  0.00    +0.000 HD
ATOM      5  C   UNL     1      18.001   4.759  72.128  0.00  0.00    +0.000 C 
ENDROOT
BRANCH   3   9
ATOM      6  N   UNL     1      14.056   6.021  74.351  0.00  0.00    +0.000 NA
ATOM      7  N   UNL     1      11.140   3.951  75.962  0.00  0.00    +0.000 N 
ATOM      8  C   UNL     1      13.876   3.510  73.463  0.00  0.00    +0.000 C 
ATOM      9  C   UNL     1      14.421   4.967  73.390  0.00  0.00    +0.000 C 
ATOM     10  C   UNL     1      12.648   3.341  74.413  0.00  0.00    +0.000 A 
ATOM     11  C   UNL     1      12.202   4.358  75.233  0.00  0.00    +0.000 A 
ATOM     12  C   UNL     1      14.958   2.571  74.075  0.00  0.00    +0.000 C 
ATOM     13  C   UNL     1      13.353   3.077  72.063  0.00  0.00    +0.000 C 
ATOM     14  C   UNL     1      11.779   2.226  74.693  0.00  0.00    +0.000 A 
ATOM     15  C   UNL     1      12.936   5.542  75.119  0.00  0.00    +0.000 C 
ATOM     16  C   UNL     1      10.845   2.642  75.663  0.00  0.00    +0.000 A 
ATOM     17  C   UNL     1      13.627   7.230  73.665  0.00  0.00    +0.000 C 
ATOM     18  C   UNL     1      11.706   0.903  74.213  0.00  0.00    +0.000 A 
ATOM     19  C   UNL     1      10.455   4.764  76.909  0.00  0.00    +0.000 C 
ATOM     20  C   UNL     1       9.850   1.784  76.156  0.00  0.00    +0.000 A 
ATOM     21  C   UNL     1      10.719   0.046  74.701  0.00  0.00    +0.000 A 
ATOM     22  C   UNL     1       9.807   0.482  75.654  0.00  0.00    +0.000 A 
ENDBRANCH   3   9
BRANCH   5  25
ATOM     23  O   UNL     1      17.695   4.291  69.869  0.00  0.00    +0.000 OA
ATOM     24  N   UNL     1      18.171   6.532  70.448  0.00  0.00    +0.000 N 
ATOM     25  C   UNL     1      17.964   5.154  70.700  0.00  0.00    +0.000 C 
ATOM     26  C   UNL     1      18.533   7.515  71.475  0.00  0.00    +0.000 C 
BRANCH  24  27
ATOM     27  C   UNL     1      18.010   7.051  69.152  0.00  0.00    +0.000 C 
ATOM     28  C   UNL     1      16.915   7.924  68.830  0.00  0.00    +0.000 C 
ATOM     29  C   UNL     1      15.925   8.715  68.532  0.00  0.00    +0.000 C 
ATOM     30  C   UNL     1      16.309  10.143  68.209  0.00  0.00    +0.000 C 
BRANCH  27  31
ATOM     31  C   UNL     1      18.954   6.751  68.085  0.00  0.00    +0.000 C 
ATOM     32  C   UNL     1      20.423   6.544  68.395  0.00  0.00    +0.000 C 
ATOM     33  C   UNL     1      18.465   6.052  66.830  0.00  0.00    +0.000 C 
ENDBRANCH  27  31
BRANCH  29  35
ATOM     34  O   UNL     1      13.783   8.184  67.557  0.00  0.00    +0.000 OA
ATOM     35  C   UNL     1      14.533   8.189  68.523  0.00  0.00    +0.000 C 
BRANCH  35  36
ATOM     36  O   UNL     1      14.113   7.692  69.706  0.00  0.00    +0.000 OA
ATOM     37  H   UNL     1      13.842   6.770  69.517  0.00  0.00    +0.000 HD
ENDBRANCH  35  36
ENDBRANCH  29  35
ENDBRANCH  24  27
ENDBRANCH   5  25
BRANCH   5  38
ATOM     38  C   UNL     1      19.324   4.176  72.598  0.00  0.00    +0.000 C 
ATOM     39  C   UNL     1      19.652   4.853  73.967  0.00  0.00    +0.000 C 
ATOM     40  C   UNL     1      19.113   2.655  72.844  0.00  0.00    +0.000 C 
ATOM     41  C   UNL     1      20.495   4.427  71.616  0.00  0.00    +0.000 C 
ENDBRANCH   5  38
TORSDOF 7
ENDMDL
MODEL 2
REMARK VINA RESULT:      -4.2     13.828     17.418
REMARK  Name = 10940649_MilnamideD.pdbqt.pdb
REMARK  7 active torsions:
REMARK  status: ('A' for Active; 'I' for Inactive)
REMARK    1  A    between atoms: C_3  and  C_8
REMARK    2  A    between atoms: C_22  and  C_25
REMARK    3  A    between atoms: C_22  and  C_38
REMARK    4  A    between atoms: N_24  and  C_27
REMARK    5  A    between atoms: C_27  and  C_28
REMARK    6  A    between atoms: C_32  and  C_35
REMARK    7  A    between atoms: C_35  and  O_36
REMARK                            x       y       z     vdW  Elec       q    Type
REMARK                         _______ _______ _______ _____ _____    ______ ____
ROOT
ATOM      1  O   UNL     1       1.180   5.441  65.072  0.00  0.00    +0.000 OA
ATOM      2  N   UNL     1       2.114   3.421  64.621  0.00  0.00    +0.000 N 
ATOM      3  C   UNL     1       1.782   4.719  64.285  0.00  0.00    +0.000 C 
ATOM      4  H   UNL     1       2.525   2.819  63.899  0.00  0.00    +0.000 HD
ATOM      5  C   UNL     1       1.864   2.816  65.877  0.00  0.00    +0.000 C 
ENDROOT
BRANCH   3   9
ATOM      6  N   UNL     1       1.405   4.795  61.740  0.00  0.00    +0.000 NA
ATOM      7  N   UNL     1       3.771   6.614  59.195  0.00  0.00    +0.000 N 
ATOM      8  C   UNL     1       3.619   5.808  62.836  0.00  0.00    +0.000 C 
ATOM      9  C   UNL     1       2.195   5.182  62.921  0.00  0.00    +0.000 C 
ATOM     10  C   UNL     1       4.000   6.320  61.411  0.00  0.00    +0.000 A 
ATOM     11  C   UNL     1       3.211   6.083  60.304  0.00  0.00    +0.000 A 
ATOM     12  C   UNL     1       4.692   4.724  63.148  0.00  0.00    +0.000 C 
ATOM     13  C   UNL     1       3.686   7.074  63.739  0.00  0.00    +0.000 C 
ATOM     14  C   UNL     1       5.138   7.047  60.909  0.00  0.00    +0.000 A 
ATOM     15  C   UNL     1       2.044   5.364  60.582  0.00  0.00    +0.000 C 
ATOM     16  C   UNL     1       4.962   7.218  59.522  0.00  0.00    +0.000 A 
ATOM     17  C   UNL     1       0.059   5.343  61.807  0.00  0.00    +0.000 C 
ATOM     18  C   UNL     1       6.302   7.570  61.508  0.00  0.00    +0.000 A 
ATOM     19  C   UNL     1       3.207   6.534  57.891  0.00  0.00    +0.000 C 
ATOM     20  C   UNL     1       5.903   7.893  58.728  0.00  0.00    +0.000 A 
ATOM     21  C   UNL     1       7.240   8.241  60.723  0.00  0.00    +0.000 A 
ATOM     22  C   UNL     1       7.040   8.400  59.358  0.00  0.00    +0.000 A 
ENDBRANCH   3   9
BRANCH   5  25
ATOM     23  O   UNL     1       2.201   4.240  67.687  0.00  0.00    +0.000 OA
ATOM     24  N   UNL     1      -0.034   3.687  67.154  0.00  0.00    +0.000 N 
ATOM     25  C   UNL     1       1.374   3.632  67.013  0.00  0.00    +0.000 C 
ATOM     26  C   UNL     1      -0.978   2.906  66.347  0.00  0.00    +0.000 C 
BRANCH  24  27
ATOM     27  C   UNL     1      -0.623   4.548  68.098  0.00  0.00    +0.000 C 
ATOM     28  C   UNL     1      -0.361   5.960  68.082  0.00  0.00    +0.000 C 
ATOM     29  C   UNL     1      -0.128   7.241  68.075  0.00  0.00    +0.000 C 
ATOM     30  C   UNL     1      -1.309   8.114  67.707  0.00  0.00    +0.000 C 
BRANCH  27  31
ATOM     31  C   UNL     1      -1.540   4.053  69.114  0.00  0.00    +0.000 C 
ATOM     32  C   UNL     1      -1.116   2.948  70.061  0.00  0.00    +0.000 C 
ATOM     33  C   UNL     1      -2.622   4.971  69.654  0.00  0.00    +0.000 C 
ENDBRANCH  27  31
BRANCH  29  35
ATOM     34  O   UNL     1       1.475   8.585  69.274  0.00  0.00    +0.000 OA
ATOM     35  C   UNL     1       1.228   7.749  68.417  0.00  0.00    +0.000 C 
BRANCH  35  36
ATOM     36  O   UNL     1       2.229   7.213  67.687  0.00  0.00    +0.000 OA
ATOM     37  H   UNL     1       1.867   6.376  67.329  0.00  0.00    +0.000 HD
ENDBRANCH  35  36
ENDBRANCH  29  35
ENDBRANCH  24  27
ENDBRANCH   5  25
BRANCH   5  38
ATOM     38  C   UNL     1       2.311   1.410  66.245  0.00  0.00    +0.000 C 
ATOM     39  C   UNL     1       3.872   1.401  66.168  0.00  0.00    +0.000 C 
ATOM     40  C   UNL     1       1.894   1.148  67.720  0.00  0.00    +0.000 C 
ATOM     41  C   UNL     1       1.752   0.315  65.303  0.00  0.00    +0.000 C 
ENDBRANCH   5  38
TORSDOF 7
ENDMDL
MODEL 3
REMARK VINA RESULT:      -4.2     14.331     15.888
REMARK  Name = 10940649_MilnamideD.pdbqt.pdb
REMARK  7 active torsions:
REMARK  status: ('A' for Active; 'I' for Inactive)
REMARK    1  A    between atoms: C_3  and  C_8
REMARK    2  A    between atoms: C_22  and  C_25
REMARK    3  A    between atoms: C_22  and  C_38
REMARK    4  A    between atoms: N_24  and  C_27
REMARK    5  A    between atoms: C_27  and  C_28
REMARK    6  A    between atoms: C_32  and  C_35
REMARK    7  A    between atoms: C_35  and  O_36
REMARK                            x       y       z     vdW  Elec       q    Type
REMARK                         _______ _______ _______ _____ _____    ______ ____
ROOT
ATOM      1  O   UNL     1       3.030   6.930  62.750  0.00  0.00    +0.000 OA
ATOM      2  N   UNL     1       2.750   9.048  63.518  0.00  0.00    +0.000 N 
ATOM      3  C   UNL     1       2.363   7.728  63.398  0.00  0.00    +0.000 C 
ATOM      4  H   UNL     1       2.112   9.705  63.982  0.00  0.00    +0.000 HD
ATOM      5  C   UNL     1       3.939   9.600  62.982  0.00  0.00    +0.000 C 
ENDROOT
BRANCH   3   9
ATOM      6  N   UNL     1      -0.159   8.050  63.802  0.00  0.00    +0.000 NA
ATOM      7  N   UNL     1      -2.277   5.997  66.388  0.00  0.00    +0.000 N 
ATOM      8  C   UNL     1       1.277   6.383  65.314  0.00  0.00    +0.000 C 
ATOM      9  C   UNL     1       1.096   7.338  64.098  0.00  0.00    +0.000 C 
ATOM     10  C   UNL     1      -0.065   5.962  65.993  0.00  0.00    +0.000 A 
ATOM     11  C   UNL     1      -1.278   6.521  65.644  0.00  0.00    +0.000 A 
ATOM     12  C   UNL     1       2.059   7.112  66.447  0.00  0.00    +0.000 C 
ATOM     13  C   UNL     1       1.914   5.045  64.838  0.00  0.00    +0.000 C 
ATOM     14  C   UNL     1      -0.373   5.031  67.049  0.00  0.00    +0.000 A 
ATOM     15  C   UNL     1      -1.190   7.476  64.626  0.00  0.00    +0.000 C 
ATOM     16  C   UNL     1      -1.764   5.075  67.269  0.00  0.00    +0.000 A 
ATOM     17  C   UNL     1      -0.556   7.860  62.415  0.00  0.00    +0.000 C 
ATOM     18  C   UNL     1       0.405   4.162  67.839  0.00  0.00    +0.000 A 
ATOM     19  C   UNL     1      -3.645   6.371  66.275  0.00  0.00    +0.000 C 
ATOM     20  C   UNL     1      -2.391   4.280  68.242  0.00  0.00    +0.000 A 
ATOM     21  C   UNL     1      -0.213   3.370  68.808  0.00  0.00    +0.000 A 
ATOM     22  C   UNL     1      -1.587   3.429  69.001  0.00  0.00    +0.000 A 
ENDBRANCH   3   9
BRANCH   5  25
ATOM     23  O   UNL     1       5.773   8.176  63.147  0.00  0.00    +0.000 OA
ATOM     24  N   UNL     1       4.868   8.518  60.992  0.00  0.00    +0.000 N 
ATOM     25  C   UNL     1       4.971   8.714  62.390  0.00  0.00    +0.000 C 
ATOM     26  C   UNL     1       3.915   9.220  60.125  0.00  0.00    +0.000 C 
BRANCH  24  27
ATOM     27  C   UNL     1       5.692   7.583  60.341  0.00  0.00    +0.000 C 
ATOM     28  C   UNL     1       5.348   6.189  60.299  0.00  0.00    +0.000 C 
ATOM     29  C   UNL     1       5.044   4.924  60.258  0.00  0.00    +0.000 C 
ATOM     30  C   UNL     1       4.686   4.386  58.889  0.00  0.00    +0.000 C 
BRANCH  27  31
ATOM     31  C   UNL     1       6.915   7.986  59.660  0.00  0.00    +0.000 C 
ATOM     32  C   UNL     1       7.764   9.115  60.209  0.00  0.00    +0.000 C 
ATOM     33  C   UNL     1       7.672   6.972  58.822  0.00  0.00    +0.000 C 
ENDBRANCH  27  31
BRANCH  29  35
ATOM     34  O   UNL     1       5.299   2.916  61.570  0.00  0.00    +0.000 OA
ATOM     35  C   UNL     1       5.066   4.115  61.507  0.00  0.00    +0.000 C 
BRANCH  35  36
ATOM     36  O   UNL     1       4.797   4.811  62.632  0.00  0.00    +0.000 OA
ATOM     37  H   UNL     1       5.109   5.722  62.451  0.00  0.00    +0.000 HD
ENDBRANCH  35  36
ENDBRANCH  29  35
ENDBRANCH  24  27
ENDBRANCH   5  25
BRANCH   5  38
ATOM     38  C   UNL     1       4.378  11.040  63.196  0.00  0.00    +0.000 C 
ATOM     39  C   UNL     1       3.290  11.944  62.535  0.00  0.00    +0.000 C 
ATOM     40  C   UNL     1       4.376  11.315  64.727  0.00  0.00    +0.000 C 
ATOM     41  C   UNL     1       5.756  11.367  62.571  0.00  0.00    +0.000 C 
ENDBRANCH   5  38
TORSDOF 7
ENDMDL
MODEL 4
REMARK VINA RESULT:      -4.0     15.378     18.799
REMARK  Name = 10940649_MilnamideD.pdbqt.pdb
REMARK  7 active torsions:
REMARK  status: ('A' for Active; 'I' for Inactive)
REMARK    1  A    between atoms: C_3  and  C_8
REMARK    2  A    between atoms: C_22  and  C_25
REMARK    3  A    between atoms: C_22  and  C_38
REMARK    4  A    between atoms: N_24  and  C_27
REMARK    5  A    between atoms: C_27  and  C_28
REMARK    6  A    between atoms: C_32  and  C_35
REMARK    7  A    between atoms: C_35  and  O_36
REMARK                            x       y       z     vdW  Elec       q    Type
REMARK                         _______ _______ _______ _____ _____    ______ ____
ROOT
ATOM      1  O   UNL     1      15.399  12.755  55.258  0.00  0.00    +0.000 OA
ATOM      2  N   UNL     1      15.019  14.993  55.273  0.00  0.00    +0.000 N 
ATOM      3  C   UNL     1      14.619  13.681  55.442  0.00  0.00    +0.000 C 
ATOM      4  H   UNL     1      14.310  15.732  55.336  0.00  0.00    +0.000 HD
ATOM      5  C   UNL     1      16.332  15.407  54.941  0.00  0.00    +0.000 C 
ENDROOT
BRANCH   3   9
ATOM      6  N   UNL     1      12.103  13.704  54.897  0.00  0.00    +0.000 NA
ATOM      7  N   UNL     1       9.264  12.846  57.463  0.00  0.00    +0.000 N 
ATOM      8  C   UNL     1      12.970  13.282  57.387  0.00  0.00    +0.000 C 
ATOM      9  C   UNL     1      13.195  13.467  55.856  0.00  0.00    +0.000 C 
ATOM     10  C   UNL     1      11.482  13.017  57.779  0.00  0.00    +0.000 A 
ATOM     11  C   UNL     1      10.449  13.105  56.868  0.00  0.00    +0.000 A 
ATOM     12  C   UNL     1      13.328  14.600  58.136  0.00  0.00    +0.000 C 
ATOM     13  C   UNL     1      13.738  12.021  57.879  0.00  0.00    +0.000 C 
ATOM     14  C   UNL     1      10.849  12.687  59.031  0.00  0.00    +0.000 A 
ATOM     15  C   UNL     1      10.862  13.436  55.573  0.00  0.00    +0.000 C 
ATOM     16  C   UNL     1       9.463  12.584  58.798  0.00  0.00    +0.000 A 
ATOM     17  C   UNL     1      12.190  12.790  53.768  0.00  0.00    +0.000 C 
ATOM     18  C   UNL     1      11.327  12.473  60.339  0.00  0.00    +0.000 A 
ATOM     19  C   UNL     1       8.007  12.865  56.796  0.00  0.00    +0.000 C 
ATOM     20  C   UNL     1       8.555  12.272  59.822  0.00  0.00    +0.000 A 
ATOM     21  C   UNL     1      10.430  12.163  61.361  0.00  0.00    +0.000 A 
ATOM     22  C   UNL     1       9.068  12.063  61.103  0.00  0.00    +0.000 A 
ENDBRANCH   3   9
BRANCH   5  25
ATOM     23  O   UNL     1      17.993  14.166  56.000  0.00  0.00    +0.000 OA
ATOM     24  N   UNL     1      17.706  13.821  53.680  0.00  0.00    +0.000 N 
ATOM     25  C   UNL     1      17.443  14.426  54.933  0.00  0.00    +0.000 C 
ATOM     26  C   UNL     1      17.048  14.200  52.424  0.00  0.00    +0.000 C 
BRANCH  24  27
ATOM     27  C   UNL     1      18.631  12.768  53.577  0.00  0.00    +0.000 C 
ATOM     28  C   UNL     1      18.205  11.396  53.616  0.00  0.00    +0.000 C 
ATOM     29  C   UNL     1      17.827  10.151  53.651  0.00  0.00    +0.000 C 
ATOM     30  C   UNL     1      17.997   9.383  52.358  0.00  0.00    +0.000 C 
BRANCH  27  31
ATOM     31  C   UNL     1      20.055  13.016  53.401  0.00  0.00    +0.000 C 
ATOM     32  C   UNL     1      21.033  12.707  54.518  0.00  0.00    +0.000 C 
ATOM     33  C   UNL     1      20.653  12.982  52.007  0.00  0.00    +0.000 C 
ENDBRANCH  27  31
BRANCH  29  35
ATOM     34  O   UNL     1      17.880   8.847  55.680  0.00  0.00    +0.000 OA
ATOM     35  C   UNL     1      17.276   9.580  54.910  0.00  0.00    +0.000 C 
BRANCH  35  36
ATOM     36  O   UNL     1      15.999   9.929  55.173  0.00  0.00    +0.000 OA
ATOM     37  H   UNL     1      16.044  10.856  55.485  0.00  0.00    +0.000 HD
ENDBRANCH  35  36
ENDBRANCH  29  35
ENDBRANCH  24  27
ENDBRANCH   5  25
BRANCH   5  38
ATOM     38  C   UNL     1      16.762  16.862  54.838  0.00  0.00    +0.000 C 
ATOM     39  C   UNL     1      15.864  17.519  53.741  0.00  0.00    +0.000 C 
ATOM     40  C   UNL     1      16.449  17.548  56.199  0.00  0.00    +0.000 C 
ATOM     41  C   UNL     1      18.250  17.043  54.450  0.00  0.00    +0.000 C 
ENDBRANCH   5  38
TORSDOF 7
ENDMDL
MODEL 5
REMARK VINA RESULT:      -4.0     13.557     15.540
REMARK  Name = 10940649_MilnamideD.pdbqt.pdb
REMARK  7 active torsions:
REMARK  status: ('A' for Active; 'I' for Inactive)
REMARK    1  A    between atoms: C_3  and  C_8
REMARK    2  A    between atoms: C_22  and  C_25
REMARK    3  A    between atoms: C_22  and  C_38
REMARK    4  A    between atoms: N_24  and  C_27
REMARK    5  A    between atoms: C_27  and  C_28
REMARK    6  A    between atoms: C_32  and  C_35
REMARK    7  A    between atoms: C_35  and  O_36
REMARK                            x       y       z     vdW  Elec       q    Type
REMARK                         _______ _______ _______ _____ _____    ______ ____
ROOT
ATOM      1  O   UNL     1       6.837  11.449  60.111  0.00  0.00    +0.000 OA
ATOM      2  N   UNL     1       7.343  11.628  62.317  0.00  0.00    +0.000 N 
ATOM      3  C   UNL     1       6.834  10.946  61.229  0.00  0.00    +0.000 C 
ATOM      4  H   UNL     1       7.229  11.215  63.250  0.00  0.00    +0.000 HD
ATOM      5  C   UNL     1       7.954  12.904  62.265  0.00  0.00    +0.000 C 
ENDROOT
BRANCH   3   9
ATOM      6  N   UNL     1       5.689   9.264  62.805  0.00  0.00    +0.000 NA
ATOM      7  N   UNL     1       4.937   5.523  61.896  0.00  0.00    +0.000 N 
ATOM      8  C   UNL     1       6.662   8.495  60.440  0.00  0.00    +0.000 C 
ATOM      9  C   UNL     1       6.286   9.577  61.496  0.00  0.00    +0.000 C 
ATOM     10  C   UNL     1       6.039   7.091  60.725  0.00  0.00    +0.000 A 
ATOM     11  C   UNL     1       5.360   6.806  61.891  0.00  0.00    +0.000 A 
ATOM     12  C   UNL     1       8.198   8.239  60.470  0.00  0.00    +0.000 C 
ATOM     13  C   UNL     1       6.095   8.902  59.050  0.00  0.00    +0.000 C 
ATOM     14  C   UNL     1       6.029   5.860  59.976  0.00  0.00    +0.000 A 
ATOM     15  C   UNL     1       5.271   7.887  62.775  0.00  0.00    +0.000 C 
ATOM     16  C   UNL     1       5.329   4.901  60.734  0.00  0.00    +0.000 A 
ATOM     17  C   UNL     1       4.505  10.073  63.049  0.00  0.00    +0.000 C 
ATOM     18  C   UNL     1       6.555   5.475  58.727  0.00  0.00    +0.000 A 
ATOM     19  C   UNL     1       4.213   4.918  62.962  0.00  0.00    +0.000 C 
ATOM     20  C   UNL     1       5.138   3.586  60.282  0.00  0.00    +0.000 A 
ATOM     21  C   UNL     1       6.369   4.169  58.273  0.00  0.00    +0.000 A 
ATOM     22  C   UNL     1       5.671   3.244  59.038  0.00  0.00    +0.000 A 
ENDBRANCH   3   9
BRANCH   5  25
ATOM     23  O   UNL     1       7.528  14.435  60.564  0.00  0.00    +0.000 OA
ATOM     24  N   UNL     1       9.436  13.062  60.323  0.00  0.00    +0.000 N 
ATOM     25  C   UNL     1       8.260  13.531  60.957  0.00  0.00    +0.000 C 
ATOM     26  C   UNL     1      10.253  11.947  60.815  0.00  0.00    +0.000 C 
BRANCH  24  27
ATOM     27  C   UNL     1       9.912  13.684  59.155  0.00  0.00    +0.000 C 
ATOM     28  C   UNL     1      10.521  14.984  59.199  0.00  0.00    +0.000 C 
ATOM     29  C   UNL     1      11.074  16.162  59.231  0.00  0.00    +0.000 C 
ATOM     30  C   UNL     1      12.553  16.195  58.911  0.00  0.00    +0.000 C 
BRANCH  27  31
ATOM     31  C   UNL     1       9.833  13.032  57.856  0.00  0.00    +0.000 C 
ATOM     32  C   UNL     1       8.492  12.825  57.179  0.00  0.00    +0.000 C 
ATOM     33  C   UNL     1      11.017  13.106  56.909  0.00  0.00    +0.000 C 
ENDBRANCH  27  31
BRANCH  29  35
ATOM     34  O   UNL     1      10.601  18.520  59.418  0.00  0.00    +0.000 OA
ATOM     35  C   UNL     1      10.252  17.357  59.565  0.00  0.00    +0.000 C 
BRANCH  35  36
ATOM     36  O   UNL     1       9.032  17.077  60.070  0.00  0.00    +0.000 OA
ATOM     37  H   UNL     1       8.820  16.177  59.746  0.00  0.00    +0.000 HD
ENDBRANCH  35  36
ENDBRANCH  29  35
ENDBRANCH  24  27
ENDBRANCH   5  25
BRANCH   5  38
ATOM     38  C   UNL     1       8.576  13.596  63.468  0.00  0.00    +0.000 C 
ATOM     39  C   UNL     1       7.402  14.244  64.270  0.00  0.00    +0.000 C 
ATOM     40  C   UNL     1       9.231  12.503  64.360  0.00  0.00    +0.000 C 
ATOM     41  C   UNL     1       9.598  14.696  63.090  0.00  0.00    +0.000 C 
ENDBRANCH   5  38
TORSDOF 7
ENDMDL
MODEL 6
REMARK VINA RESULT:      -4.0     12.956     16.106
REMARK  Name = 10940649_MilnamideD.pdbqt.pdb
REMARK  7 active torsions:
REMARK  status: ('A' for Active; 'I' for Inactive)
REMARK    1  A    between atoms: C_3  and  C_8
REMARK    2  A    between atoms: C_22  and  C_25
REMARK    3  A    between atoms: C_22  and  C_38
REMARK    4  A    between atoms: N_24  and  C_27
REMARK    5  A    between atoms: C_27  and  C_28
REMARK    6  A    between atoms: C_32  and  C_35
REMARK    7  A    between atoms: C_35  and  O_36
REMARK                            x       y       z     vdW  Elec       q    Type
REMARK                         _______ _______ _______ _____ _____    ______ ____
ROOT
ATOM      1  O   UNL     1       2.391  10.277  69.668  0.00  0.00    +0.000 OA
ATOM      2  N   UNL     1       0.170  10.488  69.245  0.00  0.00    +0.000 N 
ATOM      3  C   UNL     1       1.433  10.011  68.951  0.00  0.00    +0.000 C 
ATOM      4  H   UNL     1      -0.583  10.328  68.566  0.00  0.00    +0.000 HD
ATOM      5  C   UNL     1      -0.165  11.256  70.387  0.00  0.00    +0.000 C 
ENDROOT
BRANCH   3   9
ATOM      6  N   UNL     1       1.398   9.768  66.389  0.00  0.00    +0.000 NA
ATOM      7  N   UNL     1       1.872   6.380  64.469  0.00  0.00    +0.000 N 
ATOM      8  C   UNL     1       1.558   7.625  67.974  0.00  0.00    +0.000 C 
ATOM      9  C   UNL     1       1.556   9.162  67.722  0.00  0.00    +0.000 C 
ATOM     10  C   UNL     1       1.733   6.773  66.677  0.00  0.00    +0.000 A 
ATOM     11  C   UNL     1       1.718   7.332  65.416  0.00  0.00    +0.000 A 
ATOM     12  C   UNL     1       0.175   7.181  68.534  0.00  0.00    +0.000 C 
ATOM     13  C   UNL     1       2.777   7.243  68.863  0.00  0.00    +0.000 C 
ATOM     14  C   UNL     1       1.897   5.358  66.456  0.00  0.00    +0.000 A 
ATOM     15  C   UNL     1       1.550   8.721  65.413  0.00  0.00    +0.000 C 
ATOM     16  C   UNL     1       1.985   5.147  65.066  0.00  0.00    +0.000 A 
ATOM     17  C   UNL     1       2.437  10.754  66.134  0.00  0.00    +0.000 C 
ATOM     18  C   UNL     1       1.975   4.241  67.312  0.00  0.00    +0.000 A 
ATOM     19  C   UNL     1       1.892   6.634  63.069  0.00  0.00    +0.000 C 
ATOM     20  C   UNL     1       2.151   3.867  64.515  0.00  0.00    +0.000 A 
ATOM     21  C   UNL     1       2.139   2.966  66.769  0.00  0.00    +0.000 A 
ATOM     22  C   UNL     1       2.227   2.786  65.394  0.00  0.00    +0.000 A 
ENDBRANCH   3   9
BRANCH   5  25
ATOM     23  O   UNL     1       0.907  10.581  72.340  0.00  0.00    +0.000 OA
ATOM     24  N   UNL     1       1.646  12.594  71.348  0.00  0.00    +0.000 N 
ATOM     25  C   UNL     1       0.826  11.446  71.473  0.00  0.00    +0.000 C 
ATOM     26  C   UNL     1       1.479  13.622  70.314  0.00  0.00    +0.000 C 
BRANCH  24  27
ATOM     27  C   UNL     1       2.720  12.802  72.231  0.00  0.00    +0.000 C 
ATOM     28  C   UNL     1       3.969  12.112  72.060  0.00  0.00    +0.000 C 
ATOM     29  C   UNL     1       5.102  11.489  71.912  0.00  0.00    +0.000 C 
ATOM     30  C   UNL     1       6.276  12.362  71.522  0.00  0.00    +0.000 C 
BRANCH  27  31
ATOM     31  C   UNL     1       2.627  13.741  73.339  0.00  0.00    +0.000 C 
ATOM     32  C   UNL     1       1.875  13.369  74.602  0.00  0.00    +0.000 C 
ATOM     33  C   UNL     1       3.718  14.778  73.533  0.00  0.00    +0.000 C 
ENDBRANCH  27  31
BRANCH  29  35
ATOM     34  O   UNL     1       5.226   9.175  71.245  0.00  0.00    +0.000 OA
ATOM     35  C   UNL     1       5.174  10.019  72.128  0.00  0.00    +0.000 C 
BRANCH  35  36
ATOM     36  O   UNL     1       5.175   9.641  73.424  0.00  0.00    +0.000 OA
ATOM     37  H   UNL     1       5.445   8.700  73.418  0.00  0.00    +0.000 HD
ENDBRANCH  35  36
ENDBRANCH  29  35
ENDBRANCH  24  27
ENDBRANCH   5  25
BRANCH   5  38
ATOM     38  C   UNL     1      -1.579  11.701  70.724  0.00  0.00    +0.000 C 
ATOM     39  C   UNL     1      -2.103  12.504  69.491  0.00  0.00    +0.000 C 
ATOM     40  C   UNL     1      -2.455  10.425  70.883  0.00  0.00    +0.000 C 
ATOM     41  C   UNL     1      -1.662  12.597  71.984  0.00  0.00    +0.000 C 
ENDBRANCH   5  38
TORSDOF 7
ENDMDL
MODEL 7
REMARK VINA RESULT:      -4.0      9.049     12.261
REMARK  Name = 10940649_MilnamideD.pdbqt.pdb
REMARK  7 active torsions:
REMARK  status: ('A' for Active; 'I' for Inactive)
REMARK    1  A    between atoms: C_3  and  C_8
REMARK    2  A    between atoms: C_22  and  C_25
REMARK    3  A    between atoms: C_22  and  C_38
REMARK    4  A    between atoms: N_24  and  C_27
REMARK    5  A    between atoms: C_27  and  C_28
REMARK    6  A    between atoms: C_32  and  C_35
REMARK    7  A    between atoms: C_35  and  O_36
REMARK                            x       y       z     vdW  Elec       q    Type
REMARK                         _______ _______ _______ _____ _____    ______ ____
ROOT
ATOM      1  O   UNL     1       6.264   2.914  77.634  0.00  0.00    +0.000 OA
ATOM      2  N   UNL     1       6.999   4.783  78.692  0.00  0.00    +0.000 N 
ATOM      3  C   UNL     1       6.043   4.061  78.003  0.00  0.00    +0.000 C 
ATOM      4  H   UNL     1       6.814   5.773  78.893  0.00  0.00    +0.000 HD
ATOM      5  C   UNL     1       8.266   4.288  79.087  0.00  0.00    +0.000 C 
ENDROOT
BRANCH   3   9
ATOM      6  N   UNL     1       3.534   4.370  78.487  0.00  0.00    +0.000 NA
ATOM      7  N   UNL     1       1.206   6.914  76.617  0.00  0.00    +0.000 N 
ATOM      8  C   UNL     1       4.717   5.657  76.469  0.00  0.00    +0.000 C 
ATOM      9  C   UNL     1       4.743   4.758  77.740  0.00  0.00    +0.000 C 
ATOM     10  C   UNL     1       3.363   6.403  76.249  0.00  0.00    +0.000 A 
ATOM     11  C   UNL     1       2.247   6.152  77.020  0.00  0.00    +0.000 A 
ATOM     12  C   UNL     1       4.874   4.775  75.195  0.00  0.00    +0.000 C 
ATOM     13  C   UNL     1       5.773   6.792  76.611  0.00  0.00    +0.000 C 
ATOM     14  C   UNL     1       2.942   7.395  75.293  0.00  0.00    +0.000 A 
ATOM     15  C   UNL     1       2.449   5.190  78.015  0.00  0.00    +0.000 C 
ATOM     16  C   UNL     1       1.590   7.696  75.553  0.00  0.00    +0.000 A 
ATOM     17  C   UNL     1       3.689   4.631  79.909  0.00  0.00    +0.000 C 
ATOM     18  C   UNL     1       3.585   8.060  74.230  0.00  0.00    +0.000 A 
ATOM     19  C   UNL     1      -0.089   6.884  77.205  0.00  0.00    +0.000 C 
ATOM     20  C   UNL     1       0.874   8.633  74.792  0.00  0.00    +0.000 A 
ATOM     21  C   UNL     1       2.878   8.992  73.470  0.00  0.00    +0.000 A 
ATOM     22  C   UNL     1       1.547   9.273  73.750  0.00  0.00    +0.000 A 
ENDBRANCH   3   9
BRANCH   5  25
ATOM     23  O   UNL     1       8.180   2.074  79.803  0.00  0.00    +0.000 OA
ATOM     24  N   UNL     1       9.262   2.499  77.745  0.00  0.00    +0.000 N 
ATOM     25  C   UNL     1       8.582   2.847  78.937  0.00  0.00    +0.000 C 
ATOM     26  C   UNL     1       9.758   3.469  76.762  0.00  0.00    +0.000 C 
BRANCH  24  27
ATOM     27  C   UNL     1       9.482   1.149  77.418  0.00  0.00    +0.000 C 
ATOM     28  C   UNL     1       8.500   0.388  76.696  0.00  0.00    +0.000 C 
ATOM     29  C   UNL     1       7.616  -0.307  76.042  0.00  0.00    +0.000 C 
ATOM     30  C   UNL     1       8.017  -0.717  74.641  0.00  0.00    +0.000 C 
BRANCH  27  31
ATOM     31  C   UNL     1      10.719   0.469  77.773  0.00  0.00    +0.000 C 
ATOM     32  C   UNL     1      10.958  -0.002  79.194  0.00  0.00    +0.000 C 
ATOM     33  C   UNL     1      11.476  -0.308  76.711  0.00  0.00    +0.000 C 
ENDBRANCH  27  31
BRANCH  29  35
ATOM     34  O   UNL     1       5.630  -1.623  76.422  0.00  0.00    +0.000 OA
ATOM     35  C   UNL     1       6.317  -0.647  76.685  0.00  0.00    +0.000 C 
BRANCH  35  36
ATOM     36  O   UNL     1       5.911   0.231  77.627  0.00  0.00    +0.000 OA
ATOM     37  H   UNL     1       5.072   0.605  77.286  0.00  0.00    +0.000 HD
ENDBRANCH  35  36
ENDBRANCH  29  35
ENDBRANCH  24  27
ENDBRANCH   5  25
BRANCH   5  38
ATOM     38  C   UNL     1       9.267   5.081  79.913  0.00  0.00    +0.000 C 
ATOM     39  C   UNL     1       9.593   6.375  79.101  0.00  0.00    +0.000 C 
ATOM     40  C   UNL     1       8.566   5.500  81.237  0.00  0.00    +0.000 C 
ATOM     41  C   UNL     1      10.582   4.314  80.195  0.00  0.00    +0.000 C 
ENDBRANCH   5  38
TORSDOF 7
ENDMDL
MODEL 8
REMARK VINA RESULT:      -4.0     14.388     16.999
REMARK  Name = 10940649_MilnamideD.pdbqt.pdb
REMARK  7 active torsions:
REMARK  status: ('A' for Active; 'I' for Inactive)
REMARK    1  A    between atoms: C_3  and  C_8
REMARK    2  A    between atoms: C_22  and  C_25
REMARK    3  A    between atoms: C_22  and  C_38
REMARK    4  A    between atoms: N_24  and  C_27
REMARK    5  A    between atoms: C_27  and  C_28
REMARK    6  A    between atoms: C_32  and  C_35
REMARK    7  A    between atoms: C_35  and  O_36
REMARK                            x       y       z     vdW  Elec       q    Type
REMARK                         _______ _______ _______ _____ _____    ______ ____
ROOT
ATOM      1  O   UNL     1       4.212   6.232  60.396  0.00  0.00    +0.000 OA
ATOM      2  N   UNL     1       2.124   5.493  59.899  0.00  0.00    +0.000 N 
ATOM      3  C   UNL     1       3.143   5.778  60.787  0.00  0.00    +0.000 C 
ATOM      4  H   UNL     1       1.285   5.020  60.253  0.00  0.00    +0.000 HD
ATOM      5  C   UNL     1       2.167   5.735  58.505  0.00  0.00    +0.000 C 
ENDROOT
BRANCH   3   9
ATOM      6  N   UNL     1       2.742   4.112  62.708  0.00  0.00    +0.000 NA
ATOM      7  N   UNL     1       1.957   5.137  66.412  0.00  0.00    +0.000 N 
ATOM      8  C   UNL     1       2.436   6.739  63.076  0.00  0.00    +0.000 C 
ATOM      9  C   UNL     1       2.865   5.501  62.234  0.00  0.00    +0.000 C 
ATOM     10  C   UNL     1       2.197   6.424  64.586  0.00  0.00    +0.000 A 
ATOM     11  C   UNL     1       2.205   5.137  65.084  0.00  0.00    +0.000 A 
ATOM     12  C   UNL     1       1.057   7.265  62.577  0.00  0.00    +0.000 C 
ATOM     13  C   UNL     1       3.579   7.795  63.070  0.00  0.00    +0.000 C 
ATOM     14  C   UNL     1       1.905   7.262  65.722  0.00  0.00    +0.000 A 
ATOM     15  C   UNL     1       2.460   4.157  64.119  0.00  0.00    +0.000 C 
ATOM     16  C   UNL     1       1.765   6.427  66.848  0.00  0.00    +0.000 A 
ATOM     17  C   UNL     1       3.991   3.387  62.537  0.00  0.00    +0.000 C 
ATOM     18  C   UNL     1       1.743   8.652  65.892  0.00  0.00    +0.000 A 
ATOM     19  C   UNL     1       1.890   3.966  67.219  0.00  0.00    +0.000 C 
ATOM     20  C   UNL     1       1.476   6.937  68.123  0.00  0.00    +0.000 A 
ATOM     21  C   UNL     1       1.455   9.163  67.157  0.00  0.00    +0.000 A 
ATOM     22  C   UNL     1       1.327   8.318  68.252  0.00  0.00    +0.000 A 
ENDBRANCH   3   9
BRANCH   5  25
ATOM     23  O   UNL     1       3.233   7.735  57.969  0.00  0.00    +0.000 OA
ATOM     24  N   UNL     1       4.362   5.733  57.419  0.00  0.00    +0.000 N 
ATOM     25  C   UNL     1       3.288   6.509  57.918  0.00  0.00    +0.000 C 
ATOM     26  C   UNL     1       4.358   4.267  57.342  0.00  0.00    +0.000 C 
BRANCH  24  27
ATOM     27  C   UNL     1       5.544   6.352  56.978  0.00  0.00    +0.000 C 
ATOM     28  C   UNL     1       6.618   6.641  57.887  0.00  0.00    +0.000 C 
ATOM     29  C   UNL     1       7.595   6.906  58.705  0.00  0.00    +0.000 C 
ATOM     30  C   UNL     1       8.861   6.106  58.486  0.00  0.00    +0.000 C 
BRANCH  27  31
ATOM     31  C   UNL     1       5.745   6.707  55.580  0.00  0.00    +0.000 C 
ATOM     32  C   UNL     1       5.036   7.906  54.981  0.00  0.00    +0.000 C 
ATOM     33  C   UNL     1       7.044   6.329  54.893  0.00  0.00    +0.000 C 
ENDBRANCH  27  31
BRANCH  29  35
ATOM     34  O   UNL     1       8.298   8.356  60.500  0.00  0.00    +0.000 OA
ATOM     35  C   UNL     1       7.417   7.937  59.763  0.00  0.00    +0.000 C 
BRANCH  35  36
ATOM     36  O   UNL     1       6.159   8.414  59.876  0.00  0.00    +0.000 OA
ATOM     37  H   UNL     1       5.614   7.841  59.298  0.00  0.00    +0.000 HD
ENDBRANCH  35  36
ENDBRANCH  29  35
ENDBRANCH  24  27
ENDBRANCH   5  25
BRANCH   5  38
ATOM     38  C   UNL     1       1.000   5.484  57.563  0.00  0.00    +0.000 C 
ATOM     39  C   UNL     1       0.664   3.962  57.661  0.00  0.00    +0.000 C 
ATOM     40  C   UNL     1      -0.222   6.288  58.094  0.00  0.00    +0.000 C 
ATOM     41  C   UNL     1       1.306   5.841  56.088  0.00  0.00    +0.000 C 
ENDBRANCH   5  38
TORSDOF 7
ENDMDL
MODEL 9
REMARK VINA RESULT:      -4.0     13.396     16.233
REMARK  Name = 10940649_MilnamideD.pdbqt.pdb
REMARK  7 active torsions:
REMARK  status: ('A' for Active; 'I' for Inactive)
REMARK    1  A    between atoms: C_3  and  C_8
REMARK    2  A    between atoms: C_22  and  C_25
REMARK    3  A    between atoms: C_22  and  C_38
REMARK    4  A    between atoms: N_24  and  C_27
REMARK    5  A    between atoms: C_27  and  C_28
REMARK    6  A    between atoms: C_32  and  C_35
REMARK    7  A    between atoms: C_35  and  O_36
REMARK                            x       y       z     vdW  Elec       q    Type
REMARK                         _______ _______ _______ _____ _____    ______ ____
ROOT
ATOM      1  O   UNL     1       7.649  11.647  61.015  0.00  0.00    +0.000 OA
ATOM      2  N   UNL     1       5.951  11.691  59.509  0.00  0.00    +0.000 N 
ATOM      3  C   UNL     1       6.654  11.108  60.546  0.00  0.00    +0.000 C 
ATOM      4  H   UNL     1       5.186  11.160  59.078  0.00  0.00    +0.000 HD
ATOM      5  C   UNL     1       6.247  12.950  58.932  0.00  0.00    +0.000 C 
ENDROOT
BRANCH   3   9
ATOM      6  N   UNL     1       5.540   9.708  62.397  0.00  0.00    +0.000 NA
ATOM      7  N   UNL     1       4.858   5.852  62.161  0.00  0.00    +0.000 N 
ATOM      8  C   UNL     1       6.528   8.554  60.201  0.00  0.00    +0.000 C 
ATOM      9  C   UNL     1       6.132   9.797  61.051  0.00  0.00    +0.000 C 
ATOM     10  C   UNL     1       5.932   7.211  60.729  0.00  0.00    +0.000 A 
ATOM     11  C   UNL     1       5.257   7.123  61.930  0.00  0.00    +0.000 A 
ATOM     12  C   UNL     1       8.069   8.335  60.271  0.00  0.00    +0.000 C 
ATOM     13  C   UNL     1       5.954   8.700  58.762  0.00  0.00    +0.000 C 
ATOM     14  C   UNL     1       5.945   5.867  60.209  0.00  0.00    +0.000 A 
ATOM     15  C   UNL     1       5.147   8.340  62.610  0.00  0.00    +0.000 C 
ATOM     16  C   UNL     1       5.262   5.043  61.126  0.00  0.00    +0.000 A 
ATOM     17  C   UNL     1       4.341  10.525  62.498  0.00  0.00    +0.000 C 
ATOM     18  C   UNL     1       6.478   5.278  59.045  0.00  0.00    +0.000 A 
ATOM     19  C   UNL     1       4.145   5.431  63.319  0.00  0.00    +0.000 C 
ATOM     20  C   UNL     1       5.097   3.666  60.912  0.00  0.00    +0.000 A 
ATOM     21  C   UNL     1       6.317   3.910  58.828  0.00  0.00    +0.000 A 
ATOM     22  C   UNL     1       5.636   3.121  59.746  0.00  0.00    +0.000 A 
ENDBRANCH   3   9
BRANCH   5  25
ATOM     23  O   UNL     1       6.902  14.574  60.466  0.00  0.00    +0.000 OA
ATOM     24  N   UNL     1       8.582  13.673  59.069  0.00  0.00    +0.000 N 
ATOM     25  C   UNL     1       7.261  13.835  59.553  0.00  0.00    +0.000 C 
ATOM     26  C   UNL     1       8.950  12.806  57.945  0.00  0.00    +0.000 C 
BRANCH  24  27
ATOM     27  C   UNL     1       9.653  14.345  59.683  0.00  0.00    +0.000 C 
ATOM     28  C   UNL     1      10.305  13.803  60.843  0.00  0.00    +0.000 C 
ATOM     29  C   UNL     1      10.900  13.319  61.894  0.00  0.00    +0.000 C 
ATOM     30  C   UNL     1      12.330  12.868  61.682  0.00  0.00    +0.000 C 
BRANCH  27  31
ATOM     31  C   UNL     1      10.166  15.603  59.161  0.00  0.00    +0.000 C 
ATOM     32  C   UNL     1       9.251  16.559  58.420  0.00  0.00    +0.000 C 
ATOM     33  C   UNL     1      11.360  16.259  59.830  0.00  0.00    +0.000 C 
ENDBRANCH  27  31
BRANCH  29  35
ATOM     34  O   UNL     1      10.290  14.028  64.117  0.00  0.00    +0.000 OA
ATOM     35  C   UNL     1      10.171  13.241  63.189  0.00  0.00    +0.000 C 
BRANCH  35  36
ATOM     36  O   UNL     1       9.325  12.195  63.295  0.00  0.00    +0.000 OA
ATOM     37  H   UNL     1       8.500  12.485  62.854  0.00  0.00    +0.000 HD
ENDBRANCH  35  36
ENDBRANCH  29  35
ENDBRANCH  24  27
ENDBRANCH   5  25
BRANCH   5  38
ATOM     38  C   UNL     1       5.408  13.602  57.844  0.00  0.00    +0.000 C 
ATOM     39  C   UNL     1       6.111  14.950  57.482  0.00  0.00    +0.000 C 
ATOM     40  C   UNL     1       5.449  12.680  56.593  0.00  0.00    +0.000 C 
ATOM     41  C   UNL     1       3.950  13.893  58.277  0.00  0.00    +0.000 C 
ENDBRANCH   5  38
TORSDOF 7
ENDMDL
