MODEL 1
REMARK VINA RESULT:      -5.1      0.000      0.000
REMARK  Name = 11167602_Regorafenib.pdbqt.pdb
REMARK  6 active torsions:
REMARK  status: ('A' for Active; 'I' for Inactive)
REMARK    1  A    between atoms: C_2  and  N_10
REMARK    2  A    between atoms: C_3  and  O_25
REMARK    3  A    between atoms: N_9  and  C_15
REMARK    4  A    between atoms: C_16  and  C_24
REMARK    5  A    between atoms: O_25  and  C_27
REMARK    6  A    between atoms: C_29  and  C_34
REMARK                            x       y       z     vdW  Elec       q    Type
REMARK                         _______ _______ _______ _____ _____    ______ ____
ROOT
ATOM      1  F   UNL     1       3.165   3.918  61.997  0.00  0.00    +0.000 F 
ATOM      2  C   UNL     1       4.490   5.757  62.679  0.00  0.00    +0.000 A 
ATOM      3  C   UNL     1       5.445   5.960  60.060  0.00  0.00    +0.000 A 
ATOM      4  C   UNL     1       4.056   4.872  61.687  0.00  0.00    +0.000 A 
ATOM      5  C   UNL     1       5.426   6.733  62.345  0.00  0.00    +0.000 A 
ATOM      6  C   UNL     1       4.535   4.955  60.384  0.00  0.00    +0.000 A 
ATOM      7  C   UNL     1       5.915   6.829  61.043  0.00  0.00    +0.000 A 
ENDROOT
BRANCH   2  10
ATOM      8  O   UNL     1       2.173   7.081  63.826  0.00  0.00    +0.000 OA
ATOM      9  N   UNL     1       2.566   5.891  65.768  0.00  0.00    +0.000 N 
ATOM     10  N   UNL     1       3.955   5.620  63.978  0.00  0.00    +0.000 N 
ATOM     11  C   UNL     1       2.835   6.273  64.464  0.00  0.00    +0.000 C 
ATOM     12  H   UNL     1       3.162   5.193  66.188  0.00  0.00    +0.000 HD
ATOM     13  H   UNL     1       4.457   4.997  64.594  0.00  0.00    +0.000 HD
BRANCH   9  15
ATOM     14 CL   UNL     1      -1.803   8.009  69.158  0.00  0.00    +0.000 Cl
ATOM     15  C   UNL     1       1.506   6.373  66.559  0.00  0.00    +0.000 A 
ATOM     16  C   UNL     1       0.802   7.900  68.326  0.00  0.00    +0.000 A 
ATOM     17  C   UNL     1       1.795   7.363  67.499  0.00  0.00    +0.000 A 
ATOM     18  C   UNL     1       0.199   5.912  66.443  0.00  0.00    +0.000 A 
ATOM     19  C   UNL     1      -0.503   7.422  68.194  0.00  0.00    +0.000 A 
ATOM     20  C   UNL     1      -0.802   6.433  67.258  0.00  0.00    +0.000 A 
BRANCH  16  24
ATOM     21  F   UNL     1       0.905   8.609  70.601  0.00  0.00    +0.000 F 
ATOM     22  F   UNL     1       2.509   9.253  69.294  0.00  0.00    +0.000 F 
ATOM     23  F   UNL     1       0.521  10.134  69.111  0.00  0.00    +0.000 F 
ATOM     24  C   UNL     1       1.180   8.960  69.312  0.00  0.00    +0.000 C 
ENDBRANCH  16  24
ENDBRANCH   9  15
ENDBRANCH   2  10
BRANCH   3  25
ATOM     25  O   UNL     1       6.016   6.054  58.813  0.00  0.00    +0.000 OA
BRANCH  25  27
ATOM     26  N   UNL     1       9.710   4.282  58.024  0.00  0.00    +0.000 NA
ATOM     27  C   UNL     1       7.217   5.413  58.605  0.00  0.00    +0.000 A 
ATOM     28  C   UNL     1       7.341   4.030  58.520  0.00  0.00    +0.000 A 
ATOM     29  C   UNL     1       8.599   3.522  58.241  0.00  0.00    +0.000 A 
ATOM     30  C   UNL     1       8.318   6.231  58.370  0.00  0.00    +0.000 A 
ATOM     31  C   UNL     1       9.531   5.621  58.093  0.00  0.00    +0.000 A 
BRANCH  29  34
ATOM     32  O   UNL     1       8.784   1.375  59.197  0.00  0.00    +0.000 OA
ATOM     33  N   UNL     1       8.961   1.597  56.876  0.00  0.00    +0.000 N 
ATOM     34  C   UNL     1       8.788   2.050  58.173  0.00  0.00    +0.000 C 
ATOM     35  C   UNL     1       9.177   0.277  56.349  0.00  0.00    +0.000 C 
ATOM     36  H   UNL     1       8.934   2.330  56.168  0.00  0.00    +0.000 HD
ENDBRANCH  29  34
ENDBRANCH  25  27
ENDBRANCH   3  25
TORSDOF 6
ENDMDL
MODEL 2
REMARK VINA RESULT:      -4.8     14.439     16.560
REMARK  Name = 11167602_Regorafenib.pdbqt.pdb
REMARK  6 active torsions:
REMARK  status: ('A' for Active; 'I' for Inactive)
REMARK    1  A    between atoms: C_2  and  N_10
REMARK    2  A    between atoms: C_3  and  O_25
REMARK    3  A    between atoms: N_9  and  C_15
REMARK    4  A    between atoms: C_16  and  C_24
REMARK    5  A    between atoms: O_25  and  C_27
REMARK    6  A    between atoms: C_29  and  C_34
REMARK                            x       y       z     vdW  Elec       q    Type
REMARK                         _______ _______ _______ _____ _____    ______ ____
ROOT
ATOM      1  F   UNL     1      21.511   7.695  54.468  0.00  0.00    +0.000 F 
ATOM      2  C   UNL     1      19.433   8.466  53.637  0.00  0.00    +0.000 A 
ATOM      3  C   UNL     1      19.525   6.444  51.709  0.00  0.00    +0.000 A 
ATOM      4  C   UNL     1      20.511   7.578  53.581  0.00  0.00    +0.000 A 
ATOM      5  C   UNL     1      18.409   8.339  52.699  0.00  0.00    +0.000 A 
ATOM      6  C   UNL     1      20.575   6.576  52.617  0.00  0.00    +0.000 A 
ATOM      7  C   UNL     1      18.459   7.340  51.728  0.00  0.00    +0.000 A 
ENDROOT
BRANCH   2  10
ATOM      8  O   UNL     1      17.324   9.105  55.529  0.00  0.00    +0.000 OA
ATOM      9  N   UNL     1      18.727  10.717  56.411  0.00  0.00    +0.000 N 
ATOM     10  N   UNL     1      19.430   9.451  54.647  0.00  0.00    +0.000 N 
ATOM     11  C   UNL     1      18.392   9.701  55.530  0.00  0.00    +0.000 C 
ATOM     12  H   UNL     1      19.650  11.119  56.340  0.00  0.00    +0.000 HD
ATOM     13  H   UNL     1      20.262  10.022  54.703  0.00  0.00    +0.000 HD
BRANCH   9  15
ATOM     14 CL   UNL     1      15.259  12.730  60.768  0.00  0.00    +0.000 Cl
ATOM     15  C   UNL     1      17.895  11.222  57.428  0.00  0.00    +0.000 A 
ATOM     16  C   UNL     1      16.949  10.890  59.652  0.00  0.00    +0.000 A 
ATOM     17  C   UNL     1      17.756  10.463  58.590  0.00  0.00    +0.000 A 
ATOM     18  C   UNL     1      17.216  12.432  57.325  0.00  0.00    +0.000 A 
ATOM     19  C   UNL     1      16.276  12.107  59.527  0.00  0.00    +0.000 A 
ATOM     20  C   UNL     1      16.409  12.873  58.369  0.00  0.00    +0.000 A 
BRANCH  16  24
ATOM     21  F   UNL     1      17.290  10.651  62.000  0.00  0.00    +0.000 F 
ATOM     22  F   UNL     1      15.566   9.652  61.146  0.00  0.00    +0.000 F 
ATOM     23  F   UNL     1      17.575   8.884  60.778  0.00  0.00    +0.000 F 
ATOM     24  C   UNL     1      16.845  10.029  60.870  0.00  0.00    +0.000 C 
ENDBRANCH  16  24
ENDBRANCH   9  15
ENDBRANCH   2  10
BRANCH   3  25
ATOM     25  O   UNL     1      19.557   5.526  50.685  0.00  0.00    +0.000 OA
BRANCH  25  27
ATOM     26  N   UNL     1      19.026   1.455  51.427  0.00  0.00    +0.000 NA
ATOM     27  C   UNL     1      19.356   4.201  51.003  0.00  0.00    +0.000 A 
ATOM     28  C   UNL     1      18.245   3.743  51.704  0.00  0.00    +0.000 A 
ATOM     29  C   UNL     1      18.136   2.375  51.894  0.00  0.00    +0.000 A 
ATOM     30  C   UNL     1      20.280   3.299  50.486  0.00  0.00    +0.000 A 
ATOM     31  C   UNL     1      20.074   1.950  50.729  0.00  0.00    +0.000 A 
BRANCH  29  34
ATOM     32  O   UNL     1      16.014   2.550  52.906  0.00  0.00    +0.000 OA
ATOM     33  N   UNL     1      17.168   0.521  53.045  0.00  0.00    +0.000 N 
ATOM     34  C   UNL     1      16.985   1.840  52.666  0.00  0.00    +0.000 C 
ATOM     35  C   UNL     1      16.334  -0.380  53.793  0.00  0.00    +0.000 C 
ATOM     36  H   UNL     1      18.054   0.117  52.744  0.00  0.00    +0.000 HD
ENDBRANCH  29  34
ENDBRANCH  25  27
ENDBRANCH   3  25
TORSDOF 6
ENDMDL
MODEL 3
REMARK VINA RESULT:      -4.7      1.843      2.282
REMARK  Name = 11167602_Regorafenib.pdbqt.pdb
REMARK  6 active torsions:
REMARK  status: ('A' for Active; 'I' for Inactive)
REMARK    1  A    between atoms: C_2  and  N_10
REMARK    2  A    between atoms: C_3  and  O_25
REMARK    3  A    between atoms: N_9  and  C_15
REMARK    4  A    between atoms: C_16  and  C_24
REMARK    5  A    between atoms: O_25  and  C_27
REMARK    6  A    between atoms: C_29  and  C_34
REMARK                            x       y       z     vdW  Elec       q    Type
REMARK                         _______ _______ _______ _____ _____    ______ ____
ROOT
ATOM      1  F   UNL     1       2.594   3.963  62.247  0.00  0.00    +0.000 F 
ATOM      2  C   UNL     1       4.134   5.647  62.874  0.00  0.00    +0.000 A 
ATOM      3  C   UNL     1       4.972   5.785  60.211  0.00  0.00    +0.000 A 
ATOM      4  C   UNL     1       3.562   4.824  61.899  0.00  0.00    +0.000 A 
ATOM      5  C   UNL     1       5.149   6.526  62.499  0.00  0.00    +0.000 A 
ATOM      6  C   UNL     1       3.980   4.874  60.573  0.00  0.00    +0.000 A 
ATOM      7  C   UNL     1       5.578   6.588  61.174  0.00  0.00    +0.000 A 
ENDROOT
BRANCH   2  10
ATOM      8  O   UNL     1       2.107   7.263  64.183  0.00  0.00    +0.000 OA
ATOM      9  N   UNL     1       2.420   5.966  66.071  0.00  0.00    +0.000 N 
ATOM     10  N   UNL     1       3.655   5.549  64.198  0.00  0.00    +0.000 N 
ATOM     11  C   UNL     1       2.673   6.346  64.763  0.00  0.00    +0.000 C 
ATOM     12  H   UNL     1       2.926   5.173  66.439  0.00  0.00    +0.000 HD
ATOM     13  H   UNL     1       4.090   4.838  64.769  0.00  0.00    +0.000 HD
BRANCH   9  15
ATOM     14 CL   UNL     1      -1.588   8.416  69.676  0.00  0.00    +0.000 Cl
ATOM     15  C   UNL     1       1.488   6.574  66.932  0.00  0.00    +0.000 A 
ATOM     16  C   UNL     1      -0.701   6.442  68.001  0.00  0.00    +0.000 A 
ATOM     17  C   UNL     1       0.282   5.910  67.159  0.00  0.00    +0.000 A 
ATOM     18  C   UNL     1       1.716   7.794  67.561  0.00  0.00    +0.000 A 
ATOM     19  C   UNL     1      -0.452   7.668  68.621  0.00  0.00    +0.000 A 
ATOM     20  C   UNL     1       0.750   8.340  68.401  0.00  0.00    +0.000 A 
BRANCH  16  24
ATOM     21  F   UNL     1      -2.154   5.281  69.494  0.00  0.00    +0.000 F 
ATOM     22  F   UNL     1      -3.081   6.397  67.884  0.00  0.00    +0.000 F 
ATOM     23  F   UNL     1      -2.026   4.534  67.464  0.00  0.00    +0.000 F 
ATOM     24  C   UNL     1      -1.971   5.677  68.201  0.00  0.00    +0.000 C 
ENDBRANCH  16  24
ENDBRANCH   9  15
ENDBRANCH   2  10
BRANCH   3  25
ATOM     25  O   UNL     1       5.486   5.836  58.936  0.00  0.00    +0.000 OA
BRANCH  25  27
ATOM     26  N   UNL     1       9.266   4.286  58.091  0.00  0.00    +0.000 NA
ATOM     27  C   UNL     1       6.725   5.276  58.720  0.00  0.00    +0.000 A 
ATOM     28  C   UNL     1       6.982   3.915  58.845  0.00  0.00    +0.000 A 
ATOM     29  C   UNL     1       8.259   3.479  58.531  0.00  0.00    +0.000 A 
ATOM     30  C   UNL     1       7.714   6.136  58.253  0.00  0.00    +0.000 A 
ATOM     31  C   UNL     1       8.957   5.597  57.962  0.00  0.00    +0.000 A 
BRANCH  29  34
ATOM     32  O   UNL     1       9.762   1.673  58.728  0.00  0.00    +0.000 OA
ATOM     33  N   UNL     1       7.465   1.238  58.747  0.00  0.00    +0.000 N 
ATOM     34  C   UNL     1       8.592   2.039  58.680  0.00  0.00    +0.000 C 
ATOM     35  C   UNL     1       7.313  -0.185  58.885  0.00  0.00    +0.000 C 
ATOM     36  H   UNL     1       6.584   1.747  58.684  0.00  0.00    +0.000 HD
ENDBRANCH  29  34
ENDBRANCH  25  27
ENDBRANCH   3  25
TORSDOF 6
ENDMDL
MODEL 4
REMARK VINA RESULT:      -4.7     12.685     13.545
REMARK  Name = 11167602_Regorafenib.pdbqt.pdb
REMARK  6 active torsions:
REMARK  status: ('A' for Active; 'I' for Inactive)
REMARK    1  A    between atoms: C_2  and  N_10
REMARK    2  A    between atoms: C_3  and  O_25
REMARK    3  A    between atoms: N_9  and  C_15
REMARK    4  A    between atoms: C_16  and  C_24
REMARK    5  A    between atoms: O_25  and  C_27
REMARK    6  A    between atoms: C_29  and  C_34
REMARK                            x       y       z     vdW  Elec       q    Type
REMARK                         _______ _______ _______ _____ _____    ______ ____
ROOT
ATOM      1  F   UNL     1      15.057   4.128  68.661  0.00  0.00    +0.000 F 
ATOM      2  C   UNL     1      16.053   6.267  68.844  0.00  0.00    +0.000 A 
ATOM      3  C   UNL     1      17.951   5.477  66.950  0.00  0.00    +0.000 A 
ATOM      4  C   UNL     1      16.018   4.986  68.286  0.00  0.00    +0.000 A 
ATOM      5  C   UNL     1      17.066   7.142  68.454  0.00  0.00    +0.000 A 
ATOM      6  C   UNL     1      16.965   4.576  67.353  0.00  0.00    +0.000 A 
ATOM      7  C   UNL     1      18.023   6.746  67.520  0.00  0.00    +0.000 A 
ENDROOT
BRANCH   2  10
ATOM      8  O   UNL     1      15.995   5.754  71.702  0.00  0.00    +0.000 OA
ATOM      9  N   UNL     1      13.966   6.860  71.769  0.00  0.00    +0.000 N 
ATOM     10  N   UNL     1      15.055   6.618  69.778  0.00  0.00    +0.000 N 
ATOM     11  C   UNL     1      15.091   6.355  71.137  0.00  0.00    +0.000 C 
ATOM     12  H   UNL     1      13.296   7.366  71.207  0.00  0.00    +0.000 HD
ATOM     13  H   UNL     1      14.247   7.090  69.397  0.00  0.00    +0.000 HD
BRANCH   9  15
ATOM     14 CL   UNL     1      12.735   6.289  77.532  0.00  0.00    +0.000 Cl
ATOM     15  C   UNL     1      13.685   6.756  73.144  0.00  0.00    +0.000 A 
ATOM     16  C   UNL     1      12.794   5.381  74.951  0.00  0.00    +0.000 A 
ATOM     17  C   UNL     1      13.106   5.571  73.600  0.00  0.00    +0.000 A 
ATOM     18  C   UNL     1      13.959   7.769  74.056  0.00  0.00    +0.000 A 
ATOM     19  C   UNL     1      13.076   6.412  75.850  0.00  0.00    +0.000 A 
ATOM     20  C   UNL     1      13.655   7.599  75.403  0.00  0.00    +0.000 A 
BRANCH  16  24
ATOM     21  F   UNL     1      12.049   3.198  74.346  0.00  0.00    +0.000 F 
ATOM     22  F   UNL     1      12.899   3.437  76.325  0.00  0.00    +0.000 F 
ATOM     23  F   UNL     1      10.919   4.235  75.876  0.00  0.00    +0.000 F 
ATOM     24  C   UNL     1      12.174   4.086  75.374  0.00  0.00    +0.000 C 
ENDBRANCH  16  24
ENDBRANCH   9  15
ENDBRANCH   2  10
BRANCH   3  25
ATOM     25  O   UNL     1      18.961   5.116  66.090  0.00  0.00    +0.000 OA
BRANCH  25  27
ATOM     26  N   UNL     1      19.217   1.167  64.767  0.00  0.00    +0.000 NA
ATOM     27  C   UNL     1      18.974   3.821  65.620  0.00  0.00    +0.000 A 
ATOM     28  C   UNL     1      18.521   3.462  64.355  0.00  0.00    +0.000 A 
ATOM     29  C   UNL     1      18.656   2.134  63.987  0.00  0.00    +0.000 A 
ATOM     30  C   UNL     1      19.575   2.875  66.444  0.00  0.00    +0.000 A 
ATOM     31  C   UNL     1      19.665   1.573  65.978  0.00  0.00    +0.000 A 
BRANCH  29  34
ATOM     32  O   UNL     1      18.756   2.008  61.635  0.00  0.00    +0.000 OA
ATOM     33  N   UNL     1      16.998   0.942  62.749  0.00  0.00    +0.000 N 
ATOM     34  C   UNL     1      18.156   1.695  62.658  0.00  0.00    +0.000 C 
ATOM     35  C   UNL     1      16.181   0.326  61.740  0.00  0.00    +0.000 C 
ATOM     36  H   UNL     1      16.662   0.802  63.701  0.00  0.00    +0.000 HD
ENDBRANCH  29  34
ENDBRANCH  25  27
ENDBRANCH   3  25
TORSDOF 6
ENDMDL
MODEL 5
REMARK VINA RESULT:      -4.7      5.539      8.500
REMARK  Name = 11167602_Regorafenib.pdbqt.pdb
REMARK  6 active torsions:
REMARK  status: ('A' for Active; 'I' for Inactive)
REMARK    1  A    between atoms: C_2  and  N_10
REMARK    2  A    between atoms: C_3  and  O_25
REMARK    3  A    between atoms: N_9  and  C_15
REMARK    4  A    between atoms: C_16  and  C_24
REMARK    5  A    between atoms: O_25  and  C_27
REMARK    6  A    between atoms: C_29  and  C_34
REMARK                            x       y       z     vdW  Elec       q    Type
REMARK                         _______ _______ _______ _____ _____    ______ ____
ROOT
ATOM      1  F   UNL     1       3.827   9.176  61.177  0.00  0.00    +0.000 F 
ATOM      2  C   UNL     1       5.890   8.100  60.745  0.00  0.00    +0.000 A 
ATOM      3  C   UNL     1       7.088  10.616  60.536  0.00  0.00    +0.000 A 
ATOM      4  C   UNL     1       5.139   9.267  60.909  0.00  0.00    +0.000 A 
ATOM      5  C   UNL     1       7.248   8.211  60.453  0.00  0.00    +0.000 A 
ATOM      6  C   UNL     1       5.721  10.525  60.795  0.00  0.00    +0.000 A 
ATOM      7  C   UNL     1       7.847   9.465  60.335  0.00  0.00    +0.000 A 
ENDROOT
BRANCH   2  10
ATOM      8  O   UNL     1       5.461   6.547  63.161  0.00  0.00    +0.000 OA
ATOM      9  N   UNL     1       4.344   4.997  61.860  0.00  0.00    +0.000 N 
ATOM     10  N   UNL     1       5.236   6.857  60.884  0.00  0.00    +0.000 N 
ATOM     11  C   UNL     1       5.051   6.170  62.072  0.00  0.00    +0.000 C 
ATOM     12  H   UNL     1       4.029   4.798  60.921  0.00  0.00    +0.000 HD
ATOM     13  H   UNL     1       4.892   6.446  60.028  0.00  0.00    +0.000 HD
BRANCH   9  15
ATOM     14 CL   UNL     1       2.986   0.977  65.990  0.00  0.00    +0.000 Cl
ATOM     15  C   UNL     1       3.997   4.062  62.852  0.00  0.00    +0.000 A 
ATOM     16  C   UNL     1       4.442   1.884  63.857  0.00  0.00    +0.000 A 
ATOM     17  C   UNL     1       4.719   2.869  62.902  0.00  0.00    +0.000 A 
ATOM     18  C   UNL     1       2.978   4.274  63.775  0.00  0.00    +0.000 A 
ATOM     19  C   UNL     1       3.414   2.117  64.773  0.00  0.00    +0.000 A 
ATOM     20  C   UNL     1       2.686   3.305  64.731  0.00  0.00    +0.000 A 
BRANCH  16  24
ATOM     21  F   UNL     1       4.523  -0.479  63.543  0.00  0.00    +0.000 F 
ATOM     22  F   UNL     1       6.273   0.655  62.952  0.00  0.00    +0.000 F 
ATOM     23  F   UNL     1       5.819   0.358  65.065  0.00  0.00    +0.000 F 
ATOM     24  C   UNL     1       5.256   0.628  63.856  0.00  0.00    +0.000 C 
ENDBRANCH  16  24
ENDBRANCH   9  15
ENDBRANCH   2  10
BRANCH   3  25
ATOM     25  O   UNL     1       7.714  11.825  60.336  0.00  0.00    +0.000 OA
BRANCH  25  27
ATOM     26  N   UNL     1      10.501  13.044  63.191  0.00  0.00    +0.000 NA
ATOM     27  C   UNL     1       8.577  12.271  61.312  0.00  0.00    +0.000 A 
ATOM     28  C   UNL     1       8.216  12.409  62.648  0.00  0.00    +0.000 A 
ATOM     29  C   UNL     1       9.204  12.804  63.534  0.00  0.00    +0.000 A 
ATOM     30  C   UNL     1       9.894  12.483  60.916  0.00  0.00    +0.000 A 
ATOM     31  C   UNL     1      10.806  12.871  61.884  0.00  0.00    +0.000 A 
BRANCH  29  34
ATOM     32  O   UNL     1       7.863  13.639  65.284  0.00  0.00    +0.000 OA
ATOM     33  N   UNL     1       9.767  12.391  65.817  0.00  0.00    +0.000 N 
ATOM     34  C   UNL     1       8.859  12.997  64.966  0.00  0.00    +0.000 C 
ATOM     35  C   UNL     1       9.831  12.324  67.252  0.00  0.00    +0.000 C 
ATOM     36  H   UNL     1      10.529  11.908  65.343  0.00  0.00    +0.000 HD
ENDBRANCH  29  34
ENDBRANCH  25  27
ENDBRANCH   3  25
TORSDOF 6
ENDMDL
MODEL 6
REMARK VINA RESULT:      -4.4      5.580      7.707
REMARK  Name = 11167602_Regorafenib.pdbqt.pdb
REMARK  6 active torsions:
REMARK  status: ('A' for Active; 'I' for Inactive)
REMARK    1  A    between atoms: C_2  and  N_10
REMARK    2  A    between atoms: C_3  and  O_25
REMARK    3  A    between atoms: N_9  and  C_15
REMARK    4  A    between atoms: C_16  and  C_24
REMARK    5  A    between atoms: O_25  and  C_27
REMARK    6  A    between atoms: C_29  and  C_34
REMARK                            x       y       z     vdW  Elec       q    Type
REMARK                         _______ _______ _______ _____ _____    ______ ____
ROOT
ATOM      1  F   UNL     1       3.881   9.371  61.278  0.00  0.00    +0.000 F 
ATOM      2  C   UNL     1       5.821   8.206  60.586  0.00  0.00    +0.000 A 
ATOM      3  C   UNL     1       7.094  10.668  60.223  0.00  0.00    +0.000 A 
ATOM      4  C   UNL     1       5.150   9.405  60.844  0.00  0.00    +0.000 A 
ATOM      5  C   UNL     1       7.134   8.258  60.122  0.00  0.00    +0.000 A 
ATOM      6  C   UNL     1       5.768  10.636  60.654  0.00  0.00    +0.000 A 
ATOM      7  C   UNL     1       7.768   9.485  59.927  0.00  0.00    +0.000 A 
ENDROOT
BRANCH   2  10
ATOM      8  O   UNL     1       5.489   6.753  63.079  0.00  0.00    +0.000 OA
ATOM      9  N   UNL     1       4.243   5.200  61.904  0.00  0.00    +0.000 N 
ATOM     10  N   UNL     1       5.135   6.994  60.810  0.00  0.00    +0.000 N 
ATOM     11  C   UNL     1       5.001   6.354  62.030  0.00  0.00    +0.000 C 
ATOM     12  H   UNL     1       3.864   4.982  60.994  0.00  0.00    +0.000 HD
ATOM     13  H   UNL     1       4.725   6.566  59.991  0.00  0.00    +0.000 HD
BRANCH   9  15
ATOM     14 CL   UNL     1       2.807   1.555  66.344  0.00  0.00    +0.000 Cl
ATOM     15  C   UNL     1       3.926   4.313  62.949  0.00  0.00    +0.000 A 
ATOM     16  C   UNL     1       2.515   3.852  64.885  0.00  0.00    +0.000 A 
ATOM     17  C   UNL     1       2.897   4.675  63.819  0.00  0.00    +0.000 A 
ATOM     18  C   UNL     1       4.586   3.105  63.148  0.00  0.00    +0.000 A 
ATOM     19  C   UNL     1       3.191   2.644  65.068  0.00  0.00    +0.000 A 
ATOM     20  C   UNL     1       4.221   2.274  64.203  0.00  0.00    +0.000 A 
BRANCH  16  24
ATOM     21  F   UNL     1       1.796   4.459  67.077  0.00  0.00    +0.000 F 
ATOM     22  F   UNL     1       0.876   5.500  65.413  0.00  0.00    +0.000 F 
ATOM     23  F   UNL     1       0.367   3.419  65.823  0.00  0.00    +0.000 F 
ATOM     24  C   UNL     1       1.403   4.300  65.780  0.00  0.00    +0.000 C 
ENDBRANCH  16  24
ENDBRANCH   9  15
ENDBRANCH   2  10
BRANCH   3  25
ATOM     25  O   UNL     1       7.743  11.848  59.942  0.00  0.00    +0.000 OA
BRANCH  25  27
ATOM     26  N   UNL     1      11.067  12.780  62.285  0.00  0.00    +0.000 NA
ATOM     27  C   UNL     1       8.796  12.210  60.752  0.00  0.00    +0.000 A 
ATOM     28  C   UNL     1       8.657  12.498  62.105  0.00  0.00    +0.000 A 
ATOM     29  C   UNL     1       9.811  12.783  62.815  0.00  0.00    +0.000 A 
ATOM     30  C   UNL     1      10.059  12.172  60.170  0.00  0.00    +0.000 A 
ATOM     31  C   UNL     1      11.151  12.468  60.971  0.00  0.00    +0.000 A 
BRANCH  29  34
ATOM     32  O   UNL     1       9.093  12.403  65.028  0.00  0.00    +0.000 OA
ATOM     33  N   UNL     1      10.366  14.309  64.566  0.00  0.00    +0.000 N 
ATOM     34  C   UNL     1       9.710  13.130  64.256  0.00  0.00    +0.000 C 
ATOM     35  C   UNL     1      10.523  15.014  65.809  0.00  0.00    +0.000 C 
ATOM     36  H   UNL     1      10.815  14.761  63.770  0.00  0.00    +0.000 HD
ENDBRANCH  29  34
ENDBRANCH  25  27
ENDBRANCH   3  25
TORSDOF 6
ENDMDL
MODEL 7
REMARK VINA RESULT:      -4.4      5.398      7.271
REMARK  Name = 11167602_Regorafenib.pdbqt.pdb
REMARK  6 active torsions:
REMARK  status: ('A' for Active; 'I' for Inactive)
REMARK    1  A    between atoms: C_2  and  N_10
REMARK    2  A    between atoms: C_3  and  O_25
REMARK    3  A    between atoms: N_9  and  C_15
REMARK    4  A    between atoms: C_16  and  C_24
REMARK    5  A    between atoms: O_25  and  C_27
REMARK    6  A    between atoms: C_29  and  C_34
REMARK                            x       y       z     vdW  Elec       q    Type
REMARK                         _______ _______ _______ _____ _____    ______ ____
ROOT
ATOM      1  F   UNL     1       3.443   8.552  61.835  0.00  0.00    +0.000 F 
ATOM      2  C   UNL     1       5.364   7.512  60.925  0.00  0.00    +0.000 A 
ATOM      3  C   UNL     1       6.448  10.048  60.474  0.00  0.00    +0.000 A 
ATOM      4  C   UNL     1       4.656   8.666  61.272  0.00  0.00    +0.000 A 
ATOM      5  C   UNL     1       6.616   7.647  60.328  0.00  0.00    +0.000 A 
ATOM      6  C   UNL     1       5.179   9.934  61.040  0.00  0.00    +0.000 A 
ATOM      7  C   UNL     1       7.154   8.911  60.090  0.00  0.00    +0.000 A 
ENDROOT
BRANCH   2  10
ATOM      8  O   UNL     1       5.350   6.030  63.423  0.00  0.00    +0.000 OA
ATOM      9  N   UNL     1       4.099   4.409  62.350  0.00  0.00    +0.000 N 
ATOM     10  N   UNL     1       4.776   6.258  61.198  0.00  0.00    +0.000 N 
ATOM     11  C   UNL     1       4.794   5.606  62.419  0.00  0.00    +0.000 C 
ATOM     12  H   UNL     1       3.653   4.171  61.476  0.00  0.00    +0.000 HD
ATOM     13  H   UNL     1       4.320   5.810  60.415  0.00  0.00    +0.000 HD
BRANCH   9  15
ATOM     14 CL   UNL     1       3.284   0.648  66.851  0.00  0.00    +0.000 Cl
ATOM     15  C   UNL     1       3.933   3.498  63.411  0.00  0.00    +0.000 A 
ATOM     16  C   UNL     1       2.597   2.821  65.336  0.00  0.00    +0.000 A 
ATOM     17  C   UNL     1       2.839   3.679  64.257  0.00  0.00    +0.000 A 
ATOM     18  C   UNL     1       4.803   2.438  63.647  0.00  0.00    +0.000 A 
ATOM     19  C   UNL     1       3.483   1.764  65.556  0.00  0.00    +0.000 A 
ATOM     20  C   UNL     1       4.580   1.575  64.715  0.00  0.00    +0.000 A 
BRANCH  16  24
ATOM     21  F   UNL     1       1.736   3.328  67.502  0.00  0.00    +0.000 F 
ATOM     22  F   UNL     1       0.669   4.143  65.800  0.00  0.00    +0.000 F 
ATOM     23  F   UNL     1       0.551   2.012  66.253  0.00  0.00    +0.000 F 
ATOM     24  C   UNL     1       1.404   3.071  66.204  0.00  0.00    +0.000 C 
ENDBRANCH  16  24
ENDBRANCH   9  15
ENDBRANCH   2  10
BRANCH   3  25
ATOM     25  O   UNL     1       6.994  11.268  60.148  0.00  0.00    +0.000 OA
BRANCH  25  27
ATOM     26  N   UNL     1      10.130  12.757  62.463  0.00  0.00    +0.000 NA
ATOM     27  C   UNL     1       8.076  11.703  60.880  0.00  0.00    +0.000 A 
ATOM     28  C   UNL     1       9.361  11.809  60.358  0.00  0.00    +0.000 A 
ATOM     29  C   UNL     1      10.342  12.327  61.187  0.00  0.00    +0.000 A 
ATOM     30  C   UNL     1       7.805  12.150  62.170  0.00  0.00    +0.000 A 
ATOM     31  C   UNL     1       8.858  12.657  62.914  0.00  0.00    +0.000 A 
BRANCH  29  34
ATOM     32  O   UNL     1      11.995  12.177  59.513  0.00  0.00    +0.000 OA
ATOM     33  N   UNL     1      12.628  12.815  61.672  0.00  0.00    +0.000 N 
ATOM     34  C   UNL     1      11.737  12.428  60.686  0.00  0.00    +0.000 C 
ATOM     35  C   UNL     1      14.049  13.031  61.640  0.00  0.00    +0.000 C 
ATOM     36  H   UNL     1      12.203  12.970  62.585  0.00  0.00    +0.000 HD
ENDBRANCH  29  34
ENDBRANCH  25  27
ENDBRANCH   3  25
TORSDOF 6
ENDMDL
MODEL 8
REMARK VINA RESULT:      -4.3      2.917      3.406
REMARK  Name = 11167602_Regorafenib.pdbqt.pdb
REMARK  6 active torsions:
REMARK  status: ('A' for Active; 'I' for Inactive)
REMARK    1  A    between atoms: C_2  and  N_10
REMARK    2  A    between atoms: C_3  and  O_25
REMARK    3  A    between atoms: N_9  and  C_15
REMARK    4  A    between atoms: C_16  and  C_24
REMARK    5  A    between atoms: O_25  and  C_27
REMARK    6  A    between atoms: C_29  and  C_34
REMARK                            x       y       z     vdW  Elec       q    Type
REMARK                         _______ _______ _______ _____ _____    ______ ____
ROOT
ATOM      1  F   UNL     1       2.900   2.720  62.507  0.00  0.00    +0.000 F 
ATOM      2  C   UNL     1       3.787   4.865  62.973  0.00  0.00    +0.000 A 
ATOM      3  C   UNL     1       4.352   5.154  60.251  0.00  0.00    +0.000 A 
ATOM      4  C   UNL     1       3.480   3.847  62.065  0.00  0.00    +0.000 A 
ATOM      5  C   UNL     1       4.402   6.023  62.500  0.00  0.00    +0.000 A 
ATOM      6  C   UNL     1       3.768   3.973  60.710  0.00  0.00    +0.000 A 
ATOM      7  C   UNL     1       4.697   6.165  61.144  0.00  0.00    +0.000 A 
ENDROOT
BRANCH   2  10
ATOM      8  O   UNL     1       1.200   5.155  64.261  0.00  0.00    +0.000 OA
ATOM      9  N   UNL     1       2.215   4.524  66.240  0.00  0.00    +0.000 N 
ATOM     10  N   UNL     1       3.457   4.672  64.331  0.00  0.00    +0.000 N 
ATOM     11  C   UNL     1       2.196   4.815  64.885  0.00  0.00    +0.000 C 
ATOM     12  H   UNL     1       3.089   4.224  66.646  0.00  0.00    +0.000 HD
ATOM     13  H   UNL     1       4.227   4.422  64.936  0.00  0.00    +0.000 HD
BRANCH   9  15
ATOM     14 CL   UNL     1      -2.450   4.622  69.885  0.00  0.00    +0.000 Cl
ATOM     15  C   UNL     1       1.105   4.581  67.103  0.00  0.00    +0.000 A 
ATOM     16  C   UNL     1      -0.484   3.341  68.477  0.00  0.00    +0.000 A 
ATOM     17  C   UNL     1       0.616   3.377  67.612  0.00  0.00    +0.000 A 
ATOM     18  C   UNL     1       0.484   5.771  67.467  0.00  0.00    +0.000 A 
ATOM     19  C   UNL     1      -1.093   4.547  68.829  0.00  0.00    +0.000 A 
ATOM     20  C   UNL     1      -0.611   5.755  68.326  0.00  0.00    +0.000 A 
BRANCH  16  24
ATOM     21  F   UNL     1      -0.150   0.983  68.610  0.00  0.00    +0.000 F 
ATOM     22  F   UNL     1      -1.006   1.957  70.346  0.00  0.00    +0.000 F 
ATOM     23  F   UNL     1      -2.199   1.686  68.540  0.00  0.00    +0.000 F 
ATOM     24  C   UNL     1      -0.957   2.016  68.988  0.00  0.00    +0.000 C 
ENDBRANCH  16  24
ENDBRANCH   9  15
ENDBRANCH   2  10
BRANCH   3  25
ATOM     25  O   UNL     1       4.733   5.317  58.939  0.00  0.00    +0.000 OA
BRANCH  25  27
ATOM     26  N   UNL     1       8.767   5.650  57.928  0.00  0.00    +0.000 NA
ATOM     27  C   UNL     1       6.081   5.376  58.664  0.00  0.00    +0.000 A 
ATOM     28  C   UNL     1       6.912   4.261  58.670  0.00  0.00    +0.000 A 
ATOM     29  C   UNL     1       8.235   4.454  58.308  0.00  0.00    +0.000 A 
ATOM     30  C   UNL     1       6.572   6.614  58.262  0.00  0.00    +0.000 A 
ATOM     31  C   UNL     1       7.911   6.698  57.914  0.00  0.00    +0.000 A 
BRANCH  29  34
ATOM     32  O   UNL     1      10.382   3.482  58.366  0.00  0.00    +0.000 OA
ATOM     33  N   UNL     1       8.510   2.082  58.305  0.00  0.00    +0.000 N 
ATOM     34  C   UNL     1       9.170   3.299  58.331  0.00  0.00    +0.000 C 
ATOM     35  C   UNL     1       9.002   0.731  58.309  0.00  0.00    +0.000 C 
ATOM     36  H   UNL     1       7.494   2.156  58.273  0.00  0.00    +0.000 HD
ENDBRANCH  29  34
ENDBRANCH  25  27
ENDBRANCH   3  25
TORSDOF 6
ENDMDL
MODEL 9
REMARK VINA RESULT:      -4.3     15.604     18.069
REMARK  Name = 11167602_Regorafenib.pdbqt.pdb
REMARK  6 active torsions:
REMARK  status: ('A' for Active; 'I' for Inactive)
REMARK    1  A    between atoms: C_2  and  N_10
REMARK    2  A    between atoms: C_3  and  O_25
REMARK    3  A    between atoms: N_9  and  C_15
REMARK    4  A    between atoms: C_16  and  C_24
REMARK    5  A    between atoms: O_25  and  C_27
REMARK    6  A    between atoms: C_29  and  C_34
REMARK                            x       y       z     vdW  Elec       q    Type
REMARK                         _______ _______ _______ _____ _____    ______ ____
ROOT
ATOM      1  F   UNL     1      20.394   9.966  58.600  0.00  0.00    +0.000 F 
ATOM      2  C   UNL     1      18.129   9.874  59.282  0.00  0.00    +0.000 A 
ATOM      3  C   UNL     1      18.958  10.431  61.893  0.00  0.00    +0.000 A 
ATOM      4  C   UNL     1      19.483  10.055  59.582  0.00  0.00    +0.000 A 
ATOM      5  C   UNL     1      17.197   9.955  60.315  0.00  0.00    +0.000 A 
ATOM      6  C   UNL     1      19.909  10.319  60.879  0.00  0.00    +0.000 A 
ATOM      7  C   UNL     1      17.608  10.220  61.621  0.00  0.00    +0.000 A 
ENDROOT
BRANCH   2  10
ATOM      8  O   UNL     1      17.263  11.765  57.255  0.00  0.00    +0.000 OA
ATOM      9  N   UNL     1      17.119   9.985  55.785  0.00  0.00    +0.000 N 
ATOM     10  N   UNL     1      17.769   9.619  57.942  0.00  0.00    +0.000 N 
ATOM     11  C   UNL     1      17.374  10.570  57.016  0.00  0.00    +0.000 C 
ATOM     12  H   UNL     1      17.271   8.992  55.694  0.00  0.00    +0.000 HD
ATOM     13  H   UNL     1      17.795   8.649  57.660  0.00  0.00    +0.000 HD
BRANCH   9  15
ATOM     14 CL   UNL     1      15.413  12.787  50.855  0.00  0.00    +0.000 Cl
ATOM     15  C   UNL     1      16.689  10.667  54.631  0.00  0.00    +0.000 A 
ATOM     16  C   UNL     1      17.027  11.072  52.250  0.00  0.00    +0.000 A 
ATOM     17  C   UNL     1      17.386  10.438  53.445  0.00  0.00    +0.000 A 
ATOM     18  C   UNL     1      15.612  11.546  54.623  0.00  0.00    +0.000 A 
ATOM     19  C   UNL     1      15.943  11.952  52.264  0.00  0.00    +0.000 A 
ATOM     20  C   UNL     1      15.240  12.188  53.445  0.00  0.00    +0.000 A 
BRANCH  16  24
ATOM     21  F   UNL     1      18.838   9.903  51.229  0.00  0.00    +0.000 F 
ATOM     22  F   UNL     1      17.067  10.224  50.023  0.00  0.00    +0.000 F 
ATOM     23  F   UNL     1      18.400  11.888  50.480  0.00  0.00    +0.000 F 
ATOM     24  C   UNL     1      17.816  10.781  51.013  0.00  0.00    +0.000 C 
ENDBRANCH  16  24
ENDBRANCH   9  15
ENDBRANCH   2  10
BRANCH   3  25
ATOM     25  O   UNL     1      19.312  10.615  63.209  0.00  0.00    +0.000 OA
BRANCH  25  27
ATOM     26  N   UNL     1      18.260   7.826  66.129  0.00  0.00    +0.000 NA
ATOM     27  C   UNL     1      18.949   9.642  64.115  0.00  0.00    +0.000 A 
ATOM     28  C   UNL     1      19.302   8.304  63.983  0.00  0.00    +0.000 A 
ATOM     29  C   UNL     1      18.928   7.445  65.003  0.00  0.00    +0.000 A 
ATOM     30  C   UNL     1      18.288  10.083  65.256  0.00  0.00    +0.000 A 
ATOM     31  C   UNL     1      17.964   9.143  66.221  0.00  0.00    +0.000 A 
BRANCH  29  34
ATOM     32  O   UNL     1      19.011   5.387  63.857  0.00  0.00    +0.000 OA
ATOM     33  N   UNL     1      19.822   5.494  66.047  0.00  0.00    +0.000 N 
ATOM     34  C   UNL     1      19.253   6.000  64.892  0.00  0.00    +0.000 C 
ATOM     35  C   UNL     1      20.282   4.174  66.384  0.00  0.00    +0.000 C 
ATOM     36  H   UNL     1      19.932   6.177  66.795  0.00  0.00    +0.000 HD
ENDBRANCH  29  34
ENDBRANCH  25  27
ENDBRANCH   3  25
TORSDOF 6
ENDMDL
