MODEL 1
REMARK VINA RESULT:      -5.1      0.000      0.000
REMARK  Name = 114778_Kahweol.pdbqt.pdb
REMARK  3 active torsions:
REMARK  status: ('A' for Active; 'I' for Inactive)
REMARK    1  A    between atoms: C_8  and  O_21
REMARK    2  A    between atoms: C_8  and  C_23
REMARK    3  A    between atoms: C_23  and  O_24
REMARK                            x       y       z     vdW  Elec       q    Type
REMARK                         _______ _______ _______ _____ _____    ______ ____
ROOT
ATOM      1  O   UNL     1      12.134   3.258  74.875  0.00  0.00    +0.000 OA
ATOM      2  C   UNL     1       6.266   3.668  77.025  0.00  0.00    +0.000 C 
ATOM      3  C   UNL     1       7.535   4.550  77.404  0.00  0.00    +0.000 C 
ATOM      4  C   UNL     1       4.684   5.273  77.831  0.00  0.00    +0.000 C 
ATOM      5  C   UNL     1       5.240   3.930  78.070  0.00  0.00    +0.000 C 
ATOM      6  C   UNL     1       5.548   4.335  75.918  0.00  0.00    +0.000 C 
ATOM      7  C   UNL     1       8.922   3.931  77.610  0.00  0.00    +0.000 C 
ATOM      8  C   UNL     1       4.446   5.256  76.264  0.00  0.00    +0.000 C 
ATOM      9  C   UNL     1       6.688   2.314  76.775  0.00  0.00    +0.000 C 
ATOM     10  C   UNL     1       7.149   5.827  77.981  0.00  0.00    +0.000 C 
ATOM     11  C   UNL     1       5.696   6.222  78.273  0.00  0.00    +0.000 C 
ATOM     12  C   UNL     1       9.185   2.517  76.853  0.00  0.00    +0.000 C 
ATOM     13  C   UNL     1       8.047   1.701  76.658  0.00  0.00    +0.000 C 
ATOM     14  C   UNL     1       9.140   3.661  79.134  0.00  0.00    +0.000 C 
ATOM     15  C   UNL     1       9.955   4.861  77.074  0.00  0.00    +0.000 C 
ATOM     16  C   UNL     1      10.332   2.428  75.980  0.00  0.00    +0.000 A 
ATOM     17  C   UNL     1      10.889   4.770  76.327  0.00  0.00    +0.000 C 
ATOM     18  C   UNL     1      11.142   3.518  75.739  0.00  0.00    +0.000 A 
ATOM     19  C   UNL     1      10.872   1.394  75.189  0.00  0.00    +0.000 A 
ATOM     20  C   UNL     1      11.974   1.936  74.541  0.00  0.00    +0.000 A 
ENDROOT
BRANCH   8  21
ATOM     21  O   UNL     1       3.207   4.638  75.964  0.00  0.00    +0.000 OA
ATOM     22  H   UNL     1       2.739   4.555  76.812  0.00  0.00    +0.000 HD
ENDBRANCH   8  21
BRANCH   8  23
ATOM     23  C   UNL     1       4.505   6.579  75.631  0.00  0.00    +0.000 C 
BRANCH  23  24
ATOM     24  O   UNL     1       4.543   7.786  75.064  0.00  0.00    +0.000 OA
ATOM     25  H   UNL     1       3.677   8.019  74.685  0.00  0.00    +0.000 HD
ENDBRANCH  23  24
ENDBRANCH   8  23
TORSDOF 3
ENDMDL
MODEL 2
REMARK VINA RESULT:      -4.4     24.665     26.866
REMARK  Name = 114778_Kahweol.pdbqt.pdb
REMARK  3 active torsions:
REMARK  status: ('A' for Active; 'I' for Inactive)
REMARK    1  A    between atoms: C_8  and  O_21
REMARK    2  A    between atoms: C_8  and  C_23
REMARK    3  A    between atoms: C_23  and  O_24
REMARK                            x       y       z     vdW  Elec       q    Type
REMARK                         _______ _______ _______ _____ _____    ______ ____
ROOT
ATOM      1  O   UNL     1      19.019   1.833  52.734  0.00  0.00    +0.000 OA
ATOM      2  C   UNL     1      20.197   7.967  53.188  0.00  0.00    +0.000 C 
ATOM      3  C   UNL     1      19.206   7.208  52.201  0.00  0.00    +0.000 C 
ATOM      4  C   UNL     1      19.136  10.094  52.907  0.00  0.00    +0.000 C 
ATOM      5  C   UNL     1      20.372   9.339  52.641  0.00  0.00    +0.000 C 
ATOM      6  C   UNL     1      19.439   8.367  54.394  0.00  0.00    +0.000 C 
ATOM      7  C   UNL     1      19.589   5.889  51.521  0.00  0.00    +0.000 C 
ATOM      8  C   UNL     1      18.840   9.717  54.418  0.00  0.00    +0.000 C 
ATOM      9  C   UNL     1      21.357   7.146  53.419  0.00  0.00    +0.000 C 
ATOM     10  C   UNL     1      18.186   8.100  51.672  0.00  0.00    +0.000 C 
ATOM     11  C   UNL     1      18.143   9.605  51.962  0.00  0.00    +0.000 C 
ATOM     12  C   UNL     1      20.721   5.005  52.282  0.00  0.00    +0.000 C 
ATOM     13  C   UNL     1      21.666   5.732  53.040  0.00  0.00    +0.000 C 
ATOM     14  C   UNL     1      20.154   6.193  50.096  0.00  0.00    +0.000 C 
ATOM     15  C   UNL     1      18.388   5.011  51.449  0.00  0.00    +0.000 C 
ATOM     16  C   UNL     1      20.396   3.633  52.602  0.00  0.00    +0.000 A 
ATOM     17  C   UNL     1      18.133   3.877  51.744  0.00  0.00    +0.000 C 
ATOM     18  C   UNL     1      19.150   3.106  52.336  0.00  0.00    +0.000 A 
ATOM     19  C   UNL     1      21.106   2.588  53.227  0.00  0.00    +0.000 A 
ATOM     20  C   UNL     1      20.237   1.507  53.278  0.00  0.00    +0.000 A 
ENDROOT
BRANCH   8  21
ATOM     21  O   UNL     1      19.591  10.547  55.286  0.00  0.00    +0.000 OA
ATOM     22  H   UNL     1      19.269  11.451  55.133  0.00  0.00    +0.000 HD
ENDBRANCH   8  21
BRANCH   8  23
ATOM     23  C   UNL     1      17.419   9.772  54.785  0.00  0.00    +0.000 C 
BRANCH  23  24
ATOM     24  O   UNL     1      16.134   9.829  55.136  0.00  0.00    +0.000 OA
ATOM     25  H   UNL     1      16.035  10.187  56.036  0.00  0.00    +0.000 HD
ENDBRANCH  23  24
ENDBRANCH   8  23
TORSDOF 3
ENDMDL
MODEL 3
REMARK VINA RESULT:      -4.3     15.654     17.215
REMARK  Name = 114778_Kahweol.pdbqt.pdb
REMARK  3 active torsions:
REMARK  status: ('A' for Active; 'I' for Inactive)
REMARK    1  A    between atoms: C_8  and  O_21
REMARK    2  A    between atoms: C_8  and  C_23
REMARK    3  A    between atoms: C_23  and  O_24
REMARK                            x       y       z     vdW  Elec       q    Type
REMARK                         _______ _______ _______ _____ _____    ______ ____
ROOT
ATOM      1  O   UNL     1       6.614   1.400  60.915  0.00  0.00    +0.000 OA
ATOM      2  C   UNL     1       6.865   7.475  59.417  0.00  0.00    +0.000 C 
ATOM      3  C   UNL     1       5.620   6.617  59.913  0.00  0.00    +0.000 C 
ATOM      4  C   UNL     1       5.871   9.578  59.985  0.00  0.00    +0.000 C 
ATOM      5  C   UNL     1       6.313   8.739  58.858  0.00  0.00    +0.000 C 
ATOM      6  C   UNL     1       7.511   8.087  60.599  0.00  0.00    +0.000 C 
ATOM      7  C   UNL     1       5.360   5.194  59.406  0.00  0.00    +0.000 C 
ATOM      8  C   UNL     1       7.092   9.449  60.988  0.00  0.00    +0.000 C 
ATOM      9  C   UNL     1       7.712   6.651  58.595  0.00  0.00    +0.000 C 
ATOM     10  C   UNL     1       4.572   7.460  60.466  0.00  0.00    +0.000 C 
ATOM     11  C   UNL     1       4.631   8.993  60.473  0.00  0.00    +0.000 C 
ATOM     12  C   UNL     1       6.663   4.390  58.862  0.00  0.00    +0.000 C 
ATOM     13  C   UNL     1       7.690   5.184  58.303  0.00  0.00    +0.000 C 
ATOM     14  C   UNL     1       4.351   5.253  58.215  0.00  0.00    +0.000 C 
ATOM     15  C   UNL     1       4.828   4.367  60.525  0.00  0.00    +0.000 C 
ATOM     16  C   UNL     1       6.945   3.099  59.446  0.00  0.00    +0.000 A 
ATOM     17  C   UNL     1       5.094   3.304  61.010  0.00  0.00    +0.000 C 
ATOM     18  C   UNL     1       6.182   2.590  60.476  0.00  0.00    +0.000 A 
ATOM     19  C   UNL     1       7.948   2.132  59.227  0.00  0.00    +0.000 A 
ATOM     20  C   UNL     1       7.704   1.109  60.134  0.00  0.00    +0.000 A 
ENDROOT
BRANCH   8  21
ATOM     21  O   UNL     1       8.111  10.370  60.640  0.00  0.00    +0.000 OA
ATOM     22  H   UNL     1       8.561  10.595  61.471  0.00  0.00    +0.000 HD
ENDBRANCH   8  21
BRANCH   8  23
ATOM     23  C   UNL     1       6.732   9.620  62.401  0.00  0.00    +0.000 C 
BRANCH  23  24
ATOM     24  O   UNL     1       6.408   9.758  63.688  0.00  0.00    +0.000 OA
ATOM     25  H   UNL     1       7.200   9.922  64.230  0.00  0.00    +0.000 HD
ENDBRANCH  23  24
ENDBRANCH   8  23
TORSDOF 3
ENDMDL
MODEL 4
REMARK VINA RESULT:      -4.1      8.854     11.827
REMARK  Name = 114778_Kahweol.pdbqt.pdb
REMARK  3 active torsions:
REMARK  status: ('A' for Active; 'I' for Inactive)
REMARK    1  A    between atoms: C_8  and  O_21
REMARK    2  A    between atoms: C_8  and  C_23
REMARK    3  A    between atoms: C_23  and  O_24
REMARK                            x       y       z     vdW  Elec       q    Type
REMARK                         _______ _______ _______ _____ _____    ______ ____
ROOT
ATOM      1  O   UNL     1       2.356   6.821  64.899  0.00  0.00    +0.000 OA
ATOM      2  C   UNL     1       2.225  10.809  69.726  0.00  0.00    +0.000 C 
ATOM      3  C   UNL     1       2.057   9.227  69.730  0.00  0.00    +0.000 C 
ATOM      4  C   UNL     1       2.771  10.938  72.053  0.00  0.00    +0.000 C 
ATOM      5  C   UNL     1       1.750  11.290  71.052  0.00  0.00    +0.000 C 
ATOM      6  C   UNL     1       3.654  11.128  69.938  0.00  0.00    +0.000 C 
ATOM      7  C   UNL     1       1.233   8.495  68.666  0.00  0.00    +0.000 C 
ATOM      8  C   UNL     1       4.110  11.370  71.322  0.00  0.00    +0.000 C 
ATOM      9  C   UNL     1       1.633  11.346  68.528  0.00  0.00    +0.000 C 
ATOM     10  C   UNL     1       2.333   8.660  71.041  0.00  0.00    +0.000 C 
ATOM     11  C   UNL     1       2.650   9.505  72.281  0.00  0.00    +0.000 C 
ATOM     12  C   UNL     1       1.065   9.268  67.246  0.00  0.00    +0.000 C 
ATOM     13  C   UNL     1       1.084  10.680  67.306  0.00  0.00    +0.000 C 
ATOM     14  C   UNL     1      -0.213   8.260  69.211  0.00  0.00    +0.000 C 
ATOM     15  C   UNL     1       1.900   7.205  68.333  0.00  0.00    +0.000 C 
ATOM     16  C   UNL     1       1.459   8.562  66.048  0.00  0.00    +0.000 A 
ATOM     17  C   UNL     1       2.241   6.648  67.328  0.00  0.00    +0.000 C 
ATOM     18  C   UNL     1       2.020   7.304  66.104  0.00  0.00    +0.000 A 
ATOM     19  C   UNL     1       1.447   8.893  64.678  0.00  0.00    +0.000 A 
ATOM     20  C   UNL     1       1.991   7.803  64.012  0.00  0.00    +0.000 A 
ENDROOT
BRANCH   8  21
ATOM     21  O   UNL     1       4.341  12.756  71.503  0.00  0.00    +0.000 OA
ATOM     22  H   UNL     1       5.306  12.870  71.484  0.00  0.00    +0.000 HD
ENDBRANCH   8  21
BRANCH   8  23
ATOM     23  C   UNL     1       5.296  10.612  71.739  0.00  0.00    +0.000 C 
BRANCH  23  24
ATOM     24  O   UNL     1       6.376   9.918  72.100  0.00  0.00    +0.000 OA
ATOM     25  H   UNL     1       7.188  10.430  71.939  0.00  0.00    +0.000 HD
ENDBRANCH  23  24
ENDBRANCH   8  23
TORSDOF 3
ENDMDL
MODEL 5
REMARK VINA RESULT:      -3.9     21.345     24.395
REMARK  Name = 114778_Kahweol.pdbqt.pdb
REMARK  3 active torsions:
REMARK  status: ('A' for Active; 'I' for Inactive)
REMARK    1  A    between atoms: C_8  and  O_21
REMARK    2  A    between atoms: C_8  and  C_23
REMARK    3  A    between atoms: C_23  and  O_24
REMARK                            x       y       z     vdW  Elec       q    Type
REMARK                         _______ _______ _______ _____ _____    ______ ____
ROOT
ATOM      1  O   UNL     1      18.158   7.458  51.920  0.00  0.00    +0.000 OA
ATOM      2  C   UNL     1      20.128   9.602  57.464  0.00  0.00    +0.000 C 
ATOM      3  C   UNL     1      19.175  10.304  56.401  0.00  0.00    +0.000 C 
ATOM      4  C   UNL     1      19.426  10.995  59.280  0.00  0.00    +0.000 C 
ATOM      5  C   UNL     1      20.566  10.666  58.408  0.00  0.00    +0.000 C 
ATOM      6  C   UNL     1      19.285   8.864  58.429  0.00  0.00    +0.000 C 
ATOM      7  C   UNL     1      19.451  10.238  54.894  0.00  0.00    +0.000 C 
ATOM      8  C   UNL     1      18.886   9.557  59.671  0.00  0.00    +0.000 C 
ATOM      9  C   UNL     1      21.119   8.822  56.770  0.00  0.00    +0.000 C 
ATOM     10  C   UNL     1      18.370  11.352  57.008  0.00  0.00    +0.000 C 
ATOM     11  C   UNL     1      18.504  11.782  58.475  0.00  0.00    +0.000 C 
ATOM     12  C   UNL     1      20.337   8.971  54.394  0.00  0.00    +0.000 C 
ATOM     13  C   UNL     1      21.270   8.464  55.326  0.00  0.00    +0.000 C 
ATOM     14  C   UNL     1      20.233  11.520  54.461  0.00  0.00    +0.000 C 
ATOM     15  C   UNL     1      18.157  10.123  54.166  0.00  0.00    +0.000 C 
ATOM     16  C   UNL     1      19.782   8.134  53.355  0.00  0.00    +0.000 A 
ATOM     17  C   UNL     1      17.707   9.402  53.321  0.00  0.00    +0.000 C 
ATOM     18  C   UNL     1      18.519   8.355  52.848  0.00  0.00    +0.000 A 
ATOM     19  C   UNL     1      20.249   6.990  52.677  0.00  0.00    +0.000 A 
ATOM     20  C   UNL     1      19.236   6.616  51.805  0.00  0.00    +0.000 A 
ENDROOT
BRANCH   8  21
ATOM     21  O   UNL     1      19.629   9.034  60.759  0.00  0.00    +0.000 OA
ATOM     22  H   UNL     1      20.555   9.020  60.466  0.00  0.00    +0.000 HD
ENDBRANCH   8  21
BRANCH   8  23
ATOM     23  C   UNL     1      17.452   9.516  59.986  0.00  0.00    +0.000 C 
BRANCH  23  24
ATOM     24  O   UNL     1      16.147   9.473  60.255  0.00  0.00    +0.000 OA
ATOM     25  H   UNL     1      15.965   8.869  60.997  0.00  0.00    +0.000 HD
ENDBRANCH  23  24
ENDBRANCH   8  23
TORSDOF 3
ENDMDL
MODEL 6
REMARK VINA RESULT:      -3.9     23.920     26.108
REMARK  Name = 114778_Kahweol.pdbqt.pdb
REMARK  3 active torsions:
REMARK  status: ('A' for Active; 'I' for Inactive)
REMARK    1  A    between atoms: C_8  and  O_21
REMARK    2  A    between atoms: C_8  and  C_23
REMARK    3  A    between atoms: C_23  and  O_24
REMARK                            x       y       z     vdW  Elec       q    Type
REMARK                         _______ _______ _______ _____ _____    ______ ____
ROOT
ATOM      1  O   UNL     1      18.016   6.837  49.822  0.00  0.00    +0.000 OA
ATOM      2  C   UNL     1      16.464  10.749  54.459  0.00  0.00    +0.000 C 
ATOM      3  C   UNL     1      16.815  11.082  52.944  0.00  0.00    +0.000 C 
ATOM      4  C   UNL     1      15.347  12.830  54.846  0.00  0.00    +0.000 C 
ATOM      5  C   UNL     1      16.534  12.035  55.204  0.00  0.00    +0.000 C 
ATOM      6  C   UNL     1      14.999  10.574  54.571  0.00  0.00    +0.000 C 
ATOM      7  C   UNL     1      17.960  10.383  52.202  0.00  0.00    +0.000 C 
ATOM      8  C   UNL     1      14.189  11.752  54.942  0.00  0.00    +0.000 C 
ATOM      9  C   UNL     1      17.265   9.635  54.898  0.00  0.00    +0.000 C 
ATOM     10  C   UNL     1      16.295  12.380  52.543  0.00  0.00    +0.000 C 
ATOM     11  C   UNL     1      15.581  13.340  53.503  0.00  0.00    +0.000 C 
ATOM     12  C   UNL     1      18.379   8.919  52.770  0.00  0.00    +0.000 C 
ATOM     13  C   UNL     1      18.176   8.712  54.153  0.00  0.00    +0.000 C 
ATOM     14  C   UNL     1      19.243  11.271  52.289  0.00  0.00    +0.000 C 
ATOM     15  C   UNL     1      17.557  10.154  50.787  0.00  0.00    +0.000 C 
ATOM     16  C   UNL     1      18.383   7.815  51.837  0.00  0.00    +0.000 A 
ATOM     17  C   UNL     1      17.546   9.219  50.037  0.00  0.00    +0.000 C 
ATOM     18  C   UNL     1      17.982   7.976  50.528  0.00  0.00    +0.000 A 
ATOM     19  C   UNL     1      18.694   6.445  51.956  0.00  0.00    +0.000 A 
ATOM     20  C   UNL     1      18.468   5.888  50.705  0.00  0.00    +0.000 A 
ENDROOT
BRANCH   8  21
ATOM     21  O   UNL     1      13.754  11.618  56.284  0.00  0.00    +0.000 OA
ATOM     22  H   UNL     1      13.675  10.662  56.443  0.00  0.00    +0.000 HD
ENDBRANCH   8  21
BRANCH   8  23
ATOM     23  C   UNL     1      13.037  12.026  54.074  0.00  0.00    +0.000 C 
BRANCH  23  24
ATOM     24  O   UNL     1      11.998  12.264  53.272  0.00  0.00    +0.000 OA
ATOM     25  H   UNL     1      11.357  11.531  53.307  0.00  0.00    +0.000 HD
ENDBRANCH  23  24
ENDBRANCH   8  23
TORSDOF 3
ENDMDL
MODEL 7
REMARK VINA RESULT:      -3.9     18.999     21.067
REMARK  Name = 114778_Kahweol.pdbqt.pdb
REMARK  3 active torsions:
REMARK  status: ('A' for Active; 'I' for Inactive)
REMARK    1  A    between atoms: C_8  and  O_21
REMARK    2  A    between atoms: C_8  and  C_23
REMARK    3  A    between atoms: C_23  and  O_24
REMARK                            x       y       z     vdW  Elec       q    Type
REMARK                         _______ _______ _______ _____ _____    ______ ____
ROOT
ATOM      1  O   UNL     1      19.696  10.283  55.714  0.00  0.00    +0.000 OA
ATOM      2  C   UNL     1      15.960  11.500  60.590  0.00  0.00    +0.000 C 
ATOM      3  C   UNL     1      17.019  12.450  59.880  0.00  0.00    +0.000 C 
ATOM      4  C   UNL     1      14.765  13.301  61.619  0.00  0.00    +0.000 C 
ATOM      5  C   UNL     1      15.625  12.137  61.892  0.00  0.00    +0.000 C 
ATOM      6  C   UNL     1      14.640  11.717  59.957  0.00  0.00    +0.000 C 
ATOM      7  C   UNL     1      18.393  11.942  59.428  0.00  0.00    +0.000 C 
ATOM      8  C   UNL     1      13.734  12.708  60.571  0.00  0.00    +0.000 C 
ATOM      9  C   UNL     1      16.450  10.146  60.572  0.00  0.00    +0.000 C 
ATOM     10  C   UNL     1      16.749  13.854  60.148  0.00  0.00    +0.000 C 
ATOM     11  C   UNL     1      15.633  14.339  61.083  0.00  0.00    +0.000 C 
ATOM     12  C   UNL     1      18.494  10.346  59.136  0.00  0.00    +0.000 C 
ATOM     13  C   UNL     1      17.627   9.524  59.891  0.00  0.00    +0.000 C 
ATOM     14  C   UNL     1      19.444  12.251  60.543  0.00  0.00    +0.000 C 
ATOM     15  C   UNL     1      18.759  12.600  58.144  0.00  0.00    +0.000 C 
ATOM     16  C   UNL     1      18.984   9.932  57.841  0.00  0.00    +0.000 A 
ATOM     17  C   UNL     1      19.142  12.233  57.069  0.00  0.00    +0.000 C 
ATOM     18  C   UNL     1      19.293  10.850  56.859  0.00  0.00    +0.000 A 
ATOM     19  C   UNL     1      19.216   8.675  57.247  0.00  0.00    +0.000 A 
ATOM     20  C   UNL     1      19.659   8.932  55.957  0.00  0.00    +0.000 A 
ENDROOT
BRANCH   8  21
ATOM     21  O   UNL     1      12.686  12.032  61.244  0.00  0.00    +0.000 OA
ATOM     22  H   UNL     1      12.957  11.983  62.176  0.00  0.00    +0.000 HD
ENDBRANCH   8  21
BRANCH   8  23
ATOM     23  C   UNL     1      13.170  13.704  59.651  0.00  0.00    +0.000 C 
BRANCH  23  24
ATOM     24  O   UNL     1      12.666  14.622  58.825  0.00  0.00    +0.000 OA
ATOM     25  H   UNL     1      13.003  14.497  57.920  0.00  0.00    +0.000 HD
ENDBRANCH  23  24
ENDBRANCH   8  23
TORSDOF 3
ENDMDL
MODEL 8
REMARK VINA RESULT:      -3.9     15.500     17.560
REMARK  Name = 114778_Kahweol.pdbqt.pdb
REMARK  3 active torsions:
REMARK  status: ('A' for Active; 'I' for Inactive)
REMARK    1  A    between atoms: C_8  and  O_21
REMARK    2  A    between atoms: C_8  and  C_23
REMARK    3  A    between atoms: C_23  and  O_24
REMARK                            x       y       z     vdW  Elec       q    Type
REMARK                         _______ _______ _______ _____ _____    ______ ____
ROOT
ATOM      1  O   UNL     1       5.134   7.082  63.231  0.00  0.00    +0.000 OA
ATOM      2  C   UNL     1       8.241  11.543  60.122  0.00  0.00    +0.000 C 
ATOM      3  C   UNL     1       7.121  11.698  61.241  0.00  0.00    +0.000 C 
ATOM      4  C   UNL     1       9.080  13.768  60.397  0.00  0.00    +0.000 C 
ATOM      5  C   UNL     1       8.373  12.872  59.466  0.00  0.00    +0.000 C 
ATOM      6  C   UNL     1       9.565  11.553  60.782  0.00  0.00    +0.000 C 
ATOM      7  C   UNL     1       5.876  10.806  61.273  0.00  0.00    +0.000 C 
ATOM      8  C   UNL     1      10.268  12.847  60.900  0.00  0.00    +0.000 C 
ATOM      9  C   UNL     1       7.950  10.385  59.317  0.00  0.00    +0.000 C 
ATOM     10  C   UNL     1       7.168  13.008  61.871  0.00  0.00    +0.000 C 
ATOM     11  C   UNL     1       8.122  14.126  61.433  0.00  0.00    +0.000 C 
ATOM     12  C   UNL     1       6.025   9.358  60.550  0.00  0.00    +0.000 C 
ATOM     13  C   UNL     1       6.934   9.298  59.469  0.00  0.00    +0.000 C 
ATOM     14  C   UNL     1       4.702  11.540  60.547  0.00  0.00    +0.000 C 
ATOM     15  C   UNL     1       5.529  10.503  62.689  0.00  0.00    +0.000 C 
ATOM     16  C   UNL     1       5.708   8.184  61.331  0.00  0.00    +0.000 A 
ATOM     17  C   UNL     1       5.292   9.514  63.324  0.00  0.00    +0.000 C 
ATOM     18  C   UNL     1       5.356   8.275  62.661  0.00  0.00    +0.000 A 
ATOM     19  C   UNL     1       5.707   6.802  61.049  0.00  0.00    +0.000 A 
ATOM     20  C   UNL     1       5.341   6.168  62.229  0.00  0.00    +0.000 A 
ENDROOT
BRANCH   8  21
ATOM     21  O   UNL     1      11.341  12.883  59.975  0.00  0.00    +0.000 OA
ATOM     22  H   UNL     1      12.150  12.766  60.501  0.00  0.00    +0.000 HD
ENDBRANCH   8  21
BRANCH   8  23
ATOM     23  C   UNL     1      10.761  13.178  62.243  0.00  0.00    +0.000 C 
BRANCH  23  24
ATOM     24  O   UNL     1      11.202  13.496  63.461  0.00  0.00    +0.000 OA
ATOM     25  H   UNL     1      10.469  13.519  64.101  0.00  0.00    +0.000 HD
ENDBRANCH  23  24
ENDBRANCH   8  23
TORSDOF 3
ENDMDL
MODEL 9
REMARK VINA RESULT:      -3.7      8.717     11.845
REMARK  Name = 114778_Kahweol.pdbqt.pdb
REMARK  3 active torsions:
REMARK  status: ('A' for Active; 'I' for Inactive)
REMARK    1  A    between atoms: C_8  and  O_21
REMARK    2  A    between atoms: C_8  and  C_23
REMARK    3  A    between atoms: C_23  and  O_24
REMARK                            x       y       z     vdW  Elec       q    Type
REMARK                         _______ _______ _______ _____ _____    ______ ____
ROOT
ATOM      1  O   UNL     1       7.563  12.893  71.573  0.00  0.00    +0.000 OA
ATOM      2  C   UNL     1      13.597  11.428  70.763  0.00  0.00    +0.000 C 
ATOM      3  C   UNL     1      12.441  10.570  71.441  0.00  0.00    +0.000 C 
ATOM      4  C   UNL     1      15.023   9.542  70.388  0.00  0.00    +0.000 C 
ATOM      5  C   UNL     1      14.884  10.791  71.155  0.00  0.00    +0.000 C 
ATOM      6  C   UNL     1      13.666  11.066  69.330  0.00  0.00    +0.000 C 
ATOM      7  C   UNL     1      11.402  11.202  72.374  0.00  0.00    +0.000 C 
ATOM      8  C   UNL     1      14.612  10.005  68.929  0.00  0.00    +0.000 C 
ATOM      9  C   UNL     1      13.384  12.822  71.049  0.00  0.00    +0.000 C 
ATOM     10  C   UNL     1      12.769   9.154  71.471  0.00  0.00    +0.000 C 
ATOM     11  C   UNL     1      14.110   8.583  70.992  0.00  0.00    +0.000 C 
ATOM     12  C   UNL     1      11.140  12.792  72.166  0.00  0.00    +0.000 C 
ATOM     13  C   UNL     1      12.239  13.542  71.689  0.00  0.00    +0.000 C 
ATOM     14  C   UNL     1      11.871  11.024  73.855  0.00  0.00    +0.000 C 
ATOM     15  C   UNL     1      10.082  10.553  72.145  0.00  0.00    +0.000 C 
ATOM     16  C   UNL     1       9.780  13.222  71.934  0.00  0.00    +0.000 A 
ATOM     17  C   UNL     1       8.965  10.930  71.929  0.00  0.00    +0.000 C 
ATOM     18  C   UNL     1       8.746  12.316  71.825  0.00  0.00    +0.000 A 
ATOM     19  C   UNL     1       9.182  14.481  71.729  0.00  0.00    +0.000 A 
ATOM     20  C   UNL     1       7.830  14.239  71.524  0.00  0.00    +0.000 A 
ENDROOT
BRANCH   8  21
ATOM     21  O   UNL     1      15.721  10.589  68.270  0.00  0.00    +0.000 OA
ATOM     22  H   UNL     1      16.399   9.895  68.224  0.00  0.00    +0.000 HD
ENDBRANCH   8  21
BRANCH   8  23
ATOM     23  C   UNL     1      14.047   8.937  68.095  0.00  0.00    +0.000 C 
BRANCH  23  24
ATOM     24  O   UNL     1      13.519   7.976  67.335  0.00  0.00    +0.000 OA
ATOM     25  H   UNL     1      13.758   8.102  66.400  0.00  0.00    +0.000 HD
ENDBRANCH  23  24
ENDBRANCH   8  23
TORSDOF 3
ENDMDL
