MODEL 1
REMARK VINA RESULT:      -2.6      0.000      0.000
REMARK  Name = 1174_Uracil.pdbqt.pdb
REMARK  0 active torsions:
REMARK  status: ('A' for Active; 'I' for Inactive)
REMARK                            x       y       z     vdW  Elec       q    Type
REMARK                         _______ _______ _______ _____ _____    ______ ____
ROOT
ATOM      1  O   UNL     1      18.809   9.517  57.578  0.00  0.00    +0.000 OA
ATOM      2  O   UNL     1      15.686  10.170  60.939  0.00  0.00    +0.000 OA
ATOM      3  N   UNL     1      17.204   9.860  59.206  0.00  0.00    +0.000 N 
ATOM      4  N   UNL     1      19.367   9.178  59.795  0.00  0.00    +0.000 N 
ATOM      5  C   UNL     1      18.489   9.518  58.760  0.00  0.00    +0.000 A 
ATOM      6  C   UNL     1      16.802   9.873  60.540  0.00  0.00    +0.000 A 
ATOM      7  C   UNL     1      18.964   9.195  61.076  0.00  0.00    +0.000 A 
ATOM      8  C   UNL     1      17.865   9.490  61.432  0.00  0.00    +0.000 A 
ATOM      9  H   UNL     1      16.523  10.115  58.510  0.00  0.00    +0.000 HD
ATOM     10  H   UNL     1      20.316   8.918  59.554  0.00  0.00    +0.000 HD
ENDROOT
TORSDOF 0
ENDMDL
MODEL 2
REMARK VINA RESULT:      -2.6      9.912     10.746
REMARK  Name = 1174_Uracil.pdbqt.pdb
REMARK  0 active torsions:
REMARK  status: ('A' for Active; 'I' for Inactive)
REMARK                            x       y       z     vdW  Elec       q    Type
REMARK                         _______ _______ _______ _____ _____    ______ ____
ROOT
ATOM      1  O   UNL     1      10.988   5.726  57.921  0.00  0.00    +0.000 OA
ATOM      2  O   UNL     1       9.411   1.457  58.795  0.00  0.00    +0.000 OA
ATOM      3  N   UNL     1      10.268   3.574  58.360  0.00  0.00    +0.000 N 
ATOM      4  N   UNL     1       8.719   5.306  58.052  0.00  0.00    +0.000 N 
ATOM      5  C   UNL     1      10.068   4.937  58.096  0.00  0.00    +0.000 A 
ATOM      6  C   UNL     1       9.249   2.646  58.565  0.00  0.00    +0.000 A 
ATOM      7  C   UNL     1       7.749   4.399  58.252  0.00  0.00    +0.000 A 
ATOM      8  C   UNL     1       7.942   3.244  58.475  0.00  0.00    +0.000 A 
ATOM      9  H   UNL     1      11.218   3.243  58.405  0.00  0.00    +0.000 HD
ATOM     10  H   UNL     1       8.492   6.275  57.866  0.00  0.00    +0.000 HD
ENDROOT
TORSDOF 0
ENDMDL
MODEL 3
REMARK VINA RESULT:      -2.3      9.963     11.018
REMARK  Name = 1174_Uracil.pdbqt.pdb
REMARK  0 active torsions:
REMARK  status: ('A' for Active; 'I' for Inactive)
REMARK                            x       y       z     vdW  Elec       q    Type
REMARK                         _______ _______ _______ _____ _____    ______ ____
ROOT
ATOM      1  O   UNL     1      13.511   8.532  72.065  0.00  0.00    +0.000 OA
ATOM      2  O   UNL     1      13.434  11.643  68.631  0.00  0.00    +0.000 OA
ATOM      3  N   UNL     1      13.452  10.132  70.398  0.00  0.00    +0.000 N 
ATOM      4  N   UNL     1      14.101   7.934  69.912  0.00  0.00    +0.000 N 
ATOM      5  C   UNL     1      13.675   8.838  70.890  0.00  0.00    +0.000 A 
ATOM      6  C   UNL     1      13.626  10.520  69.071  0.00  0.00    +0.000 A 
ATOM      7  C   UNL     1      14.264   8.323  68.637  0.00  0.00    +0.000 A 
ATOM      8  C   UNL     1      14.069   9.430  68.240  0.00  0.00    +0.000 A 
ATOM      9  H   UNL     1      13.143  10.832  71.053  0.00  0.00    +0.000 HD
ATOM     10  H   UNL     1      14.283   6.977  70.189  0.00  0.00    +0.000 HD
ENDROOT
TORSDOF 0
ENDMDL
MODEL 4
REMARK VINA RESULT:      -2.3     10.279     11.109
REMARK  Name = 1174_Uracil.pdbqt.pdb
REMARK  0 active torsions:
REMARK  status: ('A' for Active; 'I' for Inactive)
REMARK                            x       y       z     vdW  Elec       q    Type
REMARK                         _______ _______ _______ _____ _____    ______ ____
ROOT
ATOM      1  O   UNL     1       7.309   2.063  57.948  0.00  0.00    +0.000 OA
ATOM      2  O   UNL     1       7.950   6.651  58.018  0.00  0.00    +0.000 OA
ATOM      3  N   UNL     1       7.560   4.360  57.973  0.00  0.00    +0.000 N 
ATOM      4  N   UNL     1       9.417   2.958  58.254  0.00  0.00    +0.000 N 
ATOM      5  C   UNL     1       8.035   3.043  58.050  0.00  0.00    +0.000 A 
ATOM      6  C   UNL     1       8.353   5.500  58.084  0.00  0.00    +0.000 A 
ATOM      7  C   UNL     1      10.168   4.067  58.359  0.00  0.00    +0.000 A 
ATOM      8  C   UNL     1       9.742   5.178  58.290  0.00  0.00    +0.000 A 
ATOM      9  H   UNL     1       6.572   4.490  57.827  0.00  0.00    +0.000 HD
ATOM     10  H   UNL     1       9.838   2.040  58.321  0.00  0.00    +0.000 HD
ENDROOT
TORSDOF 0
ENDMDL
MODEL 5
REMARK VINA RESULT:      -2.2     16.869     17.541
REMARK  Name = 1174_Uracil.pdbqt.pdb
REMARK  0 active torsions:
REMARK  status: ('A' for Active; 'I' for Inactive)
REMARK                            x       y       z     vdW  Elec       q    Type
REMARK                         _______ _______ _______ _____ _____    ______ ____
ROOT
ATOM      1  O   UNL     1       2.362   6.794  63.983  0.00  0.00    +0.000 OA
ATOM      2  O   UNL     1       2.243   4.339  67.911  0.00  0.00    +0.000 OA
ATOM      3  N   UNL     1       2.321   5.512  65.906  0.00  0.00    +0.000 N 
ATOM      4  N   UNL     1       1.832   7.803  65.993  0.00  0.00    +0.000 N 
ATOM      5  C   UNL     1       2.186   6.712  65.191  0.00  0.00    +0.000 A 
ATOM      6  C   UNL     1       2.129   5.379  67.280  0.00  0.00    +0.000 A 
ATOM      7  C   UNL     1       1.651   7.657  67.316  0.00  0.00    +0.000 A 
ATOM      8  C   UNL     1       1.771   6.626  67.903  0.00  0.00    +0.000 A 
ATOM      9  H   UNL     1       2.575   4.688  65.387  0.00  0.00    +0.000 HD
ATOM     10  H   UNL     1       1.715   8.706  65.551  0.00  0.00    +0.000 HD
ENDROOT
TORSDOF 0
ENDMDL
MODEL 6
REMARK VINA RESULT:      -2.2      9.067      9.860
REMARK  Name = 1174_Uracil.pdbqt.pdb
REMARK  0 active torsions:
REMARK  status: ('A' for Active; 'I' for Inactive)
REMARK                            x       y       z     vdW  Elec       q    Type
REMARK                         _______ _______ _______ _____ _____    ______ ____
ROOT
ATOM      1  O   UNL     1      17.001   9.805  69.974  0.00  0.00    +0.000 OA
ATOM      2  O   UNL     1      13.536   8.402  67.235  0.00  0.00    +0.000 OA
ATOM      3  N   UNL     1      15.312   9.051  68.588  0.00  0.00    +0.000 N 
ATOM      4  N   UNL     1      15.022  10.993  69.867  0.00  0.00    +0.000 N 
ATOM      5  C   UNL     1      15.874   9.940  69.516  0.00  0.00    +0.000 A 
ATOM      6  C   UNL     1      14.035   9.170  68.045  0.00  0.00    +0.000 A 
ATOM      7  C   UNL     1      13.793  11.093  69.334  0.00  0.00    +0.000 A 
ATOM      8  C   UNL     1      13.336  10.325  68.546  0.00  0.00    +0.000 A 
ATOM      9  H   UNL     1      15.875   8.269  68.294  0.00  0.00    +0.000 HD
ATOM     10  H   UNL     1      15.355  11.679  70.533  0.00  0.00    +0.000 HD
ENDROOT
TORSDOF 0
ENDMDL
MODEL 7
REMARK VINA RESULT:      -2.2      9.320      9.759
REMARK  Name = 1174_Uracil.pdbqt.pdb
REMARK  0 active torsions:
REMARK  status: ('A' for Active; 'I' for Inactive)
REMARK                            x       y       z     vdW  Elec       q    Type
REMARK                         _______ _______ _______ _____ _____    ______ ____
ROOT
ATOM      1  O   UNL     1      14.768  -0.224  62.271  0.00  0.00    +0.000 OA
ATOM      2  O   UNL     1      18.707   2.111  61.557  0.00  0.00    +0.000 OA
ATOM      3  N   UNL     1      16.708   0.960  61.852  0.00  0.00    +0.000 N 
ATOM      4  N   UNL     1      16.428  -0.184  63.878  0.00  0.00    +0.000 N 
ATOM      5  C   UNL     1      15.874   0.151  62.638  0.00  0.00    +0.000 A 
ATOM      6  C   UNL     1      17.972   1.407  62.233  0.00  0.00    +0.000 A 
ATOM      7  C   UNL     1      17.647   0.256  64.231  0.00  0.00    +0.000 A 
ATOM      8  C   UNL     1      18.339   0.943  63.546  0.00  0.00    +0.000 A 
ATOM      9  H   UNL     1      16.368   1.237  60.946  0.00  0.00    +0.000 HD
ATOM     10  H   UNL     1      15.886  -0.766  64.505  0.00  0.00    +0.000 HD
ENDROOT
TORSDOF 0
ENDMDL
MODEL 8
REMARK VINA RESULT:      -2.0      3.703      5.263
REMARK  Name = 1174_Uracil.pdbqt.pdb
REMARK  0 active torsions:
REMARK  status: ('A' for Active; 'I' for Inactive)
REMARK                            x       y       z     vdW  Elec       q    Type
REMARK                         _______ _______ _______ _____ _____    ______ ____
ROOT
ATOM      1  O   UNL     1      17.241  11.866  58.233  0.00  0.00    +0.000 OA
ATOM      2  O   UNL     1      17.967   8.596  55.031  0.00  0.00    +0.000 OA
ATOM      3  N   UNL     1      17.651  10.206  56.678  0.00  0.00    +0.000 N 
ATOM      4  N   UNL     1      16.060  11.872  56.247  0.00  0.00    +0.000 N 
ATOM      5  C   UNL     1      17.003  11.359  57.145  0.00  0.00    +0.000 A 
ATOM      6  C   UNL     1      17.408   9.599  55.448  0.00  0.00    +0.000 A 
ATOM      7  C   UNL     1      15.838  11.275  55.064  0.00  0.00    +0.000 A 
ATOM      8  C   UNL     1      16.401  10.294  54.688  0.00  0.00    +0.000 A 
ATOM      9  H   UNL     1      18.343   9.786  57.278  0.00  0.00    +0.000 HD
ATOM     10  H   UNL     1      15.549  12.705  56.511  0.00  0.00    +0.000 HD
ENDROOT
TORSDOF 0
ENDMDL
MODEL 9
REMARK VINA RESULT:      -2.0      9.308      9.899
REMARK  Name = 1174_Uracil.pdbqt.pdb
REMARK  0 active torsions:
REMARK  status: ('A' for Active; 'I' for Inactive)
REMARK                            x       y       z     vdW  Elec       q    Type
REMARK                         _______ _______ _______ _____ _____    ______ ____
ROOT
ATOM      1  O   UNL     1      17.298   0.680  65.674  0.00  0.00    +0.000 OA
ATOM      2  O   UNL     1      18.776   2.009  61.489  0.00  0.00    +0.000 OA
ATOM      3  N   UNL     1      18.088   1.377  63.617  0.00  0.00    +0.000 N 
ATOM      4  N   UNL     1      16.176   0.030  63.762  0.00  0.00    +0.000 N 
ATOM      5  C   UNL     1      17.195   0.693  64.455  0.00  0.00    +0.000 A 
ATOM      6  C   UNL     1      18.005   1.417  62.227  0.00  0.00    +0.000 A 
ATOM      7  C   UNL     1      16.110   0.078  62.421  0.00  0.00    +0.000 A 
ATOM      8  C   UNL     1      16.881   0.666  61.729  0.00  0.00    +0.000 A 
ATOM      9  H   UNL     1      18.846   1.876  64.055  0.00  0.00    +0.000 HD
ATOM     10  H   UNL     1      15.490  -0.488  64.296  0.00  0.00    +0.000 HD
ENDROOT
TORSDOF 0
ENDMDL
