MODEL 1
REMARK VINA RESULT:      -4.6      0.000      0.000
REMARK  Name = 122178712_SalternamideA.pdbqt.pdb
REMARK  8 active torsions:
REMARK  status: ('A' for Active; 'I' for Inactive)
REMARK    1  A    between atoms: C_3  and  O_24
REMARK    2  A    between atoms: C_3  and  C_26
REMARK    3  A    between atoms: C_6  and  N_10
REMARK    4  A    between atoms: C_11  and  C_14
REMARK    5  A    between atoms: C_13  and  C_15
REMARK    6  A    between atoms: C_27  and  C_28
REMARK    7  A    between atoms: C_29  and  C_31
REMARK    8  A    between atoms: C_31  and  O_32
REMARK                            x       y       z     vdW  Elec       q    Type
REMARK                         _______ _______ _______ _____ _____    ______ ____
ROOT
ATOM      1 CL   UNL     1      18.710   7.395  70.971  0.00  0.00    +0.000 Cl
ATOM      2  O   UNL     1      16.566   6.037  72.842  0.00  0.00    +0.000 OA
ATOM      3  C   UNL     1      15.919   5.613  68.604  0.00  0.00    +0.000 C 
ATOM      4  C   UNL     1      15.178   5.082  69.760  0.00  0.00    +0.000 C 
ATOM      5  C   UNL     1      16.967   6.342  69.337  0.00  0.00    +0.000 C 
ATOM      6  C   UNL     1      15.233   5.124  71.060  0.00  0.00    +0.000 C 
ATOM      7  C   UNL     1      17.282   6.574  70.578  0.00  0.00    +0.000 C 
ATOM      8  C   UNL     1      16.397   5.940  71.633  0.00  0.00    +0.000 C 
ENDROOT
BRANCH   6  10
ATOM      9  O   UNL     1      15.532   2.572  72.454  0.00  0.00    +0.000 OA
ATOM     10  N   UNL     1      14.368   4.510  71.928  0.00  0.00    +0.000 N 
ATOM     11  C   UNL     1      14.560   3.306  72.559  0.00  0.00    +0.000 C 
ATOM     12  H   UNL     1      13.502   5.015  72.107  0.00  0.00    +0.000 HD
BRANCH  11  14
ATOM     13  C   UNL     1      12.587   2.549  74.150  0.00  0.00    +0.000 C 
ATOM     14  C   UNL     1      13.480   2.900  73.427  0.00  0.00    +0.000 C 
BRANCH  13  15
ATOM     15  C   UNL     1      11.539   2.131  75.007  0.00  0.00    +0.000 C 
ATOM     16  C   UNL     1      11.189   0.670  75.035  0.00  0.00    +0.000 C 
ATOM     17  C   UNL     1      10.759   2.993  75.802  0.00  0.00    +0.000 C 
ATOM     18  C   UNL     1       9.973   3.844  76.605  0.00  0.00    +0.000 C 
ATOM     19  C   UNL     1      10.515   5.210  76.905  0.00  0.00    +0.000 C 
ATOM     20  C   UNL     1       8.710   3.511  77.123  0.00  0.00    +0.000 C 
ATOM     21  C   UNL     1       7.548   3.210  77.593  0.00  0.00    +0.000 C 
ATOM     22  C   UNL     1       7.447   2.513  78.914  0.00  0.00    +0.000 C 
ATOM     23  C   UNL     1       6.360   3.247  76.682  0.00  0.00    +0.000 C 
ENDBRANCH  13  15
ENDBRANCH  11  14
ENDBRANCH   6  10
BRANCH   3  24
ATOM     24  O   UNL     1      15.106   6.538  67.912  0.00  0.00    +0.000 OA
ATOM     25  H   UNL     1      14.706   6.043  67.176  0.00  0.00    +0.000 HD
ENDBRANCH   3  24
BRANCH   3  26
ATOM     26  C   UNL     1      16.424   4.593  67.692  0.00  0.00    +0.000 C 
ATOM     27  C   UNL     1      16.950   3.524  66.731  0.00  0.00    +0.000 C 
BRANCH  27  28
ATOM     28  C   UNL     1      17.473   2.455  65.766  0.00  0.00    +0.000 C 
ATOM     29  C   UNL     1      17.993   1.386  64.801  0.00  0.00    +0.000 C 
BRANCH  29  31
ATOM     30  O   UNL     1      19.660   0.111  63.773  0.00  0.00    +0.000 OA
ATOM     31  C   UNL     1      18.480   0.388  63.898  0.00  0.00    +0.000 C 
BRANCH  31  32
ATOM     32  O   UNL     1      17.515  -0.225  63.189  0.00  0.00    +0.000 OA
ATOM     33  H   UNL     1      17.277   0.434  62.505  0.00  0.00    +0.000 HD
ENDBRANCH  31  32
ENDBRANCH  29  31
ENDBRANCH  27  28
ENDBRANCH   3  26
TORSDOF 8
ENDMDL
MODEL 2
REMARK VINA RESULT:      -4.5      3.723      4.735
REMARK  Name = 122178712_SalternamideA.pdbqt.pdb
REMARK  8 active torsions:
REMARK  status: ('A' for Active; 'I' for Inactive)
REMARK    1  A    between atoms: C_3  and  O_24
REMARK    2  A    between atoms: C_3  and  C_26
REMARK    3  A    between atoms: C_6  and  N_10
REMARK    4  A    between atoms: C_11  and  C_14
REMARK    5  A    between atoms: C_13  and  C_15
REMARK    6  A    between atoms: C_27  and  C_28
REMARK    7  A    between atoms: C_29  and  C_31
REMARK    8  A    between atoms: C_31  and  O_32
REMARK                            x       y       z     vdW  Elec       q    Type
REMARK                         _______ _______ _______ _____ _____    ______ ____
ROOT
ATOM      1 CL   UNL     1      18.622   5.688  71.446  0.00  0.00    +0.000 Cl
ATOM      2  O   UNL     1      16.286   3.736  72.267  0.00  0.00    +0.000 OA
ATOM      3  C   UNL     1      16.333   5.003  68.150  0.00  0.00    +0.000 C 
ATOM      4  C   UNL     1      15.449   4.074  68.873  0.00  0.00    +0.000 C 
ATOM      5  C   UNL     1      17.213   5.376  69.270  0.00  0.00    +0.000 C 
ATOM      6  C   UNL     1      15.297   3.606  70.078  0.00  0.00    +0.000 C 
ATOM      7  C   UNL     1      17.318   5.103  70.537  0.00  0.00    +0.000 C 
ATOM      8  C   UNL     1      16.313   4.120  71.105  0.00  0.00    +0.000 C 
ENDROOT
BRANCH   6  10
ATOM      9  O   UNL     1      15.306   0.689  69.891  0.00  0.00    +0.000 OA
ATOM     10  N   UNL     1      14.341   2.714  70.487  0.00  0.00    +0.000 N 
ATOM     11  C   UNL     1      14.397   1.347  70.375  0.00  0.00    +0.000 C 
ATOM     12  H   UNL     1      13.514   3.130  70.912  0.00  0.00    +0.000 HD
BRANCH  11  14
ATOM     13  C   UNL     1      12.278   0.083  71.331  0.00  0.00    +0.000 C 
ATOM     14  C   UNL     1      13.244   0.650  70.897  0.00  0.00    +0.000 C 
BRANCH  13  15
ATOM     15  C   UNL     1      11.134  -0.581  71.838  0.00  0.00    +0.000 C 
ATOM     16  C   UNL     1      11.142  -1.003  73.280  0.00  0.00    +0.000 C 
ATOM     17  C   UNL     1      10.000  -0.925  71.076  0.00  0.00    +0.000 C 
ATOM     18  C   UNL     1       8.859  -1.273  70.326  0.00  0.00    +0.000 C 
ATOM     19  C   UNL     1       8.637  -0.554  69.027  0.00  0.00    +0.000 C 
ATOM     20  C   UNL     1       7.929  -2.259  70.697  0.00  0.00    +0.000 C 
ATOM     21  C   UNL     1       7.079  -3.168  71.033  0.00  0.00    +0.000 C 
ATOM     22  C   UNL     1       5.917  -2.803  71.903  0.00  0.00    +0.000 C 
ATOM     23  C   UNL     1       7.439  -4.609  70.842  0.00  0.00    +0.000 C 
ENDBRANCH  13  15
ENDBRANCH  11  14
ENDBRANCH   6  10
BRANCH   3  24
ATOM     24  O   UNL     1      15.592   6.135  67.745  0.00  0.00    +0.000 OA
ATOM     25  H   UNL     1      15.154   6.468  68.547  0.00  0.00    +0.000 HD
ENDBRANCH   3  24
BRANCH   3  26
ATOM     26  C   UNL     1      17.027   4.413  67.012  0.00  0.00    +0.000 C 
ATOM     27  C   UNL     1      17.761   3.790  65.821  0.00  0.00    +0.000 C 
BRANCH  27  28
ATOM     28  C   UNL     1      18.496   3.165  64.632  0.00  0.00    +0.000 C 
ATOM     29  C   UNL     1      19.235   2.542  63.443  0.00  0.00    +0.000 C 
BRANCH  29  31
ATOM     30  O   UNL     1      20.614   0.958  62.420  0.00  0.00    +0.000 OA
ATOM     31  C   UNL     1      19.925   1.960  62.333  0.00  0.00    +0.000 C 
BRANCH  31  32
ATOM     32  O   UNL     1      19.748   2.616  61.173  0.00  0.00    +0.000 OA
ATOM     33  H   UNL     1      18.851   3.000  61.260  0.00  0.00    +0.000 HD
ENDBRANCH  31  32
ENDBRANCH  29  31
ENDBRANCH  27  28
ENDBRANCH   3  26
TORSDOF 8
ENDMDL
MODEL 3
REMARK VINA RESULT:      -4.4      6.017     12.658
REMARK  Name = 122178712_SalternamideA.pdbqt.pdb
REMARK  8 active torsions:
REMARK  status: ('A' for Active; 'I' for Inactive)
REMARK    1  A    between atoms: C_3  and  O_24
REMARK    2  A    between atoms: C_3  and  C_26
REMARK    3  A    between atoms: C_6  and  N_10
REMARK    4  A    between atoms: C_11  and  C_14
REMARK    5  A    between atoms: C_13  and  C_15
REMARK    6  A    between atoms: C_27  and  C_28
REMARK    7  A    between atoms: C_29  and  C_31
REMARK    8  A    between atoms: C_31  and  O_32
REMARK                            x       y       z     vdW  Elec       q    Type
REMARK                         _______ _______ _______ _____ _____    ______ ____
ROOT
ATOM      1 CL   UNL     1      14.527  10.042  70.957  0.00  0.00    +0.000 Cl
ATOM      2  O   UNL     1      15.795  10.154  68.073  0.00  0.00    +0.000 OA
ATOM      3  C   UNL     1      16.750   6.673  70.425  0.00  0.00    +0.000 C 
ATOM      4  C   UNL     1      17.105   7.043  69.045  0.00  0.00    +0.000 C 
ATOM      5  C   UNL     1      15.956   7.864  70.769  0.00  0.00    +0.000 C 
ATOM      6  C   UNL     1      16.914   8.029  68.216  0.00  0.00    +0.000 C 
ATOM      7  C   UNL     1      15.599   8.975  70.194  0.00  0.00    +0.000 C 
ATOM      8  C   UNL     1      16.062   9.180  68.765  0.00  0.00    +0.000 C 
ENDROOT
BRANCH   6  10
ATOM      9  O   UNL     1      19.381   9.260  67.245  0.00  0.00    +0.000 OA
ATOM     10  N   UNL     1      17.387   8.113  66.933  0.00  0.00    +0.000 N 
ATOM     11  C   UNL     1      18.559   8.705  66.531  0.00  0.00    +0.000 C 
ATOM     12  H   UNL     1      16.793   7.689  66.223  0.00  0.00    +0.000 HD
BRANCH  11  14
ATOM     13  C   UNL     1      19.017   8.604  63.927  0.00  0.00    +0.000 C 
ATOM     14  C   UNL     1      18.811   8.642  65.111  0.00  0.00    +0.000 C 
BRANCH  13  15
ATOM     15  C   UNL     1      19.262   8.566  62.533  0.00  0.00    +0.000 C 
ATOM     16  C   UNL     1      20.559   7.974  62.058  0.00  0.00    +0.000 C 
ATOM     17  C   UNL     1      18.399   9.091  61.551  0.00  0.00    +0.000 C 
ATOM     18  C   UNL     1      17.544   9.610  60.557  0.00  0.00    +0.000 C 
ATOM     19  C   UNL     1      16.111   9.848  60.932  0.00  0.00    +0.000 C 
ATOM     20  C   UNL     1      17.944   9.941  59.252  0.00  0.00    +0.000 C 
ATOM     21  C   UNL     1      18.312  10.251  58.056  0.00  0.00    +0.000 C 
ATOM     22  C   UNL     1      18.284   9.207  56.984  0.00  0.00    +0.000 C 
ATOM     23  C   UNL     1      19.069  11.523  57.832  0.00  0.00    +0.000 C 
ENDBRANCH  13  15
ENDBRANCH  11  14
ENDBRANCH   6  10
BRANCH   3  24
ATOM     24  O   UNL     1      17.919   6.649  71.218  0.00  0.00    +0.000 OA
ATOM     25  H   UNL     1      17.733   7.218  71.985  0.00  0.00    +0.000 HD
ENDBRANCH   3  24
BRANCH   3  26
ATOM     26  C   UNL     1      16.025   5.414  70.544  0.00  0.00    +0.000 C 
ATOM     27  C   UNL     1      15.268   4.089  70.669  0.00  0.00    +0.000 C 
BRANCH  27  28
ATOM     28  C   UNL     1      14.515   2.761  70.794  0.00  0.00    +0.000 C 
ATOM     29  C   UNL     1      13.765   1.432  70.920  0.00  0.00    +0.000 C 
BRANCH  29  31
ATOM     30  O   UNL     1      11.886   0.109  71.341  0.00  0.00    +0.000 OA
ATOM     31  C   UNL     1      13.064   0.190  71.039  0.00  0.00    +0.000 C 
BRANCH  31  32
ATOM     32  O   UNL     1      13.821  -0.892  70.788  0.00  0.00    +0.000 OA
ATOM     33  H   UNL     1      13.182  -1.545  70.435  0.00  0.00    +0.000 HD
ENDBRANCH  31  32
ENDBRANCH  29  31
ENDBRANCH  27  28
ENDBRANCH   3  26
TORSDOF 8
ENDMDL
MODEL 4
REMARK VINA RESULT:      -4.4     11.893     16.010
REMARK  Name = 122178712_SalternamideA.pdbqt.pdb
REMARK  8 active torsions:
REMARK  status: ('A' for Active; 'I' for Inactive)
REMARK    1  A    between atoms: C_3  and  O_24
REMARK    2  A    between atoms: C_3  and  C_26
REMARK    3  A    between atoms: C_6  and  N_10
REMARK    4  A    between atoms: C_11  and  C_14
REMARK    5  A    between atoms: C_13  and  C_15
REMARK    6  A    between atoms: C_27  and  C_28
REMARK    7  A    between atoms: C_29  and  C_31
REMARK    8  A    between atoms: C_31  and  O_32
REMARK                            x       y       z     vdW  Elec       q    Type
REMARK                         _______ _______ _______ _____ _____    ______ ____
ROOT
ATOM      1 CL   UNL     1       7.045  16.417  62.909  0.00  0.00    +0.000 Cl
ATOM      2  O   UNL     1       6.553  13.738  61.320  0.00  0.00    +0.000 OA
ATOM      3  C   UNL     1       9.741  13.661  64.217  0.00  0.00    +0.000 C 
ATOM      4  C   UNL     1       9.194  12.610  63.343  0.00  0.00    +0.000 C 
ATOM      5  C   UNL     1       8.860  14.765  63.803  0.00  0.00    +0.000 C 
ATOM      6  C   UNL     1       8.271  12.476  62.434  0.00  0.00    +0.000 C 
ATOM      7  C   UNL     1       7.889  14.949  62.956  0.00  0.00    +0.000 C 
ATOM      8  C   UNL     1       7.462  13.745  62.141  0.00  0.00    +0.000 C 
ENDROOT
BRANCH   6  10
ATOM      9  O   UNL     1       9.308  11.541  59.865  0.00  0.00    +0.000 OA
ATOM     10  N   UNL     1       7.969  11.328  61.749  0.00  0.00    +0.000 N 
ATOM     11  C   UNL     1       8.489  10.936  60.541  0.00  0.00    +0.000 C 
ATOM     12  H   UNL     1       7.286  10.722  62.200  0.00  0.00    +0.000 HD
BRANCH  11  14
ATOM     13  C   UNL     1       7.573   8.626  59.633  0.00  0.00    +0.000 C 
ATOM     14  C   UNL     1       7.992   9.671  60.051  0.00  0.00    +0.000 C 
BRANCH  13  15
ATOM     15  C   UNL     1       7.082   7.395  59.132  0.00  0.00    +0.000 C 
ATOM     16  C   UNL     1       5.597   7.163  59.158  0.00  0.00    +0.000 C 
ATOM     17  C   UNL     1       7.887   6.342  58.656  0.00  0.00    +0.000 C 
ATOM     18  C   UNL     1       8.681   5.282  58.173  0.00  0.00    +0.000 C 
ATOM     19  C   UNL     1      10.091   5.599  57.771  0.00  0.00    +0.000 C 
ATOM     20  C   UNL     1       8.252   3.949  58.064  0.00  0.00    +0.000 C 
ATOM     21  C   UNL     1       7.862   2.724  57.970  0.00  0.00    +0.000 C 
ATOM     22  C   UNL     1       7.177   2.263  56.721  0.00  0.00    +0.000 C 
ATOM     23  C   UNL     1       7.789   1.884  59.208  0.00  0.00    +0.000 C 
ENDBRANCH  13  15
ENDBRANCH  11  14
ENDBRANCH   6  10
BRANCH   3  24
ATOM     24  O   UNL     1      11.066  13.953  63.825  0.00  0.00    +0.000 OA
ATOM     25  H   UNL     1      11.111  13.759  62.873  0.00  0.00    +0.000 HD
ENDBRANCH   3  24
BRANCH   3  26
ATOM     26  C   UNL     1       9.686  13.351  65.640  0.00  0.00    +0.000 C 
ATOM     27  C   UNL     1       9.623  13.021  67.134  0.00  0.00    +0.000 C 
BRANCH  27  28
ATOM     28  C   UNL     1       9.558  12.688  68.627  0.00  0.00    +0.000 C 
ATOM     29  C   UNL     1       9.492  12.351  70.120  0.00  0.00    +0.000 C 
BRANCH  29  31
ATOM     30  O   UNL     1       9.345  12.879  72.392  0.00  0.00    +0.000 OA
ATOM     31  C   UNL     1       9.432  12.037  71.515  0.00  0.00    +0.000 C 
BRANCH  31  32
ATOM     32  O   UNL     1       9.479  10.719  71.781  0.00  0.00    +0.000 OA
ATOM     33  H   UNL     1       9.949  10.344  71.008  0.00  0.00    +0.000 HD
ENDBRANCH  31  32
ENDBRANCH  29  31
ENDBRANCH  27  28
ENDBRANCH   3  26
TORSDOF 8
ENDMDL
MODEL 5
REMARK VINA RESULT:      -4.2      3.663      5.121
REMARK  Name = 122178712_SalternamideA.pdbqt.pdb
REMARK  8 active torsions:
REMARK  status: ('A' for Active; 'I' for Inactive)
REMARK    1  A    between atoms: C_3  and  O_24
REMARK    2  A    between atoms: C_3  and  C_26
REMARK    3  A    between atoms: C_6  and  N_10
REMARK    4  A    between atoms: C_11  and  C_14
REMARK    5  A    between atoms: C_13  and  C_15
REMARK    6  A    between atoms: C_27  and  C_28
REMARK    7  A    between atoms: C_29  and  C_31
REMARK    8  A    between atoms: C_31  and  O_32
REMARK                            x       y       z     vdW  Elec       q    Type
REMARK                         _______ _______ _______ _____ _____    ______ ____
ROOT
ATOM      1 CL   UNL     1      15.193  -0.666  67.583  0.00  0.00    +0.000 Cl
ATOM      2  O   UNL     1      13.145  -0.345  69.958  0.00  0.00    +0.000 OA
ATOM      3  C   UNL     1      16.646   2.160  70.128  0.00  0.00    +0.000 C 
ATOM      4  C   UNL     1      15.470   2.069  71.009  0.00  0.00    +0.000 C 
ATOM      5  C   UNL     1      16.264   1.124  69.153  0.00  0.00    +0.000 C 
ATOM      6  C   UNL     1      14.367   1.382  71.102  0.00  0.00    +0.000 C 
ATOM      7  C   UNL     1      15.279   0.293  68.976  0.00  0.00    +0.000 C 
ATOM      8  C   UNL     1      14.154   0.348  69.990  0.00  0.00    +0.000 C 
ENDROOT
BRANCH   6  10
ATOM      9  O   UNL     1      14.161   0.006  73.673  0.00  0.00    +0.000 OA
ATOM     10  N   UNL     1      13.410   1.513  72.074  0.00  0.00    +0.000 N 
ATOM     11  C   UNL     1      13.362   0.839  73.269  0.00  0.00    +0.000 C 
ATOM     12  H   UNL     1      12.670   2.180  71.866  0.00  0.00    +0.000 HD
BRANCH  11  14
ATOM     13  C   UNL     1      11.310   1.461  74.818  0.00  0.00    +0.000 C 
ATOM     14  C   UNL     1      12.237   1.178  74.108  0.00  0.00    +0.000 C 
BRANCH  13  15
ATOM     15  C   UNL     1      10.221   1.799  75.658  0.00  0.00    +0.000 C 
ATOM     16  C   UNL     1       9.200   0.738  75.956  0.00  0.00    +0.000 C 
ATOM     17  C   UNL     1       9.992   3.080  76.200  0.00  0.00    +0.000 C 
ATOM     18  C   UNL     1       9.751   4.354  76.752  0.00  0.00    +0.000 C 
ATOM     19  C   UNL     1      10.904   5.313  76.809  0.00  0.00    +0.000 C 
ATOM     20  C   UNL     1       8.506   4.797  77.227  0.00  0.00    +0.000 C 
ATOM     21  C   UNL     1       7.362   5.207  77.658  0.00  0.00    +0.000 C 
ATOM     22  C   UNL     1       6.977   4.948  79.082  0.00  0.00    +0.000 C 
ATOM     23  C   UNL     1       6.316   5.621  76.671  0.00  0.00    +0.000 C 
ENDBRANCH  13  15
ENDBRANCH  11  14
ENDBRANCH   6  10
BRANCH   3  24
ATOM     24  O   UNL     1      17.793   1.733  70.834  0.00  0.00    +0.000 OA
ATOM     25  H   UNL     1      17.585   1.851  71.777  0.00  0.00    +0.000 HD
ENDBRANCH   3  24
BRANCH   3  26
ATOM     26  C   UNL     1      16.864   3.478  69.547  0.00  0.00    +0.000 C 
ATOM     27  C   UNL     1      17.089   4.866  68.939  0.00  0.00    +0.000 C 
BRANCH  27  28
ATOM     28  C   UNL     1      17.310   6.256  68.334  0.00  0.00    +0.000 C 
ATOM     29  C   UNL     1      17.528   7.646  67.730  0.00  0.00    +0.000 C 
BRANCH  29  31
ATOM     30  O   UNL     1      16.984   9.448  66.346  0.00  0.00    +0.000 OA
ATOM     31  C   UNL     1      17.733   8.945  67.165  0.00  0.00    +0.000 C 
BRANCH  31  32
ATOM     32  O   UNL     1      18.832   9.572  67.620  0.00  0.00    +0.000 OA
ATOM     33  H   UNL     1      19.293   8.882  68.140  0.00  0.00    +0.000 HD
ENDBRANCH  31  32
ENDBRANCH  29  31
ENDBRANCH  27  28
ENDBRANCH   3  26
TORSDOF 8
ENDMDL
MODEL 6
REMARK VINA RESULT:      -4.2      1.280      2.024
REMARK  Name = 122178712_SalternamideA.pdbqt.pdb
REMARK  8 active torsions:
REMARK  status: ('A' for Active; 'I' for Inactive)
REMARK    1  A    between atoms: C_3  and  O_24
REMARK    2  A    between atoms: C_3  and  C_26
REMARK    3  A    between atoms: C_6  and  N_10
REMARK    4  A    between atoms: C_11  and  C_14
REMARK    5  A    between atoms: C_13  and  C_15
REMARK    6  A    between atoms: C_27  and  C_28
REMARK    7  A    between atoms: C_29  and  C_31
REMARK    8  A    between atoms: C_31  and  O_32
REMARK                            x       y       z     vdW  Elec       q    Type
REMARK                         _______ _______ _______ _____ _____    ______ ____
ROOT
ATOM      1 CL   UNL     1      19.063   6.971  70.711  0.00  0.00    +0.000 Cl
ATOM      2  O   UNL     1      16.820   6.094  72.746  0.00  0.00    +0.000 OA
ATOM      3  C   UNL     1      15.967   5.408  68.579  0.00  0.00    +0.000 C 
ATOM      4  C   UNL     1      15.202   5.087  69.795  0.00  0.00    +0.000 C 
ATOM      5  C   UNL     1      17.132   6.041  69.219  0.00  0.00    +0.000 C 
ATOM      6  C   UNL     1      15.309   5.231  71.085  0.00  0.00    +0.000 C 
ATOM      7  C   UNL     1      17.521   6.330  70.426  0.00  0.00    +0.000 C 
ATOM      8  C   UNL     1      16.595   5.920  71.554  0.00  0.00    +0.000 C 
ENDROOT
BRANCH   6  10
ATOM      9  O   UNL     1      15.347   2.833  72.756  0.00  0.00    +0.000 OA
ATOM     10  N   UNL     1      14.399   4.821  72.024  0.00  0.00    +0.000 N 
ATOM     11  C   UNL     1      14.467   3.681  72.786  0.00  0.00    +0.000 C 
ATOM     12  H   UNL     1      13.600   5.440  72.152  0.00  0.00    +0.000 HD
BRANCH  11  14
ATOM     13  C   UNL     1      12.461   3.352  74.479  0.00  0.00    +0.000 C 
ATOM     14  C   UNL     1      13.367   3.502  73.704  0.00  0.00    +0.000 C 
BRANCH  13  15
ATOM     15  C   UNL     1      11.397   3.180  75.397  0.00  0.00    +0.000 C 
ATOM     16  C   UNL     1      11.076   4.314  76.329  0.00  0.00    +0.000 C 
ATOM     17  C   UNL     1      10.642   1.999  75.541  0.00  0.00    +0.000 C 
ATOM     18  C   UNL     1       9.878   0.825  75.694  0.00  0.00    +0.000 C 
ATOM     19  C   UNL     1       9.892  -0.163  74.565  0.00  0.00    +0.000 C 
ATOM     20  C   UNL     1       9.124   0.505  76.836  0.00  0.00    +0.000 C 
ATOM     21  C   UNL     1       8.438   0.208  77.886  0.00  0.00    +0.000 C 
ATOM     22  C   UNL     1       7.021   0.678  77.996  0.00  0.00    +0.000 C 
ATOM     23  C   UNL     1       9.148  -0.296  79.104  0.00  0.00    +0.000 C 
ENDBRANCH  13  15
ENDBRANCH  11  14
ENDBRANCH   6  10
BRANCH   3  24
ATOM     24  O   UNL     1      15.266   6.376  67.827  0.00  0.00    +0.000 OA
ATOM     25  H   UNL     1      14.360   6.035  67.730  0.00  0.00    +0.000 HD
ENDBRANCH   3  24
BRANCH   3  26
ATOM     26  C   UNL     1      16.292   4.254  67.750  0.00  0.00    +0.000 C 
ATOM     27  C   UNL     1      16.629   3.039  66.880  0.00  0.00    +0.000 C 
BRANCH  27  28
ATOM     28  C   UNL     1      16.961   1.822  66.012  0.00  0.00    +0.000 C 
ATOM     29  C   UNL     1      17.291   0.604  65.143  0.00  0.00    +0.000 C 
BRANCH  29  31
ATOM     30  O   UNL     1      18.638  -1.164  64.421  0.00  0.00    +0.000 OA
ATOM     31  C   UNL     1      17.599  -0.533  64.330  0.00  0.00    +0.000 C 
BRANCH  31  32
ATOM     32  O   UNL     1      16.636  -0.850  63.447  0.00  0.00    +0.000 OA
ATOM     33  H   UNL     1      16.229   0.013  63.228  0.00  0.00    +0.000 HD
ENDBRANCH  31  32
ENDBRANCH  29  31
ENDBRANCH  27  28
ENDBRANCH   3  26
TORSDOF 8
ENDMDL
MODEL 7
REMARK VINA RESULT:      -4.1      6.752     13.774
REMARK  Name = 122178712_SalternamideA.pdbqt.pdb
REMARK  8 active torsions:
REMARK  status: ('A' for Active; 'I' for Inactive)
REMARK    1  A    between atoms: C_3  and  O_24
REMARK    2  A    between atoms: C_3  and  C_26
REMARK    3  A    between atoms: C_6  and  N_10
REMARK    4  A    between atoms: C_11  and  C_14
REMARK    5  A    between atoms: C_13  and  C_15
REMARK    6  A    between atoms: C_27  and  C_28
REMARK    7  A    between atoms: C_29  and  C_31
REMARK    8  A    between atoms: C_31  and  O_32
REMARK                            x       y       z     vdW  Elec       q    Type
REMARK                         _______ _______ _______ _____ _____    ______ ____
ROOT
ATOM      1 CL   UNL     1      19.142   6.684  71.976  0.00  0.00    +0.000 Cl
ATOM      2  O   UNL     1      19.819   7.117  68.927  0.00  0.00    +0.000 OA
ATOM      3  C   UNL     1      15.633   6.925  69.927  0.00  0.00    +0.000 C 
ATOM      4  C   UNL     1      16.318   7.165  68.647  0.00  0.00    +0.000 C 
ATOM      5  C   UNL     1      16.822   6.770  70.781  0.00  0.00    +0.000 C 
ATOM      6  C   UNL     1      17.534   7.242  68.187  0.00  0.00    +0.000 C 
ATOM      7  C   UNL     1      18.115   6.782  70.633  0.00  0.00    +0.000 C 
ATOM      8  C   UNL     1      18.636   7.047  69.235  0.00  0.00    +0.000 C 
ENDROOT
BRANCH   6  10
ATOM      9  O   UNL     1      18.416   9.745  66.960  0.00  0.00    +0.000 OA
ATOM     10  N   UNL     1      17.895   7.484  66.887  0.00  0.00    +0.000 N 
ATOM     11  C   UNL     1      18.305   8.684  66.362  0.00  0.00    +0.000 C 
ATOM     12  H   UNL     1      17.846   6.678  66.266  0.00  0.00    +0.000 HD
BRANCH  11  14
ATOM     13  C   UNL     1      18.913   8.617  63.789  0.00  0.00    +0.000 C 
ATOM     14  C   UNL     1      18.630   8.649  64.956  0.00  0.00    +0.000 C 
BRANCH  13  15
ATOM     15  C   UNL     1      19.253   8.574  62.414  0.00  0.00    +0.000 C 
ATOM     16  C   UNL     1      20.583   7.990  62.032  0.00  0.00    +0.000 C 
ATOM     17  C   UNL     1      18.454   9.086  61.373  0.00  0.00    +0.000 C 
ATOM     18  C   UNL     1      17.665   9.592  60.320  0.00  0.00    +0.000 C 
ATOM     19  C   UNL     1      16.207   9.820  60.595  0.00  0.00    +0.000 C 
ATOM     20  C   UNL     1      18.150   9.919  59.043  0.00  0.00    +0.000 C 
ATOM     21  C   UNL     1      18.595  10.226  57.873  0.00  0.00    +0.000 C 
ATOM     22  C   UNL     1      18.648   9.175  56.807  0.00  0.00    +0.000 C 
ATOM     23  C   UNL     1      19.356  11.503  57.693  0.00  0.00    +0.000 C 
ENDBRANCH  13  15
ENDBRANCH  11  14
ENDBRANCH   6  10
BRANCH   3  24
ATOM     24  O   UNL     1      14.942   5.695  69.865  0.00  0.00    +0.000 OA
ATOM     25  H   UNL     1      15.059   5.278  70.736  0.00  0.00    +0.000 HD
ENDBRANCH   3  24
BRANCH   3  26
ATOM     26  C   UNL     1      14.734   7.996  70.340  0.00  0.00    +0.000 C 
ATOM     27  C   UNL     1      13.787   9.120  70.769  0.00  0.00    +0.000 C 
BRANCH  27  28
ATOM     28  C   UNL     1      12.836  10.242  71.196  0.00  0.00    +0.000 C 
ATOM     29  C   UNL     1      11.885  11.366  71.619  0.00  0.00    +0.000 C 
BRANCH  29  31
ATOM     30  O   UNL     1      11.157  13.584  71.711  0.00  0.00    +0.000 OA
ATOM     31  C   UNL     1      10.996  12.415  72.015  0.00  0.00    +0.000 C 
BRANCH  31  32
ATOM     32  O   UNL     1       9.955  11.998  72.758  0.00  0.00    +0.000 OA
ATOM     33  H   UNL     1      10.380  11.573  73.531  0.00  0.00    +0.000 HD
ENDBRANCH  31  32
ENDBRANCH  29  31
ENDBRANCH  27  28
ENDBRANCH   3  26
TORSDOF 8
ENDMDL
MODEL 8
REMARK VINA RESULT:      -4.1      2.813      3.329
REMARK  Name = 122178712_SalternamideA.pdbqt.pdb
REMARK  8 active torsions:
REMARK  status: ('A' for Active; 'I' for Inactive)
REMARK    1  A    between atoms: C_3  and  O_24
REMARK    2  A    between atoms: C_3  and  C_26
REMARK    3  A    between atoms: C_6  and  N_10
REMARK    4  A    between atoms: C_11  and  C_14
REMARK    5  A    between atoms: C_13  and  C_15
REMARK    6  A    between atoms: C_27  and  C_28
REMARK    7  A    between atoms: C_29  and  C_31
REMARK    8  A    between atoms: C_31  and  O_32
REMARK                            x       y       z     vdW  Elec       q    Type
REMARK                         _______ _______ _______ _____ _____    ______ ____
ROOT
ATOM      1 CL   UNL     1      18.735   5.721  71.390  0.00  0.00    +0.000 Cl
ATOM      2  O   UNL     1      16.422   3.789  72.316  0.00  0.00    +0.000 OA
ATOM      3  C   UNL     1      16.339   4.991  68.180  0.00  0.00    +0.000 C 
ATOM      4  C   UNL     1      15.477   4.076  68.946  0.00  0.00    +0.000 C 
ATOM      5  C   UNL     1      17.256   5.379  69.265  0.00  0.00    +0.000 C 
ATOM      6  C   UNL     1      15.363   3.627  70.163  0.00  0.00    +0.000 C 
ATOM      7  C   UNL     1      17.401   5.125  70.532  0.00  0.00    +0.000 C 
ATOM      8  C   UNL     1      16.413   4.154  71.148  0.00  0.00    +0.000 C 
ENDROOT
BRANCH   6  10
ATOM      9  O   UNL     1      15.272   0.720  69.866  0.00  0.00    +0.000 OA
ATOM     10  N   UNL     1      14.418   2.744  70.616  0.00  0.00    +0.000 N 
ATOM     11  C   UNL     1      14.425   1.381  70.449  0.00  0.00    +0.000 C 
ATOM     12  H   UNL     1      13.641   3.163  71.124  0.00  0.00    +0.000 HD
BRANCH  11  14
ATOM     13  C   UNL     1      12.356   0.127  71.518  0.00  0.00    +0.000 C 
ATOM     14  C   UNL     1      13.300   0.694  71.038  0.00  0.00    +0.000 C 
BRANCH  13  15
ATOM     15  C   UNL     1      11.240  -0.545  72.075  0.00  0.00    +0.000 C 
ATOM     16  C   UNL     1      10.158  -1.013  71.144  0.00  0.00    +0.000 C 
ATOM     17  C   UNL     1      11.040  -0.763  73.453  0.00  0.00    +0.000 C 
ATOM     18  C   UNL     1      10.829  -0.992  74.828  0.00  0.00    +0.000 C 
ATOM     19  C   UNL     1      12.019  -0.900  75.736  0.00  0.00    +0.000 C 
ATOM     20  C   UNL     1       9.581  -1.276  75.407  0.00  0.00    +0.000 C 
ATOM     21  C   UNL     1       8.436  -1.529  75.942  0.00  0.00    +0.000 C 
ATOM     22  C   UNL     1       7.964  -2.948  76.032  0.00  0.00    +0.000 C 
ATOM     23  C   UNL     1       7.463  -0.410  76.148  0.00  0.00    +0.000 C 
ENDBRANCH  13  15
ENDBRANCH  11  14
ENDBRANCH   6  10
BRANCH   3  24
ATOM     24  O   UNL     1      15.587   6.118  67.782  0.00  0.00    +0.000 OA
ATOM     25  H   UNL     1      16.225   6.738  67.387  0.00  0.00    +0.000 HD
ENDBRANCH   3  24
BRANCH   3  26
ATOM     26  C   UNL     1      16.995   4.381  67.030  0.00  0.00    +0.000 C 
ATOM     27  C   UNL     1      17.682   3.745  65.819  0.00  0.00    +0.000 C 
BRANCH  27  28
ATOM     28  C   UNL     1      18.369   3.112  64.605  0.00  0.00    +0.000 C 
ATOM     29  C   UNL     1      19.054   2.481  63.389  0.00  0.00    +0.000 C 
BRANCH  29  31
ATOM     30  O   UNL     1      19.793   2.448  61.172  0.00  0.00    +0.000 OA
ATOM     31  C   UNL     1      19.696   1.893  62.253  0.00  0.00    +0.000 C 
BRANCH  31  32
ATOM     32  O   UNL     1      20.188   0.662  62.480  0.00  0.00    +0.000 OA
ATOM     33  H   UNL     1      20.423   0.678  63.430  0.00  0.00    +0.000 HD
ENDBRANCH  31  32
ENDBRANCH  29  31
ENDBRANCH  27  28
ENDBRANCH   3  26
TORSDOF 8
ENDMDL
MODEL 9
REMARK VINA RESULT:      -4.1     12.265     16.990
REMARK  Name = 122178712_SalternamideA.pdbqt.pdb
REMARK  8 active torsions:
REMARK  status: ('A' for Active; 'I' for Inactive)
REMARK    1  A    between atoms: C_3  and  O_24
REMARK    2  A    between atoms: C_3  and  C_26
REMARK    3  A    between atoms: C_6  and  N_10
REMARK    4  A    between atoms: C_11  and  C_14
REMARK    5  A    between atoms: C_13  and  C_15
REMARK    6  A    between atoms: C_27  and  C_28
REMARK    7  A    between atoms: C_29  and  C_31
REMARK    8  A    between atoms: C_31  and  O_32
REMARK                            x       y       z     vdW  Elec       q    Type
REMARK                         _______ _______ _______ _____ _____    ______ ____
ROOT
ATOM      1 CL   UNL     1      22.698   9.325  52.342  0.00  0.00    +0.000 Cl
ATOM      2  O   UNL     1      21.585   9.666  55.272  0.00  0.00    +0.000 OA
ATOM      3  C   UNL     1      18.811   8.116  52.363  0.00  0.00    +0.000 C 
ATOM      4  C   UNL     1      18.673   8.356  53.809  0.00  0.00    +0.000 C 
ATOM      5  C   UNL     1      20.203   8.568  52.203  0.00  0.00    +0.000 C 
ATOM      6  C   UNL     1      19.387   8.814  54.798  0.00  0.00    +0.000 C 
ATOM      7  C   UNL     1      21.141   9.063  52.955  0.00  0.00    +0.000 C 
ATOM      8  C   UNL     1      20.812   9.238  54.425  0.00  0.00    +0.000 C 
ENDROOT
BRANCH   6  10
ATOM      9  O   UNL     1      17.995  11.034  56.095  0.00  0.00    +0.000 OA
ATOM     10  N   UNL     1      18.983   8.933  56.102  0.00  0.00    +0.000 N 
ATOM     11  C   UNL     1      18.329  10.003  56.661  0.00  0.00    +0.000 C 
ATOM     12  H   UNL     1      19.203   8.137  56.698  0.00  0.00    +0.000 HD
BRANCH  11  14
ATOM     13  C   UNL     1      17.775   9.727  59.233  0.00  0.00    +0.000 C 
ATOM     14  C   UNL     1      18.020   9.856  58.064  0.00  0.00    +0.000 C 
BRANCH  13  15
ATOM     15  C   UNL     1      17.493   9.576  60.613  0.00  0.00    +0.000 C 
ATOM     16  C   UNL     1      16.122   9.951  61.101  0.00  0.00    +0.000 C 
ATOM     17  C   UNL     1      18.424   9.147  61.580  0.00  0.00    +0.000 C 
ATOM     18  C   UNL     1      19.342   8.717  62.558  0.00  0.00    +0.000 C 
ATOM     19  C   UNL     1      20.562   7.981  62.087  0.00  0.00    +0.000 C 
ATOM     20  C   UNL     1      19.209   8.949  63.937  0.00  0.00    +0.000 C 
ATOM     21  C   UNL     1      19.090   9.167  65.202  0.00  0.00    +0.000 C 
ATOM     22  C   UNL     1      18.330   8.193  66.049  0.00  0.00    +0.000 C 
ATOM     23  C   UNL     1      19.408  10.527  65.741  0.00  0.00    +0.000 C 
ENDBRANCH  13  15
ENDBRANCH  11  14
ENDBRANCH   6  10
BRANCH   3  24
ATOM     24  O   UNL     1      17.954   8.992  51.660  0.00  0.00    +0.000 OA
ATOM     25  H   UNL     1      18.201   8.911  50.723  0.00  0.00    +0.000 HD
ENDBRANCH   3  24
BRANCH   3  26
ATOM     26  C   UNL     1      18.578   6.736  51.956  0.00  0.00    +0.000 C 
ATOM     27  C   UNL     1      18.330   5.288  51.524  0.00  0.00    +0.000 C 
BRANCH  27  28
ATOM     28  C   UNL     1      18.080   3.842  51.088  0.00  0.00    +0.000 C 
ATOM     29  C   UNL     1      17.833   2.394  50.653  0.00  0.00    +0.000 C 
BRANCH  29  31
ATOM     30  O   UNL     1      18.313   0.443  49.459  0.00  0.00    +0.000 OA
ATOM     31  C   UNL     1      17.601   1.041  50.248  0.00  0.00    +0.000 C 
BRANCH  31  32
ATOM     32  O   UNL     1      16.520   0.477  50.816  0.00  0.00    +0.000 OA
ATOM     33  H   UNL     1      16.108  -0.023  50.082  0.00  0.00    +0.000 HD
ENDBRANCH  31  32
ENDBRANCH  29  31
ENDBRANCH  27  28
ENDBRANCH   3  26
TORSDOF 8
ENDMDL
