MODEL 1
REMARK VINA RESULT:      -3.2      0.000      0.000
REMARK  Name = 122180587_TripolinolateA.pdbqt.pdb
REMARK  9 active torsions:
REMARK  status: ('A' for Active; 'I' for Inactive)
REMARK    1  A    between atoms: C_1  and  O_16
REMARK    2  A    between atoms: C_2  and  O_7
REMARK    3  A    between atoms: C_3  and  C_9
REMARK    4  A    between atoms: C_10  and  C_11
REMARK    5  A    between atoms: C_11  and  O_12
REMARK    6  A    between atoms: O_12  and  C_14
REMARK    7  A    between atoms: O_16  and  C_18
REMARK    8  A    between atoms: C_18  and  C_19
REMARK    9  A    between atoms: C_19  and  C_21
REMARK                            x       y       z     vdW  Elec       q    Type
REMARK                         _______ _______ _______ _____ _____    ______ ____
ROOT
ATOM      1  C   UNL     1       4.097   7.349  75.397  0.00  0.00    +0.000 A 
ATOM      2  C   UNL     1       5.121   7.423  76.347  0.00  0.00    +0.000 A 
ATOM      3  C   UNL     1       5.400   5.022  76.148  0.00  0.00    +0.000 A 
ATOM      4  C   UNL     1       3.700   6.129  74.846  0.00  0.00    +0.000 A 
ATOM      5  C   UNL     1       5.772   6.242  76.712  0.00  0.00    +0.000 A 
ATOM      6  C   UNL     1       4.363   4.964  75.219  0.00  0.00    +0.000 A 
ENDROOT
BRANCH   2   7
ATOM      7  O   UNL     1       5.403   8.659  76.872  0.00  0.00    +0.000 OA
ATOM      8  C   UNL     1       6.600   9.243  76.440  0.00  0.00    +0.000 C 
ENDBRANCH   2   7
BRANCH   3   9
ATOM      9  C   UNL     1       6.080   3.828  76.529  0.00  0.00    +0.000 C 
ATOM     10  C   UNL     1       6.654   2.823  76.852  0.00  0.00    +0.000 C 
BRANCH  10  11
ATOM     11  C   UNL     1       7.389   1.543  77.263  0.00  0.00    +0.000 C 
BRANCH  11  12
ATOM     12  O   UNL     1       8.028   0.432  77.623  0.00  0.00    +0.000 OA
BRANCH  12  14
ATOM     13  O   UNL     1       7.672  -1.756  76.879  0.00  0.00    +0.000 OA
ATOM     14  C   UNL     1       7.956  -0.581  76.737  0.00  0.00    +0.000 C 
ATOM     15  C   UNL     1       8.281  -0.196  75.333  0.00  0.00    +0.000 C 
ENDBRANCH  12  14
ENDBRANCH  11  12
ENDBRANCH  10  11
ENDBRANCH   3   9
BRANCH   1  16
ATOM     16  O   UNL     1       3.387   8.505  75.045  0.00  0.00    +0.000 OA
BRANCH  16  18
ATOM     17  O   UNL     1       4.780   9.250  73.338  0.00  0.00    +0.000 OA
ATOM     18  C   UNL     1       3.669   8.957  73.762  0.00  0.00    +0.000 C 
BRANCH  18  19
ATOM     19  C   UNL     1       2.426   9.058  72.957  0.00  0.00    +0.000 C 
ATOM     20  C   UNL     1       2.357   8.717  71.474  0.00  0.00    +0.000 C 
BRANCH  19  21
ATOM     21  C   UNL     1       1.229   9.487  73.589  0.00  0.00    +0.000 C 
ATOM     22  C   UNL     1      -0.072   9.945  74.273  0.00  0.00    +0.000 C 
ENDBRANCH  19  21
ENDBRANCH  18  19
ENDBRANCH  16  18
ENDBRANCH   1  16
TORSDOF 9
ENDMDL
MODEL 2
REMARK VINA RESULT:      -3.2      1.593      2.114
REMARK  Name = 122180587_TripolinolateA.pdbqt.pdb
REMARK  9 active torsions:
REMARK  status: ('A' for Active; 'I' for Inactive)
REMARK    1  A    between atoms: C_1  and  O_16
REMARK    2  A    between atoms: C_2  and  O_7
REMARK    3  A    between atoms: C_3  and  C_9
REMARK    4  A    between atoms: C_10  and  C_11
REMARK    5  A    between atoms: C_11  and  O_12
REMARK    6  A    between atoms: O_12  and  C_14
REMARK    7  A    between atoms: O_16  and  C_18
REMARK    8  A    between atoms: C_18  and  C_19
REMARK    9  A    between atoms: C_19  and  C_21
REMARK                            x       y       z     vdW  Elec       q    Type
REMARK                         _______ _______ _______ _____ _____    ______ ____
ROOT
ATOM      1  C   UNL     1       3.294   6.724  75.899  0.00  0.00    +0.000 A 
ATOM      2  C   UNL     1       3.755   6.531  77.205  0.00  0.00    +0.000 A 
ATOM      3  C   UNL     1       5.155   4.729  76.384  0.00  0.00    +0.000 A 
ATOM      4  C   UNL     1       3.726   5.915  74.846  0.00  0.00    +0.000 A 
ATOM      5  C   UNL     1       4.697   5.525  77.433  0.00  0.00    +0.000 A 
ATOM      6  C   UNL     1       4.668   4.921  75.092  0.00  0.00    +0.000 A 
ENDROOT
BRANCH   2   7
ATOM      7  O   UNL     1       3.230   7.338  78.184  0.00  0.00    +0.000 OA
ATOM      8  C   UNL     1       4.116   8.269  78.742  0.00  0.00    +0.000 C 
ENDBRANCH   2   7
BRANCH   3   9
ATOM      9  C   UNL     1       6.120   3.710  76.635  0.00  0.00    +0.000 C 
ATOM     10  C   UNL     1       6.934   2.852  76.845  0.00  0.00    +0.000 C 
BRANCH  10  11
ATOM     11  C   UNL     1       7.972   1.756  77.109  0.00  0.00    +0.000 C 
BRANCH  11  12
ATOM     12  O   UNL     1       8.874   0.804  77.336  0.00  0.00    +0.000 OA
BRANCH  12  14
ATOM     13  O   UNL     1      10.041  -0.510  75.793  0.00  0.00    +0.000 OA
ATOM     14  C   UNL     1       9.700   0.541  76.304  0.00  0.00    +0.000 C 
ATOM     15  C   UNL     1      10.305   1.751  75.675  0.00  0.00    +0.000 C 
ENDBRANCH  12  14
ENDBRANCH  11  12
ENDBRANCH  10  11
ENDBRANCH   3   9
BRANCH   1  16
ATOM     16  O   UNL     1       2.310   7.689  75.642  0.00  0.00    +0.000 OA
BRANCH  16  18
ATOM     17  O   UNL     1       3.666   9.567  75.424  0.00  0.00    +0.000 OA
ATOM     18  C   UNL     1       2.800   8.816  74.993  0.00  0.00    +0.000 C 
BRANCH  18  19
ATOM     19  C   UNL     1       2.115   9.008  73.690  0.00  0.00    +0.000 C 
ATOM     20  C   UNL     1       0.706   9.571  73.559  0.00  0.00    +0.000 C 
BRANCH  19  21
ATOM     21  C   UNL     1       2.797   8.660  72.495  0.00  0.00    +0.000 C 
ATOM     22  C   UNL     1       3.540   8.289  71.197  0.00  0.00    +0.000 C 
ENDBRANCH  19  21
ENDBRANCH  18  19
ENDBRANCH  16  18
ENDBRANCH   1  16
TORSDOF 9
ENDMDL
MODEL 3
REMARK VINA RESULT:      -3.1     17.391     18.698
REMARK  Name = 122180587_TripolinolateA.pdbqt.pdb
REMARK  9 active torsions:
REMARK  status: ('A' for Active; 'I' for Inactive)
REMARK    1  A    between atoms: C_1  and  O_16
REMARK    2  A    between atoms: C_2  and  O_7
REMARK    3  A    between atoms: C_3  and  C_9
REMARK    4  A    between atoms: C_10  and  C_11
REMARK    5  A    between atoms: C_11  and  O_12
REMARK    6  A    between atoms: O_12  and  C_14
REMARK    7  A    between atoms: O_16  and  C_18
REMARK    8  A    between atoms: C_18  and  C_19
REMARK    9  A    between atoms: C_19  and  C_21
REMARK                            x       y       z     vdW  Elec       q    Type
REMARK                         _______ _______ _______ _____ _____    ______ ____
ROOT
ATOM      1  C   UNL     1      15.632  12.239  60.662  0.00  0.00    +0.000 A 
ATOM      2  C   UNL     1      16.717  12.629  61.453  0.00  0.00    +0.000 A 
ATOM      3  C   UNL     1      17.451  10.317  61.485  0.00  0.00    +0.000 A 
ATOM      4  C   UNL     1      15.431  10.903  60.307  0.00  0.00    +0.000 A 
ATOM      5  C   UNL     1      17.629  11.649  61.856  0.00  0.00    +0.000 A 
ATOM      6  C   UNL     1      16.352   9.943  60.714  0.00  0.00    +0.000 A 
ENDROOT
BRANCH   2   7
ATOM      7  O   UNL     1      16.801  13.954  61.797  0.00  0.00    +0.000 OA
ATOM      8  C   UNL     1      16.448  14.262  63.117  0.00  0.00    +0.000 C 
ENDBRANCH   2   7
BRANCH   3   9
ATOM      9  C   UNL     1      18.395   9.332  61.902  0.00  0.00    +0.000 C 
ATOM     10  C   UNL     1      19.189   8.502  62.252  0.00  0.00    +0.000 C 
BRANCH  10  11
ATOM     11  C   UNL     1      20.199   7.439  62.697  0.00  0.00    +0.000 C 
BRANCH  11  12
ATOM     12  O   UNL     1      21.075   6.515  63.083  0.00  0.00    +0.000 OA
BRANCH  12  14
ATOM     13  O   UNL     1      19.526   4.843  63.605  0.00  0.00    +0.000 OA
ATOM     14  C   UNL     1      20.584   5.264  63.173  0.00  0.00    +0.000 C 
ATOM     15  C   UNL     1      21.495   4.205  62.650  0.00  0.00    +0.000 C 
ENDBRANCH  12  14
ENDBRANCH  11  12
ENDBRANCH  10  11
ENDBRANCH   3   9
BRANCH   1  16
ATOM     16  O   UNL     1      14.670  13.185  60.282  0.00  0.00    +0.000 OA
BRANCH  16  18
ATOM     17  O   UNL     1      13.191  13.087  62.074  0.00  0.00    +0.000 OA
ATOM     18  C   UNL     1      13.431  12.981  60.878  0.00  0.00    +0.000 C 
BRANCH  18  19
ATOM     19  C   UNL     1      12.420  12.597  59.863  0.00  0.00    +0.000 C 
ATOM     20  C   UNL     1      12.681  12.631  58.363  0.00  0.00    +0.000 C 
BRANCH  19  21
ATOM     21  C   UNL     1      11.138  12.166  60.296  0.00  0.00    +0.000 C 
ATOM     22  C   UNL     1       9.748  11.693  60.761  0.00  0.00    +0.000 C 
ENDBRANCH  19  21
ENDBRANCH  18  19
ENDBRANCH  16  18
ENDBRANCH   1  16
TORSDOF 9
ENDMDL
MODEL 4
REMARK VINA RESULT:      -3.1     24.516     26.213
REMARK  Name = 122180587_TripolinolateA.pdbqt.pdb
REMARK  9 active torsions:
REMARK  status: ('A' for Active; 'I' for Inactive)
REMARK    1  A    between atoms: C_1  and  O_16
REMARK    2  A    between atoms: C_2  and  O_7
REMARK    3  A    between atoms: C_3  and  C_9
REMARK    4  A    between atoms: C_10  and  C_11
REMARK    5  A    between atoms: C_11  and  O_12
REMARK    6  A    between atoms: O_12  and  C_14
REMARK    7  A    between atoms: O_16  and  C_18
REMARK    8  A    between atoms: C_18  and  C_19
REMARK    9  A    between atoms: C_19  and  C_21
REMARK                            x       y       z     vdW  Elec       q    Type
REMARK                         _______ _______ _______ _____ _____    ______ ____
ROOT
ATOM      1  C   UNL     1      16.945   2.721  51.600  0.00  0.00    +0.000 A 
ATOM      2  C   UNL     1      18.315   2.941  51.771  0.00  0.00    +0.000 A 
ATOM      3  C   UNL     1      18.266   1.417  53.657  0.00  0.00    +0.000 A 
ATOM      4  C   UNL     1      16.227   1.887  52.459  0.00  0.00    +0.000 A 
ATOM      5  C   UNL     1      18.969   2.272  52.809  0.00  0.00    +0.000 A 
ATOM      6  C   UNL     1      16.896   1.227  53.485  0.00  0.00    +0.000 A 
ENDROOT
BRANCH   2   7
ATOM      7  O   UNL     1      18.924   3.820  50.911  0.00  0.00    +0.000 OA
ATOM      8  C   UNL     1      19.284   5.056  51.463  0.00  0.00    +0.000 C 
ENDBRANCH   2   7
BRANCH   3   9
ATOM      9  C   UNL     1      18.951   0.739  54.708  0.00  0.00    +0.000 C 
ATOM     10  C   UNL     1      19.529   0.169  55.594  0.00  0.00    +0.000 C 
BRANCH  10  11
ATOM     11  C   UNL     1      20.270  -0.557  56.721  0.00  0.00    +0.000 C 
BRANCH  11  12
ATOM     12  O   UNL     1      20.913  -1.189  57.700  0.00  0.00    +0.000 OA
BRANCH  12  14
ATOM     13  O   UNL     1      20.380   0.372  59.356  0.00  0.00    +0.000 OA
ATOM     14  C   UNL     1      21.078  -0.475  58.830  0.00  0.00    +0.000 C 
ATOM     15  C   UNL     1      22.339  -0.773  59.570  0.00  0.00    +0.000 C 
ENDBRANCH  12  14
ENDBRANCH  11  12
ENDBRANCH  10  11
ENDBRANCH   3   9
BRANCH   1  16
ATOM     16  O   UNL     1      16.246   3.414  50.602  0.00  0.00    +0.000 OA
BRANCH  16  18
ATOM     17  O   UNL     1      16.253   1.784  48.943  0.00  0.00    +0.000 OA
ATOM     18  C   UNL     1      15.658   2.580  49.659  0.00  0.00    +0.000 C 
BRANCH  18  19
ATOM     19  C   UNL     1      14.190   2.792  49.617  0.00  0.00    +0.000 C 
ATOM     20  C   UNL     1      13.178   1.654  49.635  0.00  0.00    +0.000 C 
BRANCH  19  21
ATOM     21  C   UNL     1      13.686   4.118  49.562  0.00  0.00    +0.000 C 
ATOM     22  C   UNL     1      13.132   5.554  49.500  0.00  0.00    +0.000 C 
ENDBRANCH  19  21
ENDBRANCH  18  19
ENDBRANCH  16  18
ENDBRANCH   1  16
TORSDOF 9
ENDMDL
MODEL 5
REMARK VINA RESULT:      -3.1     22.727     25.457
REMARK  Name = 122180587_TripolinolateA.pdbqt.pdb
REMARK  9 active torsions:
REMARK  status: ('A' for Active; 'I' for Inactive)
REMARK    1  A    between atoms: C_1  and  O_16
REMARK    2  A    between atoms: C_2  and  O_7
REMARK    3  A    between atoms: C_3  and  C_9
REMARK    4  A    between atoms: C_10  and  C_11
REMARK    5  A    between atoms: C_11  and  O_12
REMARK    6  A    between atoms: O_12  and  C_14
REMARK    7  A    between atoms: O_16  and  C_18
REMARK    8  A    between atoms: C_18  and  C_19
REMARK    9  A    between atoms: C_19  and  C_21
REMARK                            x       y       z     vdW  Elec       q    Type
REMARK                         _______ _______ _______ _____ _____    ______ ____
ROOT
ATOM      1  C   UNL     1      17.050  -1.437  55.779  0.00  0.00    +0.000 A 
ATOM      2  C   UNL     1      16.694  -0.770  54.602  0.00  0.00    +0.000 A 
ATOM      3  C   UNL     1      18.759   0.493  54.762  0.00  0.00    +0.000 A 
ATOM      4  C   UNL     1      18.227  -1.129  56.465  0.00  0.00    +0.000 A 
ATOM      5  C   UNL     1      17.568   0.196  54.099  0.00  0.00    +0.000 A 
ATOM      6  C   UNL     1      19.087  -0.166  55.945  0.00  0.00    +0.000 A 
ENDROOT
BRANCH   2   7
ATOM      7  O   UNL     1      15.492  -1.102  54.030  0.00  0.00    +0.000 OA
ATOM      8  C   UNL     1      14.649  -0.026  53.723  0.00  0.00    +0.000 C 
ENDBRANCH   2   7
BRANCH   3   9
ATOM      9  C   UNL     1      19.640   1.479  54.230  0.00  0.00    +0.000 C 
ATOM     10  C   UNL     1      20.384   2.309  53.780  0.00  0.00    +0.000 C 
BRANCH  10  11
ATOM     11  C   UNL     1      21.335   3.364  53.207  0.00  0.00    +0.000 C 
BRANCH  11  12
ATOM     12  O   UNL     1      22.162   4.279  52.707  0.00  0.00    +0.000 OA
BRANCH  12  14
ATOM     13  O   UNL     1      20.933   6.264  52.843  0.00  0.00    +0.000 OA
ATOM     14  C   UNL     1      21.893   5.550  53.067  0.00  0.00    +0.000 C 
ATOM     15  C   UNL     1      22.959   6.197  53.885  0.00  0.00    +0.000 C 
ENDBRANCH  12  14
ENDBRANCH  11  12
ENDBRANCH  10  11
ENDBRANCH   3   9
BRANCH   1  16
ATOM     16  O   UNL     1      16.174  -2.375  56.342  0.00  0.00    +0.000 OA
BRANCH  16  18
ATOM     17  O   UNL     1      14.287  -1.225  57.067  0.00  0.00    +0.000 OA
ATOM     18  C   UNL     1      15.324  -1.833  57.298  0.00  0.00    +0.000 C 
BRANCH  18  19
ATOM     19  C   UNL     1      15.852  -2.075  58.664  0.00  0.00    +0.000 C 
ATOM     20  C   UNL     1      16.695  -3.288  59.035  0.00  0.00    +0.000 C 
BRANCH  19  21
ATOM     21  C   UNL     1      15.571  -1.133  59.688  0.00  0.00    +0.000 C 
ATOM     22  C   UNL     1      15.266  -0.116  60.805  0.00  0.00    +0.000 C 
ENDBRANCH  19  21
ENDBRANCH  18  19
ENDBRANCH  16  18
ENDBRANCH   1  16
TORSDOF 9
ENDMDL
MODEL 6
REMARK VINA RESULT:      -3.1     22.886     25.488
REMARK  Name = 122180587_TripolinolateA.pdbqt.pdb
REMARK  9 active torsions:
REMARK  status: ('A' for Active; 'I' for Inactive)
REMARK    1  A    between atoms: C_1  and  O_16
REMARK    2  A    between atoms: C_2  and  O_7
REMARK    3  A    between atoms: C_3  and  C_9
REMARK    4  A    between atoms: C_10  and  C_11
REMARK    5  A    between atoms: C_11  and  O_12
REMARK    6  A    between atoms: O_12  and  C_14
REMARK    7  A    between atoms: O_16  and  C_18
REMARK    8  A    between atoms: C_18  and  C_19
REMARK    9  A    between atoms: C_19  and  C_21
REMARK                            x       y       z     vdW  Elec       q    Type
REMARK                         _______ _______ _______ _____ _____    ______ ____
ROOT
ATOM      1  C   UNL     1      17.329  -1.270  55.884  0.00  0.00    +0.000 A 
ATOM      2  C   UNL     1      18.550  -1.121  56.548  0.00  0.00    +0.000 A 
ATOM      3  C   UNL     1      19.141   0.611  54.956  0.00  0.00    +0.000 A 
ATOM      4  C   UNL     1      17.019  -0.516  54.750  0.00  0.00    +0.000 A 
ATOM      5  C   UNL     1      19.452  -0.165  56.072  0.00  0.00    +0.000 A 
ATOM      6  C   UNL     1      17.928   0.434  54.292  0.00  0.00    +0.000 A 
ENDROOT
BRANCH   2   7
ATOM      7  O   UNL     1      18.788  -1.944  57.620  0.00  0.00    +0.000 OA
ATOM      8  C   UNL     1      19.091  -1.299  58.826  0.00  0.00    +0.000 C 
ENDBRANCH   2   7
BRANCH   3   9
ATOM      9  C   UNL     1      20.071   1.585  54.487  0.00  0.00    +0.000 C 
ATOM     10  C   UNL     1      20.853   2.406  54.092  0.00  0.00    +0.000 C 
BRANCH  10  11
ATOM     11  C   UNL     1      21.848   3.455  53.586  0.00  0.00    +0.000 C 
BRANCH  11  12
ATOM     12  O   UNL     1      22.714   4.366  53.147  0.00  0.00    +0.000 OA
BRANCH  12  14
ATOM     13  O   UNL     1      22.542   6.645  53.642  0.00  0.00    +0.000 OA
ATOM     14  C   UNL     1      22.799   5.482  53.897  0.00  0.00    +0.000 C 
ATOM     15  C   UNL     1      23.294   5.256  55.286  0.00  0.00    +0.000 C 
ENDBRANCH  12  14
ENDBRANCH  11  12
ENDBRANCH  10  11
ENDBRANCH   3   9
BRANCH   1  16
ATOM     16  O   UNL     1      16.422  -2.254  56.302  0.00  0.00    +0.000 OA
BRANCH  16  18
ATOM     17  O   UNL     1      15.532  -1.143  58.141  0.00  0.00    +0.000 OA
ATOM     18  C   UNL     1      15.392  -1.756  57.090  0.00  0.00    +0.000 C 
BRANCH  18  19
ATOM     19  C   UNL     1      14.073  -2.080  56.493  0.00  0.00    +0.000 C 
ATOM     20  C   UNL     1      13.121  -3.116  57.075  0.00  0.00    +0.000 C 
BRANCH  19  21
ATOM     21  C   UNL     1      13.659  -1.395  55.320  0.00  0.00    +0.000 C 
ATOM     22  C   UNL     1      13.218  -0.648  54.047  0.00  0.00    +0.000 C 
ENDBRANCH  19  21
ENDBRANCH  18  19
ENDBRANCH  16  18
ENDBRANCH   1  16
TORSDOF 9
ENDMDL
MODEL 7
REMARK VINA RESULT:      -3.0     23.171     25.994
REMARK  Name = 122180587_TripolinolateA.pdbqt.pdb
REMARK  9 active torsions:
REMARK  status: ('A' for Active; 'I' for Inactive)
REMARK    1  A    between atoms: C_1  and  O_16
REMARK    2  A    between atoms: C_2  and  O_7
REMARK    3  A    between atoms: C_3  and  C_9
REMARK    4  A    between atoms: C_10  and  C_11
REMARK    5  A    between atoms: C_11  and  O_12
REMARK    6  A    between atoms: O_12  and  C_14
REMARK    7  A    between atoms: O_16  and  C_18
REMARK    8  A    between atoms: C_18  and  C_19
REMARK    9  A    between atoms: C_19  and  C_21
REMARK                            x       y       z     vdW  Elec       q    Type
REMARK                         _______ _______ _______ _____ _____    ______ ____
ROOT
ATOM      1  C   UNL     1      20.427   0.082  56.465  0.00  0.00    +0.000 A 
ATOM      2  C   UNL     1      20.773   1.084  55.552  0.00  0.00    +0.000 A 
ATOM      3  C   UNL     1      18.617   0.775  54.484  0.00  0.00    +0.000 A 
ATOM      4  C   UNL     1      19.208  -0.594  56.379  0.00  0.00    +0.000 A 
ATOM      5  C   UNL     1      19.847   1.426  54.562  0.00  0.00    +0.000 A 
ATOM      6  C   UNL     1      18.298  -0.236  55.389  0.00  0.00    +0.000 A 
ENDROOT
BRANCH   2   7
ATOM      7  O   UNL     1      22.015   1.652  55.682  0.00  0.00    +0.000 OA
ATOM      8  C   UNL     1      22.301   2.695  54.792  0.00  0.00    +0.000 C 
ENDBRANCH   2   7
BRANCH   3   9
ATOM      9  C   UNL     1      17.683   1.142  53.470  0.00  0.00    +0.000 C 
ATOM     10  C   UNL     1      16.896   1.449  52.617  0.00  0.00    +0.000 C 
BRANCH  10  11
ATOM     11  C   UNL     1      15.891   1.837  51.527  0.00  0.00    +0.000 C 
BRANCH  11  12
ATOM     12  O   UNL     1      15.020   2.174  50.579  0.00  0.00    +0.000 OA
BRANCH  12  14
ATOM     13  O   UNL     1      13.701   0.289  50.995  0.00  0.00    +0.000 OA
ATOM     14  C   UNL     1      13.964   1.347  50.453  0.00  0.00    +0.000 C 
ATOM     15  C   UNL     1      12.934   1.806  49.476  0.00  0.00    +0.000 C 
ENDBRANCH  12  14
ENDBRANCH  11  12
ENDBRANCH  10  11
ENDBRANCH   3   9
BRANCH   1  16
ATOM     16  O   UNL     1      21.350  -0.324  57.438  0.00  0.00    +0.000 OA
BRANCH  16  18
ATOM     17  O   UNL     1      21.217   1.357  59.040  0.00  0.00    +0.000 OA
ATOM     18  C   UNL     1      21.080   0.189  58.701  0.00  0.00    +0.000 C 
BRANCH  18  19
ATOM     19  C   UNL     1      20.612  -0.885  59.612  0.00  0.00    +0.000 C 
ATOM     20  C   UNL     1      21.393  -2.167  59.870  0.00  0.00    +0.000 C 
BRANCH  19  21
ATOM     21  C   UNL     1      19.375  -0.722  60.291  0.00  0.00    +0.000 C 
ATOM     22  C   UNL     1      18.033  -0.554  61.028  0.00  0.00    +0.000 C 
ENDBRANCH  19  21
ENDBRANCH  18  19
ENDBRANCH  16  18
ENDBRANCH   1  16
TORSDOF 9
ENDMDL
MODEL 8
REMARK VINA RESULT:      -3.0     22.830     24.862
REMARK  Name = 122180587_TripolinolateA.pdbqt.pdb
REMARK  9 active torsions:
REMARK  status: ('A' for Active; 'I' for Inactive)
REMARK    1  A    between atoms: C_1  and  O_16
REMARK    2  A    between atoms: C_2  and  O_7
REMARK    3  A    between atoms: C_3  and  C_9
REMARK    4  A    between atoms: C_10  and  C_11
REMARK    5  A    between atoms: C_11  and  O_12
REMARK    6  A    between atoms: O_12  and  C_14
REMARK    7  A    between atoms: O_16  and  C_18
REMARK    8  A    between atoms: C_18  and  C_19
REMARK    9  A    between atoms: C_19  and  C_21
REMARK                            x       y       z     vdW  Elec       q    Type
REMARK                         _______ _______ _______ _____ _____    ______ ____
ROOT
ATOM      1  C   UNL     1      17.960   0.771  53.209  0.00  0.00    +0.000 A 
ATOM      2  C   UNL     1      16.866  -0.076  53.413  0.00  0.00    +0.000 A 
ATOM      3  C   UNL     1      17.776  -0.632  55.592  0.00  0.00    +0.000 A 
ATOM      4  C   UNL     1      18.971   0.899  54.164  0.00  0.00    +0.000 A 
ATOM      5  C   UNL     1      16.784  -0.773  54.622  0.00  0.00    +0.000 A 
ATOM      6  C   UNL     1      18.870   0.200  55.363  0.00  0.00    +0.000 A 
ENDROOT
BRANCH   2   7
ATOM      7  O   UNL     1      15.952  -0.180  52.395  0.00  0.00    +0.000 OA
ATOM      8  C   UNL     1      14.615   0.034  52.756  0.00  0.00    +0.000 C 
ENDBRANCH   2   7
BRANCH   3   9
ATOM      9  C   UNL     1      17.672  -1.347  56.821  0.00  0.00    +0.000 C 
ATOM     10  C   UNL     1      17.586  -1.949  57.858  0.00  0.00    +0.000 C 
BRANCH  10  11
ATOM     11  C   UNL     1      17.481  -2.715  59.180  0.00  0.00    +0.000 C 
BRANCH  11  12
ATOM     12  O   UNL     1      17.391  -3.381  60.329  0.00  0.00    +0.000 OA
BRANCH  12  14
ATOM     13  O   UNL     1      15.870  -3.062  62.076  0.00  0.00    +0.000 OA
ATOM     14  C   UNL     1      16.764  -2.722  61.323  0.00  0.00    +0.000 C 
ATOM     15  C   UNL     1      17.249  -1.328  61.542  0.00  0.00    +0.000 C 
ENDBRANCH  12  14
ENDBRANCH  11  12
ENDBRANCH  10  11
ENDBRANCH   3   9
BRANCH   1  16
ATOM     16  O   UNL     1      18.102   1.446  51.989  0.00  0.00    +0.000 OA
BRANCH  16  18
ATOM     17  O   UNL     1      16.548   3.150  52.288  0.00  0.00    +0.000 OA
ATOM     18  C   UNL     1      17.685   2.770  52.039  0.00  0.00    +0.000 C 
BRANCH  18  19
ATOM     19  C   UNL     1      18.811   3.685  51.728  0.00  0.00    +0.000 C 
ATOM     20  C   UNL     1      20.244   3.212  51.520  0.00  0.00    +0.000 C 
BRANCH  19  21
ATOM     21  C   UNL     1      18.556   5.077  51.611  0.00  0.00    +0.000 C 
ATOM     22  C   UNL     1      18.274   6.586  51.489  0.00  0.00    +0.000 C 
ENDBRANCH  19  21
ENDBRANCH  18  19
ENDBRANCH  16  18
ENDBRANCH   1  16
TORSDOF 9
ENDMDL
MODEL 9
REMARK VINA RESULT:      -3.0     24.303     26.088
REMARK  Name = 122180587_TripolinolateA.pdbqt.pdb
REMARK  9 active torsions:
REMARK  status: ('A' for Active; 'I' for Inactive)
REMARK    1  A    between atoms: C_1  and  O_16
REMARK    2  A    between atoms: C_2  and  O_7
REMARK    3  A    between atoms: C_3  and  C_9
REMARK    4  A    between atoms: C_10  and  C_11
REMARK    5  A    between atoms: C_11  and  O_12
REMARK    6  A    between atoms: O_12  and  C_14
REMARK    7  A    between atoms: O_16  and  C_18
REMARK    8  A    between atoms: C_18  and  C_19
REMARK    9  A    between atoms: C_19  and  C_21
REMARK                            x       y       z     vdW  Elec       q    Type
REMARK                         _______ _______ _______ _____ _____    ______ ____
ROOT
ATOM      1  C   UNL     1      21.214   3.007  53.121  0.00  0.00    +0.000 A 
ATOM      2  C   UNL     1      21.761   2.428  54.271  0.00  0.00    +0.000 A 
ATOM      3  C   UNL     1      19.693   1.195  54.563  0.00  0.00    +0.000 A 
ATOM      4  C   UNL     1      19.913   2.716  52.705  0.00  0.00    +0.000 A 
ATOM      5  C   UNL     1      20.984   1.512  54.984  0.00  0.00    +0.000 A 
ATOM      6  C   UNL     1      19.156   1.798  53.427  0.00  0.00    +0.000 A 
ENDROOT
BRANCH   2   7
ATOM      7  O   UNL     1      23.026   2.818  54.631  0.00  0.00    +0.000 OA
ATOM      8  C   UNL     1      23.123   3.526  55.835  0.00  0.00    +0.000 C 
ENDBRANCH   2   7
BRANCH   3   9
ATOM      9  C   UNL     1      18.916   0.254  55.302  0.00  0.00    +0.000 C 
ATOM     10  C   UNL     1      18.264  -0.538  55.926  0.00  0.00    +0.000 C 
BRANCH  10  11
ATOM     11  C   UNL     1      17.435  -1.551  56.722  0.00  0.00    +0.000 C 
BRANCH  11  12
ATOM     12  O   UNL     1      16.713  -2.431  57.413  0.00  0.00    +0.000 OA
BRANCH  12  14
ATOM     13  O   UNL     1      16.295  -1.801  59.625  0.00  0.00    +0.000 OA
ATOM     14  C   UNL     1      16.018  -1.914  58.446  0.00  0.00    +0.000 C 
ATOM     15  C   UNL     1      14.671  -1.388  58.081  0.00  0.00    +0.000 C 
ENDBRANCH  12  14
ENDBRANCH  11  12
ENDBRANCH  10  11
ENDBRANCH   3   9
BRANCH   1  16
ATOM     16  O   UNL     1      21.945   3.968  52.409  0.00  0.00    +0.000 OA
BRANCH  16  18
ATOM     17  O   UNL     1      21.942   5.901  53.703  0.00  0.00    +0.000 OA
ATOM     18  C   UNL     1      21.582   5.274  52.714  0.00  0.00    +0.000 C 
BRANCH  18  19
ATOM     19  C   UNL     1      20.671   5.820  51.678  0.00  0.00    +0.000 C 
ATOM     20  C   UNL     1      20.807   5.508  50.193  0.00  0.00    +0.000 C 
BRANCH  19  21
ATOM     21  C   UNL     1      19.609   6.675  52.074  0.00  0.00    +0.000 C 
ATOM     22  C   UNL     1      18.462   7.607  52.508  0.00  0.00    +0.000 C 
ENDBRANCH  19  21
ENDBRANCH  18  19
ENDBRANCH  16  18
ENDBRANCH   1  16
TORSDOF 9
ENDMDL
