MODEL 1
REMARK VINA RESULT:      -4.7      0.000      0.000
REMARK  Name = 135423438_Nintedanib.pdbqt.pdb
REMARK  9 active torsions:
REMARK  status: ('A' for Active; 'I' for Inactive)
REMARK    1  A    between atoms: N_1  and  C_22
REMARK    2  A    between atoms: C_2  and  C_4
REMARK    3  A    between atoms: C_2  and  C_37
REMARK    4  A    between atoms: C_7  and  O_13
REMARK    5  A    between atoms: C_10  and  C_16
REMARK    6  A    between atoms: C_16  and  O_17
REMARK    7  A    between atoms: C_19  and  N_26
REMARK    8  A    between atoms: C_27  and  C_29
REMARK    9  A    between atoms: C_29  and  N_30
REMARK                            x       y       z     vdW  Elec       q    Type
REMARK                         _______ _______ _______ _____ _____    ______ ____
ROOT
ATOM      1  N   UNL     1      20.846   8.561  60.850  0.00  0.00    +0.000 NA
ATOM      2  C   UNL     1      20.199   9.142  59.882  0.00  0.00    +0.000 C 
ENDROOT
BRANCH   2   4
ATOM      3  N   UNL     1      22.133   8.654  56.809  0.00  0.00    +0.000 N 
ATOM      4  C   UNL     1      20.731   8.950  58.526  0.00  0.00    +0.000 A 
ATOM      5  C   UNL     1      19.978   8.900  57.301  0.00  0.00    +0.000 A 
ATOM      6  C   UNL     1      20.879   8.713  56.255  0.00  0.00    +0.000 A 
ATOM      7  C   UNL     1      22.065   8.799  58.171  0.00  0.00    +0.000 A 
ATOM      8  C   UNL     1      18.606   8.991  56.988  0.00  0.00    +0.000 A 
ATOM      9  C   UNL     1      20.485   8.616  54.916  0.00  0.00    +0.000 A 
ATOM     10  C   UNL     1      19.115   8.714  54.638  0.00  0.00    +0.000 A 
ATOM     11  C   UNL     1      18.189   8.897  55.659  0.00  0.00    +0.000 A 
ATOM     12  H   UNL     1      22.980   8.526  56.275  0.00  0.00    +0.000 HD
BRANCH   7  13
ATOM     13  O   UNL     1      23.162   8.791  58.922  0.00  0.00    +0.000 OA
ATOM     14  H   UNL     1      23.961   8.807  58.366  0.00  0.00    +0.000 HD
ENDBRANCH   7  13
BRANCH  10  16
ATOM     15  O   UNL     1      17.713   9.344  52.830  0.00  0.00    +0.000 OA
ATOM     16  C   UNL     1      18.605   8.623  53.253  0.00  0.00    +0.000 C 
BRANCH  16  17
ATOM     17  O   UNL     1      19.289   7.640  52.600  0.00  0.00    +0.000 OA
ATOM     18  C   UNL     1      18.551   6.687  51.879  0.00  0.00    +0.000 C 
ENDBRANCH  16  17
ENDBRANCH  10  16
ENDBRANCH   2   4
BRANCH   1  22
ATOM     19  C   UNL     1      19.511   9.085  64.831  0.00  0.00    +0.000 A 
ATOM     20  C   UNL     1      20.183  10.099  64.145  0.00  0.00    +0.000 A 
ATOM     21  C   UNL     1      19.297   7.882  64.144  0.00  0.00    +0.000 A 
ATOM     22  C   UNL     1      20.436   8.713  62.180  0.00  0.00    +0.000 A 
ATOM     23  C   UNL     1      20.633   9.927  62.837  0.00  0.00    +0.000 A 
ATOM     24  C   UNL     1      19.741   7.698  62.835  0.00  0.00    +0.000 A 
BRANCH  19  26
ATOM     25  O   UNL     1      16.771   9.589  65.617  0.00  0.00    +0.000 OA
ATOM     26  N   UNL     1      19.050   9.256  66.190  0.00  0.00    +0.000 N 
ATOM     27  C   UNL     1      17.676   9.500  66.440  0.00  0.00    +0.000 C 
ATOM     28  C   UNL     1      20.090   9.166  67.218  0.00  0.00    +0.000 C 
BRANCH  27  29
ATOM     29  C   UNL     1      17.289   9.671  67.834  0.00  0.00    +0.000 C 
BRANCH  29  30
ATOM     30  N   UNL     1      16.897   9.812  69.235  0.00  0.00    +0.000 N 
ATOM     31  N   UNL     1      15.635   6.869  70.768  0.00  0.00    +0.000 N 
ATOM     32  C   UNL     1      15.518   9.260  69.352  0.00  0.00    +0.000 C 
ATOM     33  C   UNL     1      17.567   8.706  69.975  0.00  0.00    +0.000 C 
ATOM     34  C   UNL     1      14.965   7.969  70.022  0.00  0.00    +0.000 C 
ATOM     35  C   UNL     1      17.013   7.415  70.644  0.00  0.00    +0.000 C 
ATOM     36  C   UNL     1      15.570   5.685  69.922  0.00  0.00    +0.000 C 
ENDBRANCH  29  30
ENDBRANCH  27  29
ENDBRANCH  19  26
ENDBRANCH   1  22
BRANCH   2  37
ATOM     37  C   UNL     1      18.991   9.969  60.051  0.00  0.00    +0.000 A 
ATOM     38  C   UNL     1      19.079  11.352  59.897  0.00  0.00    +0.000 A 
ATOM     39  C   UNL     1      17.775   9.347  60.330  0.00  0.00    +0.000 A 
ATOM     40  C   UNL     1      17.929  12.122  60.032  0.00  0.00    +0.000 A 
ATOM     41  C   UNL     1      16.631  10.127  60.464  0.00  0.00    +0.000 A 
ATOM     42  C   UNL     1      16.708  11.512  60.315  0.00  0.00    +0.000 A 
ENDBRANCH   2  37
TORSDOF 9
ENDMDL
MODEL 2
REMARK VINA RESULT:      -4.7      1.092      1.812
REMARK  Name = 135423438_Nintedanib.pdbqt.pdb
REMARK  9 active torsions:
REMARK  status: ('A' for Active; 'I' for Inactive)
REMARK    1  A    between atoms: N_1  and  C_22
REMARK    2  A    between atoms: C_2  and  C_4
REMARK    3  A    between atoms: C_2  and  C_37
REMARK    4  A    between atoms: C_7  and  O_13
REMARK    5  A    between atoms: C_10  and  C_16
REMARK    6  A    between atoms: C_16  and  O_17
REMARK    7  A    between atoms: C_19  and  N_26
REMARK    8  A    between atoms: C_27  and  C_29
REMARK    9  A    between atoms: C_29  and  N_30
REMARK                            x       y       z     vdW  Elec       q    Type
REMARK                         _______ _______ _______ _____ _____    ______ ____
ROOT
ATOM      1  N   UNL     1      20.942   8.660  60.891  0.00  0.00    +0.000 NA
ATOM      2  C   UNL     1      20.337   9.288  59.924  0.00  0.00    +0.000 C 
ENDROOT
BRANCH   2   4
ATOM      3  N   UNL     1      22.467   9.184  56.945  0.00  0.00    +0.000 N 
ATOM      4  C   UNL     1      20.958   9.205  58.596  0.00  0.00    +0.000 A 
ATOM      5  C   UNL     1      20.284   9.019  57.337  0.00  0.00    +0.000 A 
ATOM      6  C   UNL     1      21.251   9.008  56.334  0.00  0.00    +0.000 A 
ATOM      7  C   UNL     1      22.311   9.309  58.303  0.00  0.00    +0.000 A 
ATOM      8  C   UNL     1      18.935   8.852  56.962  0.00  0.00    +0.000 A 
ATOM      9  C   UNL     1      20.944   8.845  54.980  0.00  0.00    +0.000 A 
ATOM     10  C   UNL     1      19.594   8.685  54.639  0.00  0.00    +0.000 A 
ATOM     11  C   UNL     1      18.604   8.686  55.616  0.00  0.00    +0.000 A 
ATOM     12  H   UNL     1      23.347   9.220  56.452  0.00  0.00    +0.000 HD
BRANCH   7  13
ATOM     13  O   UNL     1      23.354   9.505  59.103  0.00  0.00    +0.000 OA
ATOM     14  H   UNL     1      23.562   8.696  59.603  0.00  0.00    +0.000 HD
ENDBRANCH   7  13
BRANCH  10  16
ATOM     15  O   UNL     1      18.490   7.560  52.864  0.00  0.00    +0.000 OA
ATOM     16  C   UNL     1      19.174   8.504  53.232  0.00  0.00    +0.000 C 
BRANCH  16  17
ATOM     17  O   UNL     1      19.674   9.534  52.492  0.00  0.00    +0.000 OA
ATOM     18  C   UNL     1      20.271   9.234  51.257  0.00  0.00    +0.000 C 
ENDBRANCH  16  17
ENDBRANCH  10  16
ENDBRANCH   2   4
BRANCH   1  22
ATOM     19  C   UNL     1      19.534   8.739  64.880  0.00  0.00    +0.000 A 
ATOM     20  C   UNL     1      19.323   7.634  64.051  0.00  0.00    +0.000 A 
ATOM     21  C   UNL     1      20.233   9.823  64.333  0.00  0.00    +0.000 A 
ATOM     22  C   UNL     1      20.446   8.709  62.199  0.00  0.00    +0.000 A 
ATOM     23  C   UNL     1      19.778   7.608  62.733  0.00  0.00    +0.000 A 
ATOM     24  C   UNL     1      20.693   9.809  63.018  0.00  0.00    +0.000 A 
BRANCH  19  26
ATOM     25  O   UNL     1      16.898   9.599  65.711  0.00  0.00    +0.000 OA
ATOM     26  N   UNL     1      19.058   8.772  66.245  0.00  0.00    +0.000 N 
ATOM     27  C   UNL     1      17.740   9.218  66.518  0.00  0.00    +0.000 C 
ATOM     28  C   UNL     1      20.025   8.333  67.255  0.00  0.00    +0.000 C 
BRANCH  27  29
ATOM     29  C   UNL     1      17.335   9.232  67.916  0.00  0.00    +0.000 C 
BRANCH  29  30
ATOM     30  N   UNL     1      16.911   9.221  69.315  0.00  0.00    +0.000 N 
ATOM     31  N   UNL     1      13.701  10.601  69.944  0.00  0.00    +0.000 N 
ATOM     32  C   UNL     1      16.465  10.605  69.639  0.00  0.00    +0.000 C 
ATOM     33  C   UNL     1      15.551   8.614  69.340  0.00  0.00    +0.000 C 
ATOM     34  C   UNL     1      15.058  11.211  69.911  0.00  0.00    +0.000 C 
ATOM     35  C   UNL     1      14.143   9.220  69.612  0.00  0.00    +0.000 C 
ATOM     36  C   UNL     1      12.984  11.106  68.781  0.00  0.00    +0.000 C 
ENDBRANCH  29  30
ENDBRANCH  27  29
ENDBRANCH  19  26
ENDBRANCH   1  22
BRANCH   2  37
ATOM     37  C   UNL     1      19.095  10.068  60.072  0.00  0.00    +0.000 A 
ATOM     38  C   UNL     1      19.138  11.456  59.949  0.00  0.00    +0.000 A 
ATOM     39  C   UNL     1      17.895   9.397  60.299  0.00  0.00    +0.000 A 
ATOM     40  C   UNL     1      17.956  12.182  60.063  0.00  0.00    +0.000 A 
ATOM     41  C   UNL     1      16.720  10.132  60.412  0.00  0.00    +0.000 A 
ATOM     42  C   UNL     1      16.750  11.522  60.294  0.00  0.00    +0.000 A 
ENDBRANCH   2  37
TORSDOF 9
ENDMDL
MODEL 3
REMARK VINA RESULT:      -4.7      5.459     11.024
REMARK  Name = 135423438_Nintedanib.pdbqt.pdb
REMARK  9 active torsions:
REMARK  status: ('A' for Active; 'I' for Inactive)
REMARK    1  A    between atoms: N_1  and  C_22
REMARK    2  A    between atoms: C_2  and  C_4
REMARK    3  A    between atoms: C_2  and  C_37
REMARK    4  A    between atoms: C_7  and  O_13
REMARK    5  A    between atoms: C_10  and  C_16
REMARK    6  A    between atoms: C_16  and  O_17
REMARK    7  A    between atoms: C_19  and  N_26
REMARK    8  A    between atoms: C_27  and  C_29
REMARK    9  A    between atoms: C_29  and  N_30
REMARK                            x       y       z     vdW  Elec       q    Type
REMARK                         _______ _______ _______ _____ _____    ______ ____
ROOT
ATOM      1  N   UNL     1      14.651  12.093  61.718  0.00  0.00    +0.000 NA
ATOM      2  C   UNL     1      13.748  12.763  61.062  0.00  0.00    +0.000 C 
ENDROOT
BRANCH   2   4
ATOM      3  N   UNL     1      11.322  14.318  63.324  0.00  0.00    +0.000 N 
ATOM      4  C   UNL     1      12.591  13.237  61.834  0.00  0.00    +0.000 A 
ATOM      5  C   UNL     1      11.222  12.822  61.681  0.00  0.00    +0.000 A 
ATOM      6  C   UNL     1      10.460  13.515  62.620  0.00  0.00    +0.000 A 
ATOM      7  C   UNL     1      12.606  14.162  62.870  0.00  0.00    +0.000 A 
ATOM      8  C   UNL     1      10.559  11.923  60.821  0.00  0.00    +0.000 A 
ATOM      9  C   UNL     1       9.076  13.354  62.749  0.00  0.00    +0.000 A 
ATOM     10  C   UNL     1       8.448  12.450  61.882  0.00  0.00    +0.000 A 
ATOM     11  C   UNL     1       9.179  11.746  60.931  0.00  0.00    +0.000 A 
ATOM     12  H   UNL     1      11.037  14.931  64.074  0.00  0.00    +0.000 HD
BRANCH   7  13
ATOM     13  O   UNL     1      13.618  14.829  63.415  0.00  0.00    +0.000 OA
ATOM     14  H   UNL     1      13.788  15.656  62.929  0.00  0.00    +0.000 HD
ENDBRANCH   7  13
BRANCH  10  16
ATOM     15  O   UNL     1       6.264  12.310  60.965  0.00  0.00    +0.000 OA
ATOM     16  C   UNL     1       6.989  12.215  61.945  0.00  0.00    +0.000 C 
BRANCH  16  17
ATOM     17  O   UNL     1       6.653  11.896  63.227  0.00  0.00    +0.000 OA
ATOM     18  C   UNL     1       6.136  10.615  63.476  0.00  0.00    +0.000 C 
ENDBRANCH  16  17
ENDBRANCH  10  16
ENDBRANCH   2   4
BRANCH   1  22
ATOM     19  C   UNL     1      17.974  10.501  59.637  0.00  0.00    +0.000 A 
ATOM     20  C   UNL     1      16.973   9.677  60.157  0.00  0.00    +0.000 A 
ATOM     21  C   UNL     1      17.832  11.881  59.834  0.00  0.00    +0.000 A 
ATOM     22  C   UNL     1      15.773  11.571  61.062  0.00  0.00    +0.000 A 
ATOM     23  C   UNL     1      15.882  10.197  60.851  0.00  0.00    +0.000 A 
ATOM     24  C   UNL     1      16.745  12.414  60.526  0.00  0.00    +0.000 A 
BRANCH  19  26
ATOM     25  O   UNL     1      17.953   9.613  56.882  0.00  0.00    +0.000 OA
ATOM     26  N   UNL     1      19.111   9.965  58.924  0.00  0.00    +0.000 N 
ATOM     27  C   UNL     1      18.967   9.565  57.572  0.00  0.00    +0.000 C 
ATOM     28  C   UNL     1      20.351   9.877  59.700  0.00  0.00    +0.000 C 
BRANCH  27  29
ATOM     29  C   UNL     1      20.155   9.027  56.922  0.00  0.00    +0.000 C 
BRANCH  29  30
ATOM     30  N   UNL     1      21.331   8.485  56.245  0.00  0.00    +0.000 N 
ATOM     31  N   UNL     1      24.405   8.886  57.973  0.00  0.00    +0.000 N 
ATOM     32  C   UNL     1      22.353   9.569  56.226  0.00  0.00    +0.000 C 
ATOM     33  C   UNL     1      22.035   7.629  57.240  0.00  0.00    +0.000 C 
ATOM     34  C   UNL     1      23.699   9.747  56.985  0.00  0.00    +0.000 C 
ATOM     35  C   UNL     1      23.382   7.807  58.000  0.00  0.00    +0.000 C 
ATOM     36  C   UNL     1      24.332   9.571  59.257  0.00  0.00    +0.000 C 
ENDBRANCH  29  30
ENDBRANCH  27  29
ENDBRANCH  19  26
ENDBRANCH   1  22
BRANCH   2  37
ATOM     37  C   UNL     1      13.804  13.070  59.622  0.00  0.00    +0.000 A 
ATOM     38  C   UNL     1      13.453  12.088  58.697  0.00  0.00    +0.000 A 
ATOM     39  C   UNL     1      14.175  14.350  59.214  0.00  0.00    +0.000 A 
ATOM     40  C   UNL     1      13.483  12.395  57.340  0.00  0.00    +0.000 A 
ATOM     41  C   UNL     1      14.203  14.646  57.855  0.00  0.00    +0.000 A 
ATOM     42  C   UNL     1      13.857  13.670  56.920  0.00  0.00    +0.000 A 
ENDBRANCH   2  37
TORSDOF 9
ENDMDL
MODEL 4
REMARK VINA RESULT:      -4.6     11.020     13.263
REMARK  Name = 135423438_Nintedanib.pdbqt.pdb
REMARK  9 active torsions:
REMARK  status: ('A' for Active; 'I' for Inactive)
REMARK    1  A    between atoms: N_1  and  C_22
REMARK    2  A    between atoms: C_2  and  C_4
REMARK    3  A    between atoms: C_2  and  C_37
REMARK    4  A    between atoms: C_7  and  O_13
REMARK    5  A    between atoms: C_10  and  C_16
REMARK    6  A    between atoms: C_16  and  O_17
REMARK    7  A    between atoms: C_19  and  N_26
REMARK    8  A    between atoms: C_27  and  C_29
REMARK    9  A    between atoms: C_29  and  N_30
REMARK                            x       y       z     vdW  Elec       q    Type
REMARK                         _______ _______ _______ _____ _____    ______ ____
ROOT
ATOM      1  N   UNL     1       7.283  12.522  60.695  0.00  0.00    +0.000 NA
ATOM      2  C   UNL     1       7.744  11.706  59.792  0.00  0.00    +0.000 C 
ENDROOT
BRANCH   2   4
ATOM      3  N   UNL     1       9.674  13.133  57.024  0.00  0.00    +0.000 N 
ATOM      4  C   UNL     1       8.730  12.254  58.851  0.00  0.00    +0.000 A 
ATOM      5  C   UNL     1      10.145  12.403  59.072  0.00  0.00    +0.000 A 
ATOM      6  C   UNL     1      10.699  12.955  57.918  0.00  0.00    +0.000 A 
ATOM      7  C   UNL     1       8.484  12.715  57.564  0.00  0.00    +0.000 A 
ATOM      8  C   UNL     1      11.004  12.125  60.154  0.00  0.00    +0.000 A 
ATOM      9  C   UNL     1      12.063  13.237  57.787  0.00  0.00    +0.000 A 
ATOM     10  C   UNL     1      12.891  12.945  58.879  0.00  0.00    +0.000 A 
ATOM     11  C   UNL     1      12.369  12.399  60.046  0.00  0.00    +0.000 A 
ATOM     12  H   UNL     1       9.793  13.516  56.098  0.00  0.00    +0.000 HD
BRANCH   7  13
ATOM     13  O   UNL     1       7.351  12.776  56.873  0.00  0.00    +0.000 OA
ATOM     14  H   UNL     1       7.173  11.930  56.427  0.00  0.00    +0.000 HD
ENDBRANCH   7  13
BRANCH  10  16
ATOM     15  O   UNL     1      14.834  14.073  58.117  0.00  0.00    +0.000 OA
ATOM     16  C   UNL     1      14.345  13.211  58.831  0.00  0.00    +0.000 C 
BRANCH  16  17
ATOM     17  O   UNL     1      14.973  12.356  59.688  0.00  0.00    +0.000 OA
ATOM     18  C   UNL     1      16.258  11.902  59.348  0.00  0.00    +0.000 C 
ENDBRANCH  16  17
ENDBRANCH  10  16
ENDBRANCH   2   4
BRANCH   1  22
ATOM     19  C   UNL     1       4.377  11.351  63.538  0.00  0.00    +0.000 A 
ATOM     20  C   UNL     1       5.743  11.191  63.781  0.00  0.00    +0.000 A 
ATOM     21  C   UNL     1       4.008  11.916  62.310  0.00  0.00    +0.000 A 
ATOM     22  C   UNL     1       6.315  12.102  61.614  0.00  0.00    +0.000 A 
ATOM     23  C   UNL     1       6.703  11.568  62.842  0.00  0.00    +0.000 A 
ATOM     24  C   UNL     1       4.958  12.297  61.364  0.00  0.00    +0.000 A 
BRANCH  19  26
ATOM     25  O   UNL     1       2.950   8.832  63.533  0.00  0.00    +0.000 OA
ATOM     26  N   UNL     1       3.378  10.955  64.505  0.00  0.00    +0.000 N 
ATOM     27  C   UNL     1       2.751   9.689  64.388  0.00  0.00    +0.000 C 
ATOM     28  C   UNL     1       3.093  11.943  65.549  0.00  0.00    +0.000 C 
BRANCH  27  29
ATOM     29  C   UNL     1       1.749   9.364  65.395  0.00  0.00    +0.000 C 
BRANCH  29  30
ATOM     30  N   UNL     1       0.722   9.048  66.386  0.00  0.00    +0.000 N 
ATOM     31  N   UNL     1       0.904   5.790  67.783  0.00  0.00    +0.000 N 
ATOM     32  C   UNL     1       0.115   7.751  65.977  0.00  0.00    +0.000 C 
ATOM     33  C   UNL     1       1.436   8.513  67.578  0.00  0.00    +0.000 C 
ATOM     34  C   UNL     1       0.197   6.322  66.587  0.00  0.00    +0.000 C 
ATOM     35  C   UNL     1       1.518   7.083  68.189  0.00  0.00    +0.000 C 
ATOM     36  C   UNL     1       1.984   4.944  67.294  0.00  0.00    +0.000 C 
ENDBRANCH  29  30
ENDBRANCH  27  29
ENDBRANCH  19  26
ENDBRANCH   1  22
BRANCH   2  37
ATOM     37  C   UNL     1       7.347  10.294  59.649  0.00  0.00    +0.000 A 
ATOM     38  C   UNL     1       6.319   9.956  58.771  0.00  0.00    +0.000 A 
ATOM     39  C   UNL     1       8.033   9.319  60.373  0.00  0.00    +0.000 A 
ATOM     40  C   UNL     1       5.969   8.617  58.623  0.00  0.00    +0.000 A 
ATOM     41  C   UNL     1       7.674   7.984  60.217  0.00  0.00    +0.000 A 
ATOM     42  C   UNL     1       6.644   7.634  59.344  0.00  0.00    +0.000 A 
ENDBRANCH   2  37
TORSDOF 9
ENDMDL
MODEL 5
REMARK VINA RESULT:      -4.6      8.247     17.207
REMARK  Name = 135423438_Nintedanib.pdbqt.pdb
REMARK  9 active torsions:
REMARK  status: ('A' for Active; 'I' for Inactive)
REMARK    1  A    between atoms: N_1  and  C_22
REMARK    2  A    between atoms: C_2  and  C_4
REMARK    3  A    between atoms: C_2  and  C_37
REMARK    4  A    between atoms: C_7  and  O_13
REMARK    5  A    between atoms: C_10  and  C_16
REMARK    6  A    between atoms: C_16  and  O_17
REMARK    7  A    between atoms: C_19  and  N_26
REMARK    8  A    between atoms: C_27  and  C_29
REMARK    9  A    between atoms: C_29  and  N_30
REMARK                            x       y       z     vdW  Elec       q    Type
REMARK                         _______ _______ _______ _____ _____    ______ ____
ROOT
ATOM      1  N   UNL     1      13.275   4.401  73.003  0.00  0.00    +0.000 NA
ATOM      2  C   UNL     1      13.333   3.763  74.136  0.00  0.00    +0.000 C 
ENDROOT
BRANCH   2   4
ATOM      3  N   UNL     1      10.906   5.008  76.581  0.00  0.00    +0.000 N 
ATOM      4  C   UNL     1      12.246   4.016  75.090  0.00  0.00    +0.000 A 
ATOM      5  C   UNL     1      11.219   3.092  75.495  0.00  0.00    +0.000 A 
ATOM      6  C   UNL     1      10.402   3.742  76.419  0.00  0.00    +0.000 A 
ATOM      7  C   UNL     1      12.015   5.190  75.795  0.00  0.00    +0.000 A 
ATOM      8  C   UNL     1      10.905   1.761  75.151  0.00  0.00    +0.000 A 
ATOM      9  C   UNL     1       9.296   3.133  77.021  0.00  0.00    +0.000 A 
ATOM     10  C   UNL     1       9.014   1.808  76.661  0.00  0.00    +0.000 A 
ATOM     11  C   UNL     1       9.806   1.133  75.739  0.00  0.00    +0.000 A 
ATOM     12  H   UNL     1      10.508   5.699  77.201  0.00  0.00    +0.000 HD
BRANCH   7  13
ATOM     13  O   UNL     1      12.684   6.339  75.798  0.00  0.00    +0.000 OA
ATOM     14  H   UNL     1      13.164   6.461  74.961  0.00  0.00    +0.000 HD
ENDBRANCH   7  13
BRANCH  10  16
ATOM     15  O   UNL     1       6.708   1.451  77.094  0.00  0.00    +0.000 OA
ATOM     16  C   UNL     1       7.864   1.084  77.245  0.00  0.00    +0.000 C 
BRANCH  16  17
ATOM     17  O   UNL     1       8.333   0.004  77.933  0.00  0.00    +0.000 OA
ATOM     18  C   UNL     1       8.762   0.197  79.256  0.00  0.00    +0.000 C 
ENDBRANCH  16  17
ENDBRANCH  10  16
ENDBRANCH   2   4
BRANCH   1  22
ATOM     19  C   UNL     1      16.254   4.007  70.024  0.00  0.00    +0.000 A 
ATOM     20  C   UNL     1      15.130   3.177  70.049  0.00  0.00    +0.000 A 
ATOM     21  C   UNL     1      16.354   4.977  71.029  0.00  0.00    +0.000 A 
ATOM     22  C   UNL     1      14.284   4.251  72.043  0.00  0.00    +0.000 A 
ATOM     23  C   UNL     1      14.151   3.298  71.035  0.00  0.00    +0.000 A 
ATOM     24  C   UNL     1      15.382   5.109  72.020  0.00  0.00    +0.000 A 
BRANCH  19  26
ATOM     25  O   UNL     1      16.088   5.082  67.341  0.00  0.00    +0.000 OA
ATOM     26  N   UNL     1      17.275   3.879  69.008  0.00  0.00    +0.000 N 
ATOM     27  C   UNL     1      17.069   4.454  67.729  0.00  0.00    +0.000 C 
ATOM     28  C   UNL     1      18.469   3.132  69.414  0.00  0.00    +0.000 C 
BRANCH  27  29
ATOM     29  C   UNL     1      18.138   4.277  66.757  0.00  0.00    +0.000 C 
BRANCH  29  30
ATOM     30  N   UNL     1      19.230   4.117  65.798  0.00  0.00    +0.000 N 
ATOM     31  N   UNL     1      19.212   1.080  63.960  0.00  0.00    +0.000 N 
ATOM     32  C   UNL     1      19.844   2.786  66.063  0.00  0.00    +0.000 C 
ATOM     33  C   UNL     1      18.602   3.739  64.501  0.00  0.00    +0.000 C 
ATOM     34  C   UNL     1      19.834   1.454  65.260  0.00  0.00    +0.000 C 
ATOM     35  C   UNL     1      18.592   2.406  63.698  0.00  0.00    +0.000 C 
ATOM     36  C   UNL     1      18.127   0.157  64.262  0.00  0.00    +0.000 C 
ENDBRANCH  29  30
ENDBRANCH  27  29
ENDBRANCH  19  26
ENDBRANCH   1  22
BRANCH   2  37
ATOM     37  C   UNL     1      14.401   2.823  74.522  0.00  0.00    +0.000 A 
ATOM     38  C   UNL     1      15.461   3.273  75.307  0.00  0.00    +0.000 A 
ATOM     39  C   UNL     1      14.310   1.491  74.120  0.00  0.00    +0.000 A 
ATOM     40  C   UNL     1      16.450   2.372  75.688  0.00  0.00    +0.000 A 
ATOM     41  C   UNL     1      15.305   0.599  74.506  0.00  0.00    +0.000 A 
ATOM     42  C   UNL     1      16.373   1.038  75.289  0.00  0.00    +0.000 A 
ENDBRANCH   2  37
TORSDOF 9
ENDMDL
MODEL 6
REMARK VINA RESULT:      -4.5     12.017     14.345
REMARK  Name = 135423438_Nintedanib.pdbqt.pdb
REMARK  9 active torsions:
REMARK  status: ('A' for Active; 'I' for Inactive)
REMARK    1  A    between atoms: N_1  and  C_22
REMARK    2  A    between atoms: C_2  and  C_4
REMARK    3  A    between atoms: C_2  and  C_37
REMARK    4  A    between atoms: C_7  and  O_13
REMARK    5  A    between atoms: C_10  and  C_16
REMARK    6  A    between atoms: C_16  and  O_17
REMARK    7  A    between atoms: C_19  and  N_26
REMARK    8  A    between atoms: C_27  and  C_29
REMARK    9  A    between atoms: C_29  and  N_30
REMARK                            x       y       z     vdW  Elec       q    Type
REMARK                         _______ _______ _______ _____ _____    ______ ____
ROOT
ATOM      1  N   UNL     1       5.865   8.906  59.988  0.00  0.00    +0.000 NA
ATOM      2  C   UNL     1       5.998  10.165  60.291  0.00  0.00    +0.000 C 
ENDROOT
BRANCH   2   4
ATOM      3  N   UNL     1       7.356  12.188  57.556  0.00  0.00    +0.000 N 
ATOM      4  C   UNL     1       6.766  10.990  59.350  0.00  0.00    +0.000 A 
ATOM      5  C   UNL     1       8.121  11.449  59.510  0.00  0.00    +0.000 A 
ATOM      6  C   UNL     1       8.455  12.192  58.379  0.00  0.00    +0.000 A 
ATOM      7  C   UNL     1       6.334  11.468  58.120  0.00  0.00    +0.000 A 
ATOM      8  C   UNL     1       9.094  11.305  60.520  0.00  0.00    +0.000 A 
ATOM      9  C   UNL     1       9.706  12.793  58.202  0.00  0.00    +0.000 A 
ATOM     10  C   UNL     1      10.651  12.627  59.222  0.00  0.00    +0.000 A 
ATOM     11  C   UNL     1      10.349  11.895  60.366  0.00  0.00    +0.000 A 
ATOM     12  H   UNL     1       7.321  12.651  56.659  0.00  0.00    +0.000 HD
BRANCH   7  13
ATOM     13  O   UNL     1       5.172  11.312  57.494  0.00  0.00    +0.000 OA
ATOM     14  H   UNL     1       5.104  10.420  57.110  0.00  0.00    +0.000 HD
ENDBRANCH   7  13
BRANCH  10  16
ATOM     15  O   UNL     1      12.198  14.427  59.242  0.00  0.00    +0.000 OA
ATOM     16  C   UNL     1      12.000  13.226  59.123  0.00  0.00    +0.000 C 
BRANCH  16  17
ATOM     17  O   UNL     1      12.903  12.232  58.889  0.00  0.00    +0.000 OA
ATOM     18  C   UNL     1      14.027  12.149  59.726  0.00  0.00    +0.000 C 
ENDBRANCH  16  17
ENDBRANCH  10  16
ENDBRANCH   2   4
BRANCH   1  22
ATOM     19  C   UNL     1       3.783   6.186  62.473  0.00  0.00    +0.000 A 
ATOM     20  C   UNL     1       3.116   6.977  61.535  0.00  0.00    +0.000 A 
ATOM     21  C   UNL     1       5.174   6.332  62.558  0.00  0.00    +0.000 A 
ATOM     22  C   UNL     1       5.179   8.032  60.840  0.00  0.00    +0.000 A 
ATOM     23  C   UNL     1       3.798   7.881  60.720  0.00  0.00    +0.000 A 
ATOM     24  C   UNL     1       5.867   7.231  61.750  0.00  0.00    +0.000 A 
BRANCH  19  26
ATOM     25  O   UNL     1       2.466   6.859  64.962  0.00  0.00    +0.000 OA
ATOM     26  N   UNL     1       3.080   5.254  63.324  0.00  0.00    +0.000 N 
ATOM     27  C   UNL     1       2.476   5.713  64.522  0.00  0.00    +0.000 C 
ATOM     28  C   UNL     1       3.064   3.866  62.852  0.00  0.00    +0.000 C 
BRANCH  27  29
ATOM     29  C   UNL     1       1.793   4.714  65.331  0.00  0.00    +0.000 C 
BRANCH  29  30
ATOM     30  N   UNL     1       1.096   3.733  66.161  0.00  0.00    +0.000 N 
ATOM     31  N   UNL     1       2.885   0.735  66.804  0.00  0.00    +0.000 N 
ATOM     32  C   UNL     1       1.160   2.434  65.435  0.00  0.00    +0.000 C 
ATOM     33  C   UNL     1       2.042   3.349  67.245  0.00  0.00    +0.000 C 
ATOM     34  C   UNL     1       1.946   1.120  65.715  0.00  0.00    +0.000 C 
ATOM     35  C   UNL     1       2.829   2.035  67.525  0.00  0.00    +0.000 C 
ATOM     36  C   UNL     1       4.210   0.640  66.205  0.00  0.00    +0.000 C 
ENDBRANCH  29  30
ENDBRANCH  27  29
ENDBRANCH  19  26
ENDBRANCH   1  22
BRANCH   2  37
ATOM     37  C   UNL     1       5.444  10.806  61.497  0.00  0.00    +0.000 A 
ATOM     38  C   UNL     1       6.150  10.740  62.696  0.00  0.00    +0.000 A 
ATOM     39  C   UNL     1       4.236  11.497  61.404  0.00  0.00    +0.000 A 
ATOM     40  C   UNL     1       5.632  11.371  63.823  0.00  0.00    +0.000 A 
ATOM     41  C   UNL     1       3.727  12.124  62.537  0.00  0.00    +0.000 A 
ATOM     42  C   UNL     1       4.424  12.061  63.743  0.00  0.00    +0.000 A 
ENDBRANCH   2  37
TORSDOF 9
ENDMDL
MODEL 7
REMARK VINA RESULT:      -4.4     13.493     21.379
REMARK  Name = 135423438_Nintedanib.pdbqt.pdb
REMARK  9 active torsions:
REMARK  status: ('A' for Active; 'I' for Inactive)
REMARK    1  A    between atoms: N_1  and  C_22
REMARK    2  A    between atoms: C_2  and  C_4
REMARK    3  A    between atoms: C_2  and  C_37
REMARK    4  A    between atoms: C_7  and  O_13
REMARK    5  A    between atoms: C_10  and  C_16
REMARK    6  A    between atoms: C_16  and  O_17
REMARK    7  A    between atoms: C_19  and  N_26
REMARK    8  A    between atoms: C_27  and  C_29
REMARK    9  A    between atoms: C_29  and  N_30
REMARK                            x       y       z     vdW  Elec       q    Type
REMARK                         _______ _______ _______ _____ _____    ______ ____
ROOT
ATOM      1  N   UNL     1       4.208   9.506  74.182  0.00  0.00    +0.000 NA
ATOM      2  C   UNL     1       3.346   8.666  73.685  0.00  0.00    +0.000 C 
ENDROOT
BRANCH   2   4
ATOM      3  N   UNL     1       2.690   5.663  75.678  0.00  0.00    +0.000 N 
ATOM      4  C   UNL     1       2.871   7.603  74.581  0.00  0.00    +0.000 A 
ATOM      5  C   UNL     1       1.710   7.644  75.430  0.00  0.00    +0.000 A 
ATOM      6  C   UNL     1       1.628   6.424  76.099  0.00  0.00    +0.000 A 
ATOM      7  C   UNL     1       3.445   6.352  74.763  0.00  0.00    +0.000 A 
ATOM      8  C   UNL     1       0.722   8.615  75.696  0.00  0.00    +0.000 A 
ATOM      9  C   UNL     1       0.613   6.121  77.012  0.00  0.00    +0.000 A 
ATOM     10  C   UNL     1      -0.355   7.105  77.251  0.00  0.00    +0.000 A 
ATOM     11  C   UNL     1      -0.301   8.334  76.604  0.00  0.00    +0.000 A 
ATOM     12  H   UNL     1       2.875   4.724  76.001  0.00  0.00    +0.000 HD
BRANCH   7  13
ATOM     13  O   UNL     1       4.519   5.806  74.203  0.00  0.00    +0.000 OA
ATOM     14  H   UNL     1       4.689   4.922  74.572  0.00  0.00    +0.000 HD
ENDBRANCH   7  13
BRANCH  10  16
ATOM     15  O   UNL     1      -1.701   7.625  79.135  0.00  0.00    +0.000 OA
ATOM     16  C   UNL     1      -1.465   6.873  78.201  0.00  0.00    +0.000 C 
BRANCH  16  17
ATOM     17  O   UNL     1      -2.118   5.732  77.839  0.00  0.00    +0.000 OA
ATOM     18  C   UNL     1      -3.153   5.832  76.896  0.00  0.00    +0.000 C 
ENDBRANCH  16  17
ENDBRANCH  10  16
ENDBRANCH   2   4
BRANCH   1  22
ATOM     19  C   UNL     1       5.797  12.547  71.707  0.00  0.00    +0.000 A 
ATOM     20  C   UNL     1       6.493  11.359  71.944  0.00  0.00    +0.000 A 
ATOM     21  C   UNL     1       4.548  12.690  72.325  0.00  0.00    +0.000 A 
ATOM     22  C   UNL     1       4.744  10.532  73.396  0.00  0.00    +0.000 A 
ATOM     23  C   UNL     1       5.976  10.359  72.767  0.00  0.00    +0.000 A 
ATOM     24  C   UNL     1       4.021  11.697  73.148  0.00  0.00    +0.000 A 
BRANCH  19  26
ATOM     25  O   UNL     1       5.156  12.926  68.909  0.00  0.00    +0.000 OA
ATOM     26  N   UNL     1       6.333  13.590  70.861  0.00  0.00    +0.000 N 
ATOM     27  C   UNL     1       5.937  13.664  69.502  0.00  0.00    +0.000 C 
ATOM     28  C   UNL     1       7.278  14.500  71.514  0.00  0.00    +0.000 C 
BRANCH  27  29
ATOM     29  C   UNL     1       6.524  14.737  68.711  0.00  0.00    +0.000 C 
BRANCH  29  30
ATOM     30  N   UNL     1       7.116  15.830  67.942  0.00  0.00    +0.000 N 
ATOM     31  N   UNL     1       9.290  14.844  65.315  0.00  0.00    +0.000 N 
ATOM     32  C   UNL     1       8.584  15.581  67.901  0.00  0.00    +0.000 C 
ATOM     33  C   UNL     1       6.869  15.520  66.507  0.00  0.00    +0.000 C 
ATOM     34  C   UNL     1       9.537  15.147  66.751  0.00  0.00    +0.000 C 
ATOM     35  C   UNL     1       7.822  15.084  65.356  0.00  0.00    +0.000 C 
ATOM     36  C   UNL     1       9.480  13.410  65.146  0.00  0.00    +0.000 C 
ENDBRANCH  29  30
ENDBRANCH  27  29
ENDBRANCH  19  26
ENDBRANCH   1  22
BRANCH   2  37
ATOM     37  C   UNL     1       2.828   8.706  72.306  0.00  0.00    +0.000 A 
ATOM     38  C   UNL     1       3.561   8.112  71.280  0.00  0.00    +0.000 A 
ATOM     39  C   UNL     1       1.594   9.308  72.062  0.00  0.00    +0.000 A 
ATOM     40  C   UNL     1       3.051   8.131  69.986  0.00  0.00    +0.000 A 
ATOM     41  C   UNL     1       1.094   9.322  70.764  0.00  0.00    +0.000 A 
ATOM     42  C   UNL     1       1.820   8.735  69.728  0.00  0.00    +0.000 A 
ENDBRANCH   2  37
TORSDOF 9
ENDMDL
MODEL 8
REMARK VINA RESULT:      -4.4     12.429     17.841
REMARK  Name = 135423438_Nintedanib.pdbqt.pdb
REMARK  9 active torsions:
REMARK  status: ('A' for Active; 'I' for Inactive)
REMARK    1  A    between atoms: N_1  and  C_22
REMARK    2  A    between atoms: C_2  and  C_4
REMARK    3  A    between atoms: C_2  and  C_37
REMARK    4  A    between atoms: C_7  and  O_13
REMARK    5  A    between atoms: C_10  and  C_16
REMARK    6  A    between atoms: C_16  and  O_17
REMARK    7  A    between atoms: C_19  and  N_26
REMARK    8  A    between atoms: C_27  and  C_29
REMARK    9  A    between atoms: C_29  and  N_30
REMARK                            x       y       z     vdW  Elec       q    Type
REMARK                         _______ _______ _______ _____ _____    ______ ____
ROOT
ATOM      1  N   UNL     1       5.515   3.168  57.570  0.00  0.00    +0.000 NA
ATOM      2  C   UNL     1       6.331   3.404  58.556  0.00  0.00    +0.000 C 
ENDROOT
BRANCH   2   4
ATOM      3  N   UNL     1       5.473   1.849  61.761  0.00  0.00    +0.000 N 
ATOM      4  C   UNL     1       5.870   3.020  59.897  0.00  0.00    +0.000 A 
ATOM      5  C   UNL     1       5.108   3.829  60.813  0.00  0.00    +0.000 A 
ATOM      6  C   UNL     1       4.882   3.072  61.961  0.00  0.00    +0.000 A 
ATOM      7  C   UNL     1       6.067   1.798  60.526  0.00  0.00    +0.000 A 
ATOM      8  C   UNL     1       4.597   5.142  60.771  0.00  0.00    +0.000 A 
ATOM      9  C   UNL     1       4.169   3.553  63.064  0.00  0.00    +0.000 A 
ATOM     10  C   UNL     1       3.670   4.861  62.989  0.00  0.00    +0.000 A 
ATOM     11  C   UNL     1       3.883   5.644  61.860  0.00  0.00    +0.000 A 
ATOM     12  H   UNL     1       5.460   1.099  62.436  0.00  0.00    +0.000 HD
BRANCH   7  13
ATOM     13  O   UNL     1       6.690   0.702  60.104  0.00  0.00    +0.000 OA
ATOM     14  H   UNL     1       6.153   0.233  59.442  0.00  0.00    +0.000 HD
ENDBRANCH   7  13
BRANCH  10  16
ATOM     15  O   UNL     1       2.285   4.777  64.915  0.00  0.00    +0.000 OA
ATOM     16  C   UNL     1       2.905   5.455  64.108  0.00  0.00    +0.000 C 
BRANCH  16  17
ATOM     17  O   UNL     1       3.031   6.811  64.050  0.00  0.00    +0.000 OA
ATOM     18  C   UNL     1       2.121   7.592  64.781  0.00  0.00    +0.000 C 
ENDBRANCH  16  17
ENDBRANCH  10  16
ENDBRANCH   2   4
BRANCH   1  22
ATOM     19  C   UNL     1       6.610   4.338  53.654  0.00  0.00    +0.000 A 
ATOM     20  C   UNL     1       5.752   5.114  54.436  0.00  0.00    +0.000 A 
ATOM     21  C   UNL     1       7.094   3.151  54.221  0.00  0.00    +0.000 A 
ATOM     22  C   UNL     1       5.851   3.529  56.260  0.00  0.00    +0.000 A 
ATOM     23  C   UNL     1       5.382   4.727  55.723  0.00  0.00    +0.000 A 
ATOM     24  C   UNL     1       6.732   2.754  55.507  0.00  0.00    +0.000 A 
BRANCH  19  26
ATOM     25  O   UNL     1       8.500   6.431  52.999  0.00  0.00    +0.000 OA
ATOM     26  N   UNL     1       6.990   4.731  52.316  0.00  0.00    +0.000 N 
ATOM     27  C   UNL     1       7.930   5.776  52.132  0.00  0.00    +0.000 C 
ATOM     28  C   UNL     1       6.336   3.987  51.236  0.00  0.00    +0.000 C 
BRANCH  27  29
ATOM     29  C   UNL     1       8.257   6.122  50.755  0.00  0.00    +0.000 C 
BRANCH  29  30
ATOM     30  N   UNL     1       8.565   6.492  49.375  0.00  0.00    +0.000 N 
ATOM     31  N   UNL     1      11.983   6.228  48.454  0.00  0.00    +0.000 N 
ATOM     32  C   UNL     1       9.693   7.463  49.432  0.00  0.00    +0.000 C 
ATOM     33  C   UNL     1       9.361   5.369  48.804  0.00  0.00    +0.000 C 
ATOM     34  C   UNL     1      11.191   7.347  49.032  0.00  0.00    +0.000 C 
ATOM     35  C   UNL     1      10.861   5.253  48.404  0.00  0.00    +0.000 C 
ATOM     36  C   UNL     1      12.893   5.772  49.496  0.00  0.00    +0.000 C 
ENDBRANCH  29  30
ENDBRANCH  27  29
ENDBRANCH  19  26
ENDBRANCH   1  22
BRANCH   2  37
ATOM     37  C   UNL     1       7.661   4.023  58.422  0.00  0.00    +0.000 A 
ATOM     38  C   UNL     1       7.762   5.402  58.252  0.00  0.00    +0.000 A 
ATOM     39  C   UNL     1       8.796   3.217  58.501  0.00  0.00    +0.000 A 
ATOM     40  C   UNL     1       9.024   5.981  58.153  0.00  0.00    +0.000 A 
ATOM     41  C   UNL     1      10.052   3.806  58.399  0.00  0.00    +0.000 A 
ATOM     42  C   UNL     1      10.166   5.185  58.226  0.00  0.00    +0.000 A 
ENDBRANCH   2  37
TORSDOF 9
ENDMDL
MODEL 9
REMARK VINA RESULT:      -4.3     13.572     21.311
REMARK  Name = 135423438_Nintedanib.pdbqt.pdb
REMARK  9 active torsions:
REMARK  status: ('A' for Active; 'I' for Inactive)
REMARK    1  A    between atoms: N_1  and  C_22
REMARK    2  A    between atoms: C_2  and  C_4
REMARK    3  A    between atoms: C_2  and  C_37
REMARK    4  A    between atoms: C_7  and  O_13
REMARK    5  A    between atoms: C_10  and  C_16
REMARK    6  A    between atoms: C_16  and  O_17
REMARK    7  A    between atoms: C_19  and  N_26
REMARK    8  A    between atoms: C_27  and  C_29
REMARK    9  A    between atoms: C_29  and  N_30
REMARK                            x       y       z     vdW  Elec       q    Type
REMARK                         _______ _______ _______ _____ _____    ______ ____
ROOT
ATOM      1  N   UNL     1       4.343   9.269  74.360  0.00  0.00    +0.000 NA
ATOM      2  C   UNL     1       3.428   8.495  73.852  0.00  0.00    +0.000 C 
ENDROOT
BRANCH   2   4
ATOM      3  N   UNL     1       2.818   5.376  75.674  0.00  0.00    +0.000 N 
ATOM      4  C   UNL     1       2.971   7.379  74.690  0.00  0.00    +0.000 A 
ATOM      5  C   UNL     1       1.817   7.359  75.550  0.00  0.00    +0.000 A 
ATOM      6  C   UNL     1       1.753   6.102  76.148  0.00  0.00    +0.000 A 
ATOM      7  C   UNL     1       3.558   6.124  74.794  0.00  0.00    +0.000 A 
ATOM      8  C   UNL     1       0.823   8.303  75.880  0.00  0.00    +0.000 A 
ATOM      9  C   UNL     1       0.750   5.737  77.051  0.00  0.00    +0.000 A 
ATOM     10  C   UNL     1      -0.225   6.696  77.355  0.00  0.00    +0.000 A 
ATOM     11  C   UNL     1      -0.188   7.961  76.779  0.00  0.00    +0.000 A 
ATOM     12  H   UNL     1       3.014   4.423  75.941  0.00  0.00    +0.000 HD
BRANCH   7  13
ATOM     13  O   UNL     1       4.631   5.622  74.193  0.00  0.00    +0.000 OA
ATOM     14  H   UNL     1       4.700   4.665  74.354  0.00  0.00    +0.000 HD
ENDBRANCH   7  13
BRANCH  10  16
ATOM     15  O   UNL     1      -1.532   7.072  79.300  0.00  0.00    +0.000 OA
ATOM     16  C   UNL     1      -1.324   6.399  78.300  0.00  0.00    +0.000 C 
BRANCH  16  17
ATOM     17  O   UNL     1      -2.000   5.304  77.853  0.00  0.00    +0.000 OA
ATOM     18  C   UNL     1      -3.023   5.496  76.910  0.00  0.00    +0.000 C 
ENDBRANCH  16  17
ENDBRANCH  10  16
ENDBRANCH   2   4
BRANCH   1  22
ATOM     19  C   UNL     1       5.972  12.548  72.239  0.00  0.00    +0.000 A 
ATOM     20  C   UNL     1       4.810  12.675  73.003  0.00  0.00    +0.000 A 
ATOM     21  C   UNL     1       6.577  11.284  72.203  0.00  0.00    +0.000 A 
ATOM     22  C   UNL     1       4.867  10.339  73.625  0.00  0.00    +0.000 A 
ATOM     23  C   UNL     1       4.265  11.595  73.696  0.00  0.00    +0.000 A 
ATOM     24  C   UNL     1       6.043  10.197  72.892  0.00  0.00    +0.000 A 
BRANCH  19  26
ATOM     25  O   UNL     1       8.090  14.270  73.200  0.00  0.00    +0.000 OA
ATOM     26  N   UNL     1       6.536  13.663  71.513  0.00  0.00    +0.000 N 
ATOM     27  C   UNL     1       7.573  14.431  72.099  0.00  0.00    +0.000 C 
ATOM     28  C   UNL     1       5.951  13.907  70.191  0.00  0.00    +0.000 C 
BRANCH  27  29
ATOM     29  C   UNL     1       8.084  15.543  71.311  0.00  0.00    +0.000 C 
BRANCH  29  30
ATOM     30  N   UNL     1       8.604  16.641  70.497  0.00  0.00    +0.000 N 
ATOM     31  N   UNL     1      11.388  15.833  68.448  0.00  0.00    +0.000 N 
ATOM     32  C   UNL     1      10.072  16.698  70.740  0.00  0.00    +0.000 C 
ATOM     33  C   UNL     1       8.700  16.124  69.103  0.00  0.00    +0.000 C 
ATOM     34  C   UNL     1      11.293  16.341  69.843  0.00  0.00    +0.000 C 
ATOM     35  C   UNL     1       9.921  15.767  68.206  0.00  0.00    +0.000 C 
ATOM     36  C   UNL     1      11.865  14.459  68.530  0.00  0.00    +0.000 C 
ENDBRANCH  29  30
ENDBRANCH  27  29
ENDBRANCH  19  26
ENDBRANCH   1  22
BRANCH   2  37
ATOM     37  C   UNL     1       2.831   8.659  72.514  0.00  0.00    +0.000 A 
ATOM     38  C   UNL     1       3.474   8.113  71.405  0.00  0.00    +0.000 A 
ATOM     39  C   UNL     1       1.615   9.330  72.391  0.00  0.00    +0.000 A 
ATOM     40  C   UNL     1       2.890   8.250  70.149  0.00  0.00    +0.000 A 
ATOM     41  C   UNL     1       1.041   9.462  71.130  0.00  0.00    +0.000 A 
ATOM     42  C   UNL     1       1.677   8.923  70.012  0.00  0.00    +0.000 A 
ENDBRANCH   2  37
TORSDOF 9
ENDMDL
