MODEL 1
REMARK VINA RESULT:      -4.8      0.000      0.000
REMARK  Name = 135403648_CalciumFolinate.pdbqt.pdb
REMARK  10 active torsions:
REMARK  status: ('A' for Active; 'I' for Inactive)
REMARK    1  A    between atoms: N_1  and  C_3
REMARK    2  A    between atoms: N_1  and  C_24
REMARK    3  A    between atoms: C_6  and  C_11
REMARK    4  A    between atoms: CA_13  and  C_15
REMARK    5  A    between atoms: CA_13  and  CB_18
REMARK    6  A    between atoms: C_15  and  O_16
REMARK    7  A    between atoms: CG_19  and  CD_21
REMARK    8  A    between atoms: CD_21  and  OE1_22
REMARK    9  A    between atoms: C_24  and  C_32
REMARK   10  A    between atoms: N_27  and  C_37
REMARK                            x       y       z     vdW  Elec       q    Type
REMARK                         _______ _______ _______ _____ _____    ______ ____
ROOT
ATOM      1  N   UNL     1      12.242   0.868  74.416  0.00  0.00    +0.000 N 
ATOM      2  H   UNL     1      12.088  -0.128  74.259  0.00  0.00    +0.000 HD
ENDROOT
BRANCH   1   3
ATOM      3  C   UNL     1      12.853   1.494  73.310  0.00  0.00    +0.000 A 
ATOM      4  C   UNL     1      13.109   0.743  72.158  0.00  0.00    +0.000 A 
ATOM      5  C   UNL     1      13.376   2.790  73.382  0.00  0.00    +0.000 A 
ATOM      6  C   UNL     1      14.278   2.600  71.149  0.00  0.00    +0.000 A 
ATOM      7  C   UNL     1      13.800   1.294  71.080  0.00  0.00    +0.000 A 
ATOM      8  C   UNL     1      14.067   3.347  72.308  0.00  0.00    +0.000 A 
BRANCH   6  11
ATOM      9  O   UNL     1      15.743   2.528  69.333  0.00  0.00    +0.000 OA
ATOM     10  N   UNL     1      14.817   4.587  69.852  0.00  0.00    +0.000 N 
ATOM     11  C   ACE A   0      15.015   3.230  70.026  0.00  0.00    +0.000 C 
ATOM     12  H   UNL     1      14.195   5.085  70.483  0.00  0.00    +0.000 HD
ATOM     13  CA  UNL     1      15.388   5.396  68.885  0.00  0.00    +0.000 C 
BRANCH  13  15
ATOM     14  OXT UNL     1      14.991   7.561  67.955  0.00  0.00    +0.000 OA
ATOM     15  C   UNL     1      15.001   6.827  68.932  0.00  0.00    +0.000 C 
BRANCH  15  16
ATOM     16  O   UNL     1      14.654   7.264  70.152  0.00  0.00    +0.000 OA
ATOM     17  H   UNL     1      13.756   7.640  70.038  0.00  0.00    +0.000 HD
ENDBRANCH  15  16
ENDBRANCH  13  15
BRANCH  13  18
ATOM     18  CB  UNL     1      16.287   4.892  67.909  0.00  0.00    +0.000 C 
ATOM     19  CG  UNL     1      17.249   4.345  66.847  0.00  0.00    +0.000 C 
BRANCH  19  21
ATOM     20  OE2 UNL     1      19.346   3.853  65.940  0.00  0.00    +0.000 OA
ATOM     21  CD  UNL     1      18.131   3.831  65.845  0.00  0.00    +0.000 C 
BRANCH  21  22
ATOM     22  OE1 UNL     1      17.504   3.335  64.764  0.00  0.00    +0.000 OA
ATOM     23  HE1 UNL     1      16.963   2.606  65.131  0.00  0.00    +0.000 HD
ENDBRANCH  21  22
ENDBRANCH  19  21
ENDBRANCH  13  18
ENDBRANCH   6  11
ENDBRANCH   1   3
BRANCH   1  24
ATOM     24  C   UNL     1      11.177   1.573  75.119  0.00  0.00    +0.000 C 
BRANCH  24  31
ATOM     25  O   UNL     1       6.368   0.705  77.067  0.00  0.00    +0.000 OA
ATOM     26  N   UNL     1       8.997   1.658  76.275  0.00  0.00    +0.000 N 
ATOM     27  N   UNL     1       9.396   4.451  77.018  0.00  0.00    +0.000 N 
ATOM     28  N   UNL     1       7.198   4.537  77.867  0.00  0.00    +0.000 NA
ATOM     29  N   UNL     1       5.839   2.670  77.994  0.00  0.00    +0.000 N 
ATOM     30  N   UNL     1       5.106   4.697  78.801  0.00  0.00    +0.000 N 
ATOM     31  C   UNL     1      10.171   2.266  75.843  0.00  0.00    +0.000 C 
ATOM     32  C   UNL     1      10.244   3.615  76.227  0.00  0.00    +0.000 C 
ATOM     33  C   UNL     1       8.029   2.449  76.954  0.00  0.00    +0.000 A 
ATOM     34  C   UNL     1       8.190   3.778  77.283  0.00  0.00    +0.000 A 
ATOM     35  C   UNL     1       6.705   1.855  77.332  0.00  0.00    +0.000 A 
ATOM     36  C   UNL     1       6.087   3.980  78.205  0.00  0.00    +0.000 A 
ATOM     37  H   UNL     1       9.221   5.426  76.792  0.00  0.00    +0.000 HD
ATOM     38  H   UNL     1       4.935   2.278  78.203  0.00  0.00    +0.000 HD
ATOM     39  H   UNL     1       5.433   5.607  79.116  0.00  0.00    +0.000 HD
ATOM     40  H   UNL     1       4.551   4.222  79.500  0.00  0.00    +0.000 HD
BRANCH  26  42
ATOM     41  O   UNL     1       8.707  -0.792  75.739  0.00  0.00    +0.000 OA
ATOM     42  C   UNL     1       8.805   0.350  75.999  0.00  0.00    +0.000 C 
ENDBRANCH  26  42
ENDBRANCH  24  31
ENDBRANCH   1  24
TORSDOF 10
ENDMDL
MODEL 2
REMARK VINA RESULT:      -4.7     15.160     20.228
REMARK  Name = 135403648_CalciumFolinate.pdbqt.pdb
REMARK  10 active torsions:
REMARK  status: ('A' for Active; 'I' for Inactive)
REMARK    1  A    between atoms: N_1  and  C_3
REMARK    2  A    between atoms: N_1  and  C_24
REMARK    3  A    between atoms: C_6  and  C_11
REMARK    4  A    between atoms: CA_13  and  C_15
REMARK    5  A    between atoms: CA_13  and  CB_18
REMARK    6  A    between atoms: C_15  and  O_16
REMARK    7  A    between atoms: CG_19  and  CD_21
REMARK    8  A    between atoms: CD_21  and  OE1_22
REMARK    9  A    between atoms: C_24  and  C_32
REMARK   10  A    between atoms: N_27  and  C_37
REMARK                            x       y       z     vdW  Elec       q    Type
REMARK                         _______ _______ _______ _____ _____    ______ ____
ROOT
ATOM      1  N   UNL     1      15.848  13.252  59.265  0.00  0.00    +0.000 N 
ATOM      2  H   UNL     1      16.069  14.237  59.124  0.00  0.00    +0.000 HD
ENDROOT
BRANCH   1   3
ATOM      3  C   UNL     1      14.486  13.051  59.575  0.00  0.00    +0.000 A 
ATOM      4  C   UNL     1      14.098  12.966  60.915  0.00  0.00    +0.000 A 
ATOM      5  C   UNL     1      13.535  12.755  58.592  0.00  0.00    +0.000 A 
ATOM      6  C   UNL     1      11.835  12.418  60.274  0.00  0.00    +0.000 A 
ATOM      7  C   UNL     1      12.781  12.668  61.264  0.00  0.00    +0.000 A 
ATOM      8  C   UNL     1      12.217  12.457  58.933  0.00  0.00    +0.000 A 
BRANCH   6  11
ATOM      9  O   UNL     1      10.133  11.811  61.753  0.00  0.00    +0.000 OA
ATOM     10  N   UNL     1       9.528  12.158  59.544  0.00  0.00    +0.000 N 
ATOM     11  C   ACE A   0      10.421  12.101  60.597  0.00  0.00    +0.000 C 
ATOM     12  H   UNL     1       9.865  12.405  58.616  0.00  0.00    +0.000 HD
ATOM     13  CA  UNL     1       8.168  11.906  59.588  0.00  0.00    +0.000 C 
BRANCH  13  15
ATOM     14  OXT UNL     1       7.043  11.087  57.645  0.00  0.00    +0.000 OA
ATOM     15  C   UNL     1       7.445  12.037  58.300  0.00  0.00    +0.000 C 
BRANCH  15  16
ATOM     16  O   UNL     1       7.261  13.304  57.899  0.00  0.00    +0.000 OA
ATOM     17  H   UNL     1       8.138  13.730  58.000  0.00  0.00    +0.000 HD
ENDBRANCH  15  16
ENDBRANCH  13  15
BRANCH  13  18
ATOM     18  CB  UNL     1       7.503  11.544  60.789  0.00  0.00    +0.000 C 
ATOM     19  CG  UNL     1       6.796  11.151  62.091  0.00  0.00    +0.000 C 
BRANCH  19  21
ATOM     20  OE2 UNL     1       5.124  11.295  63.718  0.00  0.00    +0.000 OA
ATOM     21  CD  UNL     1       6.152  10.781  63.314  0.00  0.00    +0.000 C 
BRANCH  21  22
ATOM     22  OE1 UNL     1       6.794   9.821  64.003  0.00  0.00    +0.000 OA
ATOM     23  HE1 UNL     1       6.458   9.933  64.915  0.00  0.00    +0.000 HD
ENDBRANCH  21  22
ENDBRANCH  19  21
ENDBRANCH  13  18
ENDBRANCH   6  11
ENDBRANCH   1   3
BRANCH   1  24
ATOM     24  C   UNL     1      16.505  12.316  58.362  0.00  0.00    +0.000 C 
BRANCH  24  31
ATOM     25  O   UNL     1      16.139  10.959  53.292  0.00  0.00    +0.000 OA
ATOM     26  N   UNL     1      16.798  11.396  56.089  0.00  0.00    +0.000 N 
ATOM     27  N   UNL     1      18.907   9.594  56.990  0.00  0.00    +0.000 N 
ATOM     28  N   UNL     1      18.945   8.578  54.863  0.00  0.00    +0.000 NA
ATOM     29  N   UNL     1      17.696   9.368  53.084  0.00  0.00    +0.000 N 
ATOM     30  N   UNL     1      19.122   7.584  52.800  0.00  0.00    +0.000 N 
ATOM     31  C   UNL     1      17.118  11.424  57.442  0.00  0.00    +0.000 C 
ATOM     32  C   UNL     1      18.120  10.496  57.771  0.00  0.00    +0.000 C 
ATOM     33  C   UNL     1      17.434  10.434  55.257  0.00  0.00    +0.000 A 
ATOM     34  C   UNL     1      18.409   9.554  55.675  0.00  0.00    +0.000 A 
ATOM     35  C   UNL     1      17.029  10.299  53.819  0.00  0.00    +0.000 A 
ATOM     36  C   UNL     1      18.593   8.517  53.625  0.00  0.00    +0.000 A 
ATOM     37  H   UNL     1      19.152   8.661  57.310  0.00  0.00    +0.000 HD
ATOM     38  H   UNL     1      17.386   9.251  52.132  0.00  0.00    +0.000 HD
ATOM     39  H   UNL     1      19.930   7.123  53.210  0.00  0.00    +0.000 HD
ATOM     40  H   UNL     1      19.278   7.858  51.839  0.00  0.00    +0.000 HD
BRANCH  26  42
ATOM     41  O   UNL     1      15.030  13.013  55.290  0.00  0.00    +0.000 OA
ATOM     42  C   UNL     1      15.866  12.257  55.626  0.00  0.00    +0.000 C 
ENDBRANCH  26  42
ENDBRANCH  24  31
ENDBRANCH   1  24
TORSDOF 10
ENDMDL
MODEL 3
REMARK VINA RESULT:      -4.7     14.529     19.718
REMARK  Name = 135403648_CalciumFolinate.pdbqt.pdb
REMARK  10 active torsions:
REMARK  status: ('A' for Active; 'I' for Inactive)
REMARK    1  A    between atoms: N_1  and  C_3
REMARK    2  A    between atoms: N_1  and  C_24
REMARK    3  A    between atoms: C_6  and  C_11
REMARK    4  A    between atoms: CA_13  and  C_15
REMARK    5  A    between atoms: CA_13  and  CB_18
REMARK    6  A    between atoms: C_15  and  O_16
REMARK    7  A    between atoms: CG_19  and  CD_21
REMARK    8  A    between atoms: CD_21  and  OE1_22
REMARK    9  A    between atoms: C_24  and  C_32
REMARK   10  A    between atoms: N_27  and  C_37
REMARK                            x       y       z     vdW  Elec       q    Type
REMARK                         _______ _______ _______ _____ _____    ______ ____
ROOT
ATOM      1  N   UNL     1      16.110  13.550  59.491  0.00  0.00    +0.000 N 
ATOM      2  H   UNL     1      16.192  14.526  59.207  0.00  0.00    +0.000 HD
ENDROOT
BRANCH   1   3
ATOM      3  C   UNL     1      14.923  13.303  60.211  0.00  0.00    +0.000 A 
ATOM      4  C   UNL     1      13.900  12.567  59.607  0.00  0.00    +0.000 A 
ATOM      5  C   UNL     1      14.655  13.918  61.440  0.00  0.00    +0.000 A 
ATOM      6  C   UNL     1      12.436  12.967  61.485  0.00  0.00    +0.000 A 
ATOM      7  C   UNL     1      12.672  12.385  60.243  0.00  0.00    +0.000 A 
ATOM      8  C   UNL     1      13.432  13.741  62.082  0.00  0.00    +0.000 A 
BRANCH   6  11
ATOM      9  O   UNL     1      10.342  11.976  61.779  0.00  0.00    +0.000 OA
ATOM     10  N   UNL     1      10.956  13.603  63.310  0.00  0.00    +0.000 N 
ATOM     11  C   ACE A   0      11.147  12.799  62.202  0.00  0.00    +0.000 C 
ATOM     12  H   UNL     1      11.683  14.261  63.581  0.00  0.00    +0.000 HD
ATOM     13  CA  UNL     1       9.847  13.634  64.137  0.00  0.00    +0.000 C 
BRANCH  13  15
ATOM     14  OXT UNL     1       9.341  15.686  65.253  0.00  0.00    +0.000 OA
ATOM     15  C   UNL     1       9.907  14.603  65.259  0.00  0.00    +0.000 C 
BRANCH  15  16
ATOM     16  O   UNL     1      10.643  14.192  66.303  0.00  0.00    +0.000 OA
ATOM     17  H   UNL     1      11.479  13.867  65.909  0.00  0.00    +0.000 HD
ENDBRANCH  15  16
ENDBRANCH  13  15
BRANCH  13  18
ATOM     18  CB  UNL     1       8.722  12.794  63.929  0.00  0.00    +0.000 C 
ATOM     19  CG  UNL     1       7.502  11.890  63.715  0.00  0.00    +0.000 C 
BRANCH  19  21
ATOM     20  OE2 UNL     1       5.283  11.462  63.120  0.00  0.00    +0.000 OA
ATOM     21  CD  UNL     1       6.356  11.054  63.530  0.00  0.00    +0.000 C 
BRANCH  21  22
ATOM     22  OE1 UNL     1       6.554   9.768  63.870  0.00  0.00    +0.000 OA
ATOM     23  HE1 UNL     1       6.560   9.792  64.849  0.00  0.00    +0.000 HD
ENDBRANCH  21  22
ENDBRANCH  19  21
ENDBRANCH  13  18
ENDBRANCH   6  11
ENDBRANCH   1   3
BRANCH   1  24
ATOM     24  C   UNL     1      16.552  12.563  58.513  0.00  0.00    +0.000 C 
BRANCH  24  31
ATOM     25  O   UNL     1      16.135  11.431  53.392  0.00  0.00    +0.000 OA
ATOM     26  N   UNL     1      16.759  11.667  56.222  0.00  0.00    +0.000 N 
ATOM     27  N   UNL     1      18.477   9.491  57.128  0.00  0.00    +0.000 N 
ATOM     28  N   UNL     1      18.410   8.542  54.971  0.00  0.00    +0.000 NA
ATOM     29  N   UNL     1      17.389   9.592  53.181  0.00  0.00    +0.000 N 
ATOM     30  N   UNL     1      18.482   7.588  52.883  0.00  0.00    +0.000 N 
ATOM     31  C   UNL     1      17.029  11.600  57.584  0.00  0.00    +0.000 C 
ATOM     32  C   UNL     1      17.836  10.500  57.913  0.00  0.00    +0.000 C 
ATOM     33  C   UNL     1      17.242  10.629  55.378  0.00  0.00    +0.000 A 
ATOM     34  C   UNL     1      18.028   9.577  55.798  0.00  0.00    +0.000 A 
ATOM     35  C   UNL     1      16.873  10.608  53.925  0.00  0.00    +0.000 A 
ATOM     36  C   UNL     1      18.099   8.579  53.721  0.00  0.00    +0.000 A 
ATOM     37  H   UNL     1      18.539   8.522  57.424  0.00  0.00    +0.000 HD
ATOM     38  H   UNL     1      17.098   9.558  52.217  0.00  0.00    +0.000 HD
ATOM     39  H   UNL     1      19.179   6.979  53.302  0.00  0.00    +0.000 HD
ATOM     40  H   UNL     1      18.720   7.855  51.937  0.00  0.00    +0.000 HD
BRANCH  26  42
ATOM     41  O   UNL     1      15.367  13.616  55.421  0.00  0.00    +0.000 OA
ATOM     42  C   UNL     1      16.013  12.694  55.758  0.00  0.00    +0.000 C 
ENDBRANCH  26  42
ENDBRANCH  24  31
ENDBRANCH   1  24
TORSDOF 10
ENDMDL
MODEL 4
REMARK VINA RESULT:      -4.6     14.767     16.950
REMARK  Name = 135403648_CalciumFolinate.pdbqt.pdb
REMARK  10 active torsions:
REMARK  status: ('A' for Active; 'I' for Inactive)
REMARK    1  A    between atoms: N_1  and  C_3
REMARK    2  A    between atoms: N_1  and  C_24
REMARK    3  A    between atoms: C_6  and  C_11
REMARK    4  A    between atoms: CA_13  and  C_15
REMARK    5  A    between atoms: CA_13  and  CB_18
REMARK    6  A    between atoms: C_15  and  O_16
REMARK    7  A    between atoms: CG_19  and  CD_21
REMARK    8  A    between atoms: CD_21  and  OE1_22
REMARK    9  A    between atoms: C_24  and  C_32
REMARK   10  A    between atoms: N_27  and  C_37
REMARK                            x       y       z     vdW  Elec       q    Type
REMARK                         _______ _______ _______ _____ _____    ______ ____
ROOT
ATOM      1  N   UNL     1       5.831   7.715  57.349  0.00  0.00    +0.000 N 
ATOM      2  H   UNL     1       4.863   7.961  57.144  0.00  0.00    +0.000 HD
ENDROOT
BRANCH   1   3
ATOM      3  C   UNL     1       6.410   8.581  58.300  0.00  0.00    +0.000 A 
ATOM      4  C   UNL     1       6.818   8.064  59.534  0.00  0.00    +0.000 A 
ATOM      5  C   UNL     1       6.428   9.970  58.130  0.00  0.00    +0.000 A 
ATOM      6  C   UNL     1       7.354  10.276  60.340  0.00  0.00    +0.000 A 
ATOM      7  C   UNL     1       7.301   8.899  60.540  0.00  0.00    +0.000 A 
ATOM      8  C   UNL     1       6.910  10.812  59.130  0.00  0.00    +0.000 A 
BRANCH   6  11
ATOM      9  O   UNL     1       7.090  11.602  62.243  0.00  0.00    +0.000 OA
ATOM     10  N   UNL     1       9.198  11.553  61.284  0.00  0.00    +0.000 N 
ATOM     11  C   ACE A   0       7.864  11.205  61.380  0.00  0.00    +0.000 C 
ATOM     12  H   UNL     1       9.760  11.174  60.526  0.00  0.00    +0.000 HD
ATOM     13  CA  UNL     1       9.902  12.398  62.124  0.00  0.00    +0.000 C 
BRANCH  13  15
ATOM     14  OXT UNL     1      11.882  12.086  60.821  0.00  0.00    +0.000 OA
ATOM     15  C   UNL     1      11.331  12.601  61.784  0.00  0.00    +0.000 C 
BRANCH  15  16
ATOM     16  O   UNL     1      11.988  13.410  62.628  0.00  0.00    +0.000 OA
ATOM     17  H   UNL     1      12.925  13.363  62.343  0.00  0.00    +0.000 HD
ENDBRANCH  15  16
ENDBRANCH  13  15
BRANCH  13  18
ATOM     18  CB  UNL     1       9.298  13.031  63.242  0.00  0.00    +0.000 C 
ATOM     19  CG  UNL     1       8.653  13.709  64.456  0.00  0.00    +0.000 C 
BRANCH  19  21
ATOM     20  OE2 UNL     1       7.821  15.525  65.670  0.00  0.00    +0.000 OA
ATOM     21  CD  UNL     1       8.064  14.333  65.602  0.00  0.00    +0.000 C 
BRANCH  21  22
ATOM     22  OE1 UNL     1       7.816  13.489  66.619  0.00  0.00    +0.000 OA
ATOM     23  HE1 UNL     1       8.036  12.612  66.244  0.00  0.00    +0.000 HD
ENDBRANCH  21  22
ENDBRANCH  19  21
ENDBRANCH  13  18
ENDBRANCH   6  11
ENDBRANCH   1   3
BRANCH   1  24
ATOM     24  C   UNL     1       6.122   6.289  57.434  0.00  0.00    +0.000 C 
BRANCH  24  31
ATOM     25  O   UNL     1      10.334   3.249  58.267  0.00  0.00    +0.000 OA
ATOM     26  N   UNL     1       7.723   4.454  57.839  0.00  0.00    +0.000 N 
ATOM     27  N   UNL     1       5.671   2.435  57.368  0.00  0.00    +0.000 N 
ATOM     28  N   UNL     1       7.308   0.743  57.503  0.00  0.00    +0.000 NA
ATOM     29  N   UNL     1       9.505   1.180  58.078  0.00  0.00    +0.000 N 
ATOM     30  N   UNL     1       8.810  -0.983  57.706  0.00  0.00    +0.000 N 
ATOM     31  C   UNL     1       6.454   4.910  57.501  0.00  0.00    +0.000 C 
ATOM     32  C   UNL     1       5.556   3.856  57.265  0.00  0.00    +0.000 C 
ATOM     33  C   UNL     1       7.969   3.053  57.835  0.00  0.00    +0.000 A 
ATOM     34  C   UNL     1       7.018   2.089  57.583  0.00  0.00    +0.000 A 
ATOM     35  C   UNL     1       9.354   2.533  58.082  0.00  0.00    +0.000 A 
ATOM     36  C   UNL     1       8.504   0.335  57.754  0.00  0.00    +0.000 A 
ATOM     37  H   UNL     1       5.238   1.800  56.705  0.00  0.00    +0.000 HD
ATOM     38  H   UNL     1      10.446   0.840  58.198  0.00  0.00    +0.000 HD
ATOM     39  H   UNL     1       7.980  -1.568  57.666  0.00  0.00    +0.000 HD
ATOM     40  H   UNL     1       9.490  -1.319  58.376  0.00  0.00    +0.000 HD
BRANCH  26  42
ATOM     41  O   UNL     1       9.467   6.198  58.383  0.00  0.00    +0.000 OA
ATOM     42  C   UNL     1       8.684   5.362  58.121  0.00  0.00    +0.000 C 
ENDBRANCH  26  42
ENDBRANCH  24  31
ENDBRANCH   1  24
TORSDOF 10
ENDMDL
MODEL 5
REMARK VINA RESULT:      -4.6     11.532     17.573
REMARK  Name = 135403648_CalciumFolinate.pdbqt.pdb
REMARK  10 active torsions:
REMARK  status: ('A' for Active; 'I' for Inactive)
REMARK    1  A    between atoms: N_1  and  C_3
REMARK    2  A    between atoms: N_1  and  C_24
REMARK    3  A    between atoms: C_6  and  C_11
REMARK    4  A    between atoms: CA_13  and  C_15
REMARK    5  A    between atoms: CA_13  and  CB_18
REMARK    6  A    between atoms: C_15  and  O_16
REMARK    7  A    between atoms: CG_19  and  CD_21
REMARK    8  A    between atoms: CD_21  and  OE1_22
REMARK    9  A    between atoms: C_24  and  C_32
REMARK   10  A    between atoms: N_27  and  C_37
REMARK                            x       y       z     vdW  Elec       q    Type
REMARK                         _______ _______ _______ _____ _____    ______ ____
ROOT
ATOM      1  N   UNL     1      20.170  -1.414  57.993  0.00  0.00    +0.000 N 
ATOM      2  H   UNL     1      20.313  -2.422  57.933  0.00  0.00    +0.000 HD
ENDROOT
BRANCH   1   3
ATOM      3  C   UNL     1      19.552  -0.895  56.836  0.00  0.00    +0.000 A 
ATOM      4  C   UNL     1      20.173   0.148  56.142  0.00  0.00    +0.000 A 
ATOM      5  C   UNL     1      18.254  -1.258  56.458  0.00  0.00    +0.000 A 
ATOM      6  C   UNL     1      18.276   0.357  54.662  0.00  0.00    +0.000 A 
ATOM      7  C   UNL     1      19.550   0.759  55.054  0.00  0.00    +0.000 A 
ATOM      8  C   UNL     1      17.626  -0.653  55.372  0.00  0.00    +0.000 A 
BRANCH   6  11
ATOM      9  O   UNL     1      16.548   0.449  53.095  0.00  0.00    +0.000 OA
ATOM     10  N   UNL     1      18.153   2.115  52.984  0.00  0.00    +0.000 N 
ATOM     11  C   ACE A   0      17.575   0.975  53.509  0.00  0.00    +0.000 C 
ATOM     12  H   UNL     1      19.012   2.474  53.395  0.00  0.00    +0.000 HD
ATOM     13  CA  UNL     1      17.696   2.867  51.916  0.00  0.00    +0.000 C 
BRANCH  13  15
ATOM     14  OXT UNL     1      19.661   3.977  51.130  0.00  0.00    +0.000 OA
ATOM     15  C   UNL     1      18.519   4.048  51.560  0.00  0.00    +0.000 C 
BRANCH  15  16
ATOM     16  O   UNL     1      17.903   5.225  51.746  0.00  0.00    +0.000 OA
ATOM     17  H   UNL     1      18.247   5.557  52.601  0.00  0.00    +0.000 HD
ENDBRANCH  15  16
ENDBRANCH  13  15
BRANCH  13  18
ATOM     18  CB  UNL     1      16.513   2.533  51.205  0.00  0.00    +0.000 C 
ATOM     19  CG  UNL     1      15.242   2.164  50.432  0.00  0.00    +0.000 C 
BRANCH  19  21
ATOM     20  OE2 UNL     1      13.986   1.849  48.486  0.00  0.00    +0.000 OA
ATOM     21  CD  UNL     1      14.065   1.805  49.701  0.00  0.00    +0.000 C 
BRANCH  21  22
ATOM     22  OE1 UNL     1      13.032   1.430  50.476  0.00  0.00    +0.000 OA
ATOM     23  HE1 UNL     1      12.249   1.678  49.944  0.00  0.00    +0.000 HD
ENDBRANCH  21  22
ENDBRANCH  19  21
ENDBRANCH  13  18
ENDBRANCH   6  11
ENDBRANCH   1   3
BRANCH   1  24
ATOM     24  C   UNL     1      19.757  -0.906  59.295  0.00  0.00    +0.000 C 
BRANCH  24  31
ATOM     25  O   UNL     1      15.285  -0.534  62.041  0.00  0.00    +0.000 OA
ATOM     26  N   UNL     1      17.997  -0.582  60.996  0.00  0.00    +0.000 N 
ATOM     27  N   UNL     1      19.882   0.663  62.842  0.00  0.00    +0.000 N 
ATOM     28  N   UNL     1      18.105   1.181  64.303  0.00  0.00    +0.000 NA
ATOM     29  N   UNL     1      15.940   0.456  63.935  0.00  0.00    +0.000 N 
ATOM     30  N   UNL     1      16.458   1.651  65.834  0.00  0.00    +0.000 N 
ATOM     31  C   UNL     1      19.308  -0.434  60.557  0.00  0.00    +0.000 C 
ATOM     32  C   UNL     1      20.119   0.204  61.509  0.00  0.00    +0.000 C 
ATOM     33  C   UNL     1      17.634  -0.033  62.257  0.00  0.00    +0.000 A 
ATOM     34  C   UNL     1      18.506   0.586  63.126  0.00  0.00    +0.000 A 
ATOM     35  C   UNL     1      16.204  -0.073  62.710  0.00  0.00    +0.000 A 
ATOM     36  C   UNL     1      16.873   1.096  64.671  0.00  0.00    +0.000 A 
ATOM     37  H   UNL     1      20.275   1.527  63.204  0.00  0.00    +0.000 HD
ATOM     38  H   UNL     1      14.971   0.469  64.212  0.00  0.00    +0.000 HD
ATOM     39  H   UNL     1      17.237   1.925  66.427  0.00  0.00    +0.000 HD
ATOM     40  H   UNL     1      15.737   1.158  66.344  0.00  0.00    +0.000 HD
BRANCH  26  42
ATOM     41  O   UNL     1      16.384  -1.738  59.434  0.00  0.00    +0.000 OA
ATOM     42  C   UNL     1      17.110  -1.205  60.190  0.00  0.00    +0.000 C 
ENDBRANCH  26  42
ENDBRANCH  24  31
ENDBRANCH   1  24
TORSDOF 10
ENDMDL
MODEL 6
REMARK VINA RESULT:      -4.6      1.807      2.262
REMARK  Name = 135403648_CalciumFolinate.pdbqt.pdb
REMARK  10 active torsions:
REMARK  status: ('A' for Active; 'I' for Inactive)
REMARK    1  A    between atoms: N_1  and  C_3
REMARK    2  A    between atoms: N_1  and  C_24
REMARK    3  A    between atoms: C_6  and  C_11
REMARK    4  A    between atoms: CA_13  and  C_15
REMARK    5  A    between atoms: CA_13  and  CB_18
REMARK    6  A    between atoms: C_15  and  O_16
REMARK    7  A    between atoms: CG_19  and  CD_21
REMARK    8  A    between atoms: CD_21  and  OE1_22
REMARK    9  A    between atoms: C_24  and  C_32
REMARK   10  A    between atoms: N_27  and  C_37
REMARK                            x       y       z     vdW  Elec       q    Type
REMARK                         _______ _______ _______ _____ _____    ______ ____
ROOT
ATOM      1  N   UNL     1      12.168   0.789  74.672  0.00  0.00    +0.000 N 
ATOM      2  H   UNL     1      12.090  -0.224  74.590  0.00  0.00    +0.000 HD
ENDROOT
BRANCH   1   3
ATOM      3  C   UNL     1      12.754   1.371  73.529  0.00  0.00    +0.000 A 
ATOM      4  C   UNL     1      12.790   0.643  72.336  0.00  0.00    +0.000 A 
ATOM      5  C   UNL     1      13.461   2.578  73.586  0.00  0.00    +0.000 A 
ATOM      6  C   UNL     1      14.110   2.361  71.270  0.00  0.00    +0.000 A 
ATOM      7  C   UNL     1      13.448   1.138  71.210  0.00  0.00    +0.000 A 
ATOM      8  C   UNL     1      14.120   3.080  72.466  0.00  0.00    +0.000 A 
BRANCH   6  11
ATOM      9  O   UNL     1      15.428   2.171  69.352  0.00  0.00    +0.000 OA
ATOM     10  N   UNL     1      14.737   4.302  69.942  0.00  0.00    +0.000 N 
ATOM     11  C   ACE A   0      14.820   2.931  70.097  0.00  0.00    +0.000 C 
ATOM     12  H   UNL     1      14.212   4.850  70.618  0.00  0.00    +0.000 HD
ATOM     13  CA  UNL     1      15.310   5.064  68.939  0.00  0.00    +0.000 C 
BRANCH  13  15
ATOM     14  OXT UNL     1      15.018   7.260  68.042  0.00  0.00    +0.000 OA
ATOM     15  C   UNL     1      15.062   6.524  69.017  0.00  0.00    +0.000 C 
BRANCH  15  16
ATOM     16  O   UNL     1      14.883   6.986  70.264  0.00  0.00    +0.000 OA
ATOM     17  H   UNL     1      13.916   6.936  70.414  0.00  0.00    +0.000 HD
ENDBRANCH  15  16
ENDBRANCH  13  15
BRANCH  13  18
ATOM     18  CB  UNL     1      16.085   4.488  67.898  0.00  0.00    +0.000 C 
ATOM     19  CG  UNL     1      16.912   3.865  66.767  0.00  0.00    +0.000 C 
BRANCH  19  21
ATOM     20  OE2 UNL     1      18.704   3.759  65.271  0.00  0.00    +0.000 OA
ATOM     21  CD  UNL     1      17.668   3.283  65.701  0.00  0.00    +0.000 C 
BRANCH  21  22
ATOM     22  OE1 UNL     1      17.125   2.163  65.190  0.00  0.00    +0.000 OA
ATOM     23  HE1 UNL     1      16.889   2.423  64.277  0.00  0.00    +0.000 HD
ENDBRANCH  21  22
ENDBRANCH  19  21
ENDBRANCH  13  18
ENDBRANCH   6  11
ENDBRANCH   1   3
BRANCH   1  24
ATOM     24  C   UNL     1      11.042   1.466  75.303  0.00  0.00    +0.000 C 
BRANCH  24  31
ATOM     25  O   UNL     1      10.032   6.181  77.406  0.00  0.00    +0.000 OA
ATOM     26  N   UNL     1      10.049   3.486  76.317  0.00  0.00    +0.000 N 
ATOM     27  N   UNL     1       7.534   2.102  76.835  0.00  0.00    +0.000 N 
ATOM     28  N   UNL     1       6.748   3.979  78.026  0.00  0.00    +0.000 NA
ATOM     29  N   UNL     1       7.933   5.962  78.146  0.00  0.00    +0.000 N 
ATOM     30  N   UNL     1       5.858   5.788  79.127  0.00  0.00    +0.000 N 
ATOM     31  C   UNL     1       9.977   2.146  75.951  0.00  0.00    +0.000 C 
ATOM     32  C   UNL     1       8.737   1.572  76.275  0.00  0.00    +0.000 C 
ATOM     33  C   UNL     1       8.946   4.066  77.005  0.00  0.00    +0.000 A 
ATOM     34  C   UNL     1       7.764   3.415  77.285  0.00  0.00    +0.000 A 
ATOM     35  C   UNL     1       9.035   5.473  77.514  0.00  0.00    +0.000 A 
ATOM     36  C   UNL     1       6.851   5.202  78.418  0.00  0.00    +0.000 A 
ATOM     37  H   UNL     1       6.966   1.588  77.502  0.00  0.00    +0.000 HD
ATOM     38  H   UNL     1       8.017   6.891  78.527  0.00  0.00    +0.000 HD
ATOM     39  H   UNL     1       5.002   5.239  79.113  0.00  0.00    +0.000 HD
ATOM     40  H   UNL     1       5.691   6.771  78.956  0.00  0.00    +0.000 HD
BRANCH  26  42
ATOM     41  O   UNL     1      12.149   4.758  75.730  0.00  0.00    +0.000 OA
ATOM     42  C   UNL     1      11.178   4.174  76.040  0.00  0.00    +0.000 C 
ENDBRANCH  26  42
ENDBRANCH  24  31
ENDBRANCH   1  24
TORSDOF 10
ENDMDL
MODEL 7
REMARK VINA RESULT:      -4.5     12.025     13.109
REMARK  Name = 135403648_CalciumFolinate.pdbqt.pdb
REMARK  10 active torsions:
REMARK  status: ('A' for Active; 'I' for Inactive)
REMARK    1  A    between atoms: N_1  and  C_3
REMARK    2  A    between atoms: N_1  and  C_24
REMARK    3  A    between atoms: C_6  and  C_11
REMARK    4  A    between atoms: CA_13  and  C_15
REMARK    5  A    between atoms: CA_13  and  CB_18
REMARK    6  A    between atoms: C_15  and  O_16
REMARK    7  A    between atoms: CG_19  and  CD_21
REMARK    8  A    between atoms: CD_21  and  OE1_22
REMARK    9  A    between atoms: C_24  and  C_32
REMARK   10  A    between atoms: N_27  and  C_37
REMARK                            x       y       z     vdW  Elec       q    Type
REMARK                         _______ _______ _______ _____ _____    ______ ____
ROOT
ATOM      1  N   UNL     1       4.342   4.015  61.675  0.00  0.00    +0.000 N 
ATOM      2  H   UNL     1       3.879   3.675  60.832  0.00  0.00    +0.000 HD
ENDROOT
BRANCH   1   3
ATOM      3  C   UNL     1       5.077   5.196  61.438  0.00  0.00    +0.000 A 
ATOM      4  C   UNL     1       5.121   6.181  62.430  0.00  0.00    +0.000 A 
ATOM      5  C   UNL     1       5.617   5.499  60.183  0.00  0.00    +0.000 A 
ATOM      6  C   UNL     1       6.321   7.675  60.960  0.00  0.00    +0.000 A 
ATOM      7  C   UNL     1       5.750   7.404  62.201  0.00  0.00    +0.000 A 
ATOM      8  C   UNL     1       6.248   6.719  59.947  0.00  0.00    +0.000 A 
BRANCH   6  11
ATOM      9  O   UNL     1       7.589   9.088  59.601  0.00  0.00    +0.000 OA
ATOM     10  N   UNL     1       6.925   9.928  61.655  0.00  0.00    +0.000 N 
ATOM     11  C   ACE A   0       7.005   8.961  60.671  0.00  0.00    +0.000 C 
ATOM     12  H   UNL     1       6.420   9.726  62.514  0.00  0.00    +0.000 HD
ATOM     13  CA  UNL     1       7.477  11.196  61.625  0.00  0.00    +0.000 C 
BRANCH  13  15
ATOM     14  OXT UNL     1       7.056  13.240  62.791  0.00  0.00    +0.000 OA
ATOM     15  C   UNL     1       7.240  12.032  62.827  0.00  0.00    +0.000 C 
BRANCH  15  16
ATOM     16  O   UNL     1       7.240  11.348  63.981  0.00  0.00    +0.000 OA
ATOM     17  H   UNL     1       6.466  10.750  63.920  0.00  0.00    +0.000 HD
ENDBRANCH  15  16
ENDBRANCH  13  15
BRANCH  13  18
ATOM     18  CB  UNL     1       8.223  11.672  60.515  0.00  0.00    +0.000 C 
ATOM     19  CG  UNL     1       9.032  12.196  59.322  0.00  0.00    +0.000 C 
BRANCH  19  21
ATOM     20  OE2 UNL     1      11.009  12.739  58.201  0.00  0.00    +0.000 OA
ATOM     21  CD  UNL     1       9.792  12.699  58.219  0.00  0.00    +0.000 C 
BRANCH  21  22
ATOM     22  OE1 UNL     1       9.043  13.152  57.198  0.00  0.00    +0.000 OA
ATOM     23  HE1 UNL     1       8.130  13.099  57.546  0.00  0.00    +0.000 HD
ENDBRANCH  21  22
ENDBRANCH  19  21
ENDBRANCH  13  18
ENDBRANCH   6  11
ENDBRANCH   1   3
BRANCH   1  24
ATOM     24  C   UNL     1       3.577   3.904  62.910  0.00  0.00    +0.000 C 
BRANCH  24  31
ATOM     25  O   UNL     1       3.154   0.892  67.203  0.00  0.00    +0.000 OA
ATOM     26  N   UNL     1       3.050   2.899  65.103  0.00  0.00    +0.000 N 
ATOM     27  N   UNL     1       0.977   4.886  65.619  0.00  0.00    +0.000 N 
ATOM     28  N   UNL     1       0.348   3.721  67.569  0.00  0.00    +0.000 NA
ATOM     29  N   UNL     1       1.521   1.890  68.358  0.00  0.00    +0.000 N 
ATOM     30  N   UNL     1      -0.281   2.710  69.534  0.00  0.00    +0.000 N 
ATOM     31  C   UNL     1       2.819   3.845  64.110  0.00  0.00    +0.000 C 
ATOM     32  C   UNL     1       1.782   4.729  64.448  0.00  0.00    +0.000 C 
ATOM     33  C   UNL     1       2.206   2.893  66.249  0.00  0.00    +0.000 A 
ATOM     34  C   UNL     1       1.202   3.805  66.491  0.00  0.00    +0.000 A 
ATOM     35  C   UNL     1       2.353   1.818  67.284  0.00  0.00    +0.000 A 
ATOM     36  C   UNL     1       0.528   2.801  68.453  0.00  0.00    +0.000 A 
ATOM     37  H   UNL     1      -0.012   5.116  65.579  0.00  0.00    +0.000 HD
ATOM     38  H   UNL     1       1.593   1.138  69.025  0.00  0.00    +0.000 HD
ATOM     39  H   UNL     1      -0.860   3.537  69.649  0.00  0.00    +0.000 HD
ATOM     40  H   UNL     1       0.145   2.411  70.401  0.00  0.00    +0.000 HD
BRANCH  26  42
ATOM     41  O   UNL     1       4.950   1.270  64.771  0.00  0.00    +0.000 OA
ATOM     42  C   UNL     1       4.041   1.999  64.924  0.00  0.00    +0.000 C 
ENDBRANCH  26  42
ENDBRANCH  24  31
ENDBRANCH   1  24
TORSDOF 10
ENDMDL
MODEL 8
REMARK VINA RESULT:      -4.5     14.669     16.596
REMARK  Name = 135403648_CalciumFolinate.pdbqt.pdb
REMARK  10 active torsions:
REMARK  status: ('A' for Active; 'I' for Inactive)
REMARK    1  A    between atoms: N_1  and  C_3
REMARK    2  A    between atoms: N_1  and  C_24
REMARK    3  A    between atoms: C_6  and  C_11
REMARK    4  A    between atoms: CA_13  and  C_15
REMARK    5  A    between atoms: CA_13  and  CB_18
REMARK    6  A    between atoms: C_15  and  O_16
REMARK    7  A    between atoms: CG_19  and  CD_21
REMARK    8  A    between atoms: CD_21  and  OE1_22
REMARK    9  A    between atoms: C_24  and  C_32
REMARK   10  A    between atoms: N_27  and  C_37
REMARK                            x       y       z     vdW  Elec       q    Type
REMARK                         _______ _______ _______ _____ _____    ______ ____
ROOT
ATOM      1  N   UNL     1       5.429   7.430  57.855  0.00  0.00    +0.000 N 
ATOM      2  H   UNL     1       4.422   7.589  57.874  0.00  0.00    +0.000 HD
ENDROOT
BRANCH   1   3
ATOM      3  C   UNL     1       6.129   8.357  58.654  0.00  0.00    +0.000 A 
ATOM      4  C   UNL     1       6.342   9.651  58.169  0.00  0.00    +0.000 A 
ATOM      5  C   UNL     1       6.776   7.982  59.838  0.00  0.00    +0.000 A 
ATOM      6  C   UNL     1       7.717  10.194  60.078  0.00  0.00    +0.000 A 
ATOM      7  C   UNL     1       7.115  10.568  58.880  0.00  0.00    +0.000 A 
ATOM      8  C   UNL     1       7.549   8.893  60.554  0.00  0.00    +0.000 A 
BRANCH   6  11
ATOM      9  O   UNL     1       9.656  11.439  60.454  0.00  0.00    +0.000 OA
ATOM     10  N   UNL     1       7.981  11.603  62.045  0.00  0.00    +0.000 N 
ATOM     11  C   ACE A   0       8.544  11.136  60.872  0.00  0.00    +0.000 C 
ATOM     12  H   UNL     1       7.051  11.289  62.312  0.00  0.00    +0.000 HD
ATOM     13  CA  UNL     1       8.548  12.480  62.952  0.00  0.00    +0.000 C 
BRANCH  13  15
ATOM     14  OXT UNL     1       6.524  13.067  64.080  0.00  0.00    +0.000 OA
ATOM     15  C   UNL     1       7.718  12.810  64.136  0.00  0.00    +0.000 C 
BRANCH  15  16
ATOM     16  O   UNL     1       8.389  12.805  65.298  0.00  0.00    +0.000 OA
ATOM     17  H   UNL     1       9.177  12.248  65.130  0.00  0.00    +0.000 HD
ENDBRANCH  15  16
ENDBRANCH  13  15
BRANCH  13  18
ATOM     18  CB  UNL     1       9.842  13.032  62.765  0.00  0.00    +0.000 C 
ATOM     19  CG  UNL     1      11.239  13.635  62.572  0.00  0.00    +0.000 C 
BRANCH  19  21
ATOM     20  OE2 UNL     1      12.784  15.388  62.570  0.00  0.00    +0.000 OA
ATOM     21  CD  UNL     1      12.542  14.205  62.410  0.00  0.00    +0.000 C 
BRANCH  21  22
ATOM     22  OE1 UNL     1      13.486  13.320  62.042  0.00  0.00    +0.000 OA
ATOM     23  HE1 UNL     1      13.239  13.097  61.121  0.00  0.00    +0.000 HD
ENDBRANCH  21  22
ENDBRANCH  19  21
ENDBRANCH  13  18
ENDBRANCH   6  11
ENDBRANCH   1   3
BRANCH   1  24
ATOM     24  C   UNL     1       5.854   6.035  57.867  0.00  0.00    +0.000 C 
BRANCH  24  31
ATOM     25  O   UNL     1      10.314   3.267  58.209  0.00  0.00    +0.000 OA
ATOM     26  N   UNL     1       7.602   4.309  58.105  0.00  0.00    +0.000 N 
ATOM     27  N   UNL     1       5.631   2.162  57.979  0.00  0.00    +0.000 N 
ATOM     28  N   UNL     1       7.370   0.570  57.940  0.00  0.00    +0.000 NA
ATOM     29  N   UNL     1       9.594   1.150  58.197  0.00  0.00    +0.000 N 
ATOM     30  N   UNL     1       8.987  -1.061  57.988  0.00  0.00    +0.000 N 
ATOM     31  C   UNL     1       6.274   4.680  57.930  0.00  0.00    +0.000 C 
ATOM     32  C   UNL     1       5.418   3.570  57.850  0.00  0.00    +0.000 C 
ATOM     33  C   UNL     1       7.929   2.924  58.109  0.00  0.00    +0.000 A 
ATOM     34  C   UNL     1       7.013   1.899  58.018  0.00  0.00    +0.000 A 
ATOM     35  C   UNL     1       9.364   2.491  58.181  0.00  0.00    +0.000 A 
ATOM     36  C   UNL     1       8.611   0.239  58.038  0.00  0.00    +0.000 A 
ATOM     37  H   UNL     1       5.152   1.479  57.400  0.00  0.00    +0.000 HD
ATOM     38  H   UNL     1      10.561   0.868  58.197  0.00  0.00    +0.000 HD
ATOM     39  H   UNL     1       8.195  -1.692  58.079  0.00  0.00    +0.000 HD
ATOM     40  H   UNL     1       9.769  -1.333  58.568  0.00  0.00    +0.000 HD
BRANCH  26  42
ATOM     41  O   UNL     1       9.395   6.070  58.349  0.00  0.00    +0.000 OA
ATOM     42  C   UNL     1       8.536   5.278  58.226  0.00  0.00    +0.000 C 
ENDBRANCH  26  42
ENDBRANCH  24  31
ENDBRANCH   1  24
TORSDOF 10
ENDMDL
MODEL 9
REMARK VINA RESULT:      -4.4      2.446     11.500
REMARK  Name = 135403648_CalciumFolinate.pdbqt.pdb
REMARK  10 active torsions:
REMARK  status: ('A' for Active; 'I' for Inactive)
REMARK    1  A    between atoms: N_1  and  C_3
REMARK    2  A    between atoms: N_1  and  C_24
REMARK    3  A    between atoms: C_6  and  C_11
REMARK    4  A    between atoms: CA_13  and  C_15
REMARK    5  A    between atoms: CA_13  and  CB_18
REMARK    6  A    between atoms: C_15  and  O_16
REMARK    7  A    between atoms: CG_19  and  CD_21
REMARK    8  A    between atoms: CD_21  and  OE1_22
REMARK    9  A    between atoms: C_24  and  C_32
REMARK   10  A    between atoms: N_27  and  C_37
REMARK                            x       y       z     vdW  Elec       q    Type
REMARK                         _______ _______ _______ _____ _____    ______ ____
ROOT
ATOM      1  N   UNL     1      14.443   2.393  73.810  0.00  0.00    +0.000 N 
ATOM      2  H   UNL     1      15.223   2.079  74.386  0.00  0.00    +0.000 HD
ENDROOT
BRANCH   1   3
ATOM      3  C   UNL     1      13.216   2.351  74.506  0.00  0.00    +0.000 A 
ATOM      4  C   UNL     1      12.453   1.180  74.472  0.00  0.00    +0.000 A 
ATOM      5  C   UNL     1      12.647   3.492  75.082  0.00  0.00    +0.000 A 
ATOM      6  C   UNL     1      10.654   2.259  75.667  0.00  0.00    +0.000 A 
ATOM      7  C   UNL     1      11.190   1.127  75.060  0.00  0.00    +0.000 A 
ATOM      8  C   UNL     1      11.386   3.447  75.672  0.00  0.00    +0.000 A 
BRANCH   6  11
ATOM      9  O   UNL     1       8.884   3.296  76.783  0.00  0.00    +0.000 OA
ATOM     10  N   UNL     1       8.655   1.036  76.324  0.00  0.00    +0.000 N 
ATOM     11  C   ACE A   0       9.316   2.250  76.310  0.00  0.00    +0.000 C 
ATOM     12  H   UNL     1       9.100   0.221  75.910  0.00  0.00    +0.000 HD
ATOM     13  CA  UNL     1       7.408   0.772  76.862  0.00  0.00    +0.000 C 
BRANCH  13  15
ATOM     14  OXT UNL     1       5.760  -0.950  76.685  0.00  0.00    +0.000 OA
ATOM     15  C   UNL     1       6.938  -0.630  76.742  0.00  0.00    +0.000 C 
BRANCH  15  16
ATOM     16  O   UNL     1       7.924  -1.539  76.697  0.00  0.00    +0.000 OA
ATOM     17  H   UNL     1       8.531  -1.288  77.424  0.00  0.00    +0.000 HD
ENDBRANCH  15  16
ENDBRANCH  13  15
BRANCH  13  18
ATOM     18  CB  UNL     1       6.624   1.776  77.489  0.00  0.00    +0.000 C 
ATOM     19  CG  UNL     1       5.782   2.856  78.177  0.00  0.00    +0.000 C 
BRANCH  19  21
ATOM     20  OE2 UNL     1       5.398   4.501  79.792  0.00  0.00    +0.000 OA
ATOM     21  CD  UNL     1       5.002   3.859  78.835  0.00  0.00    +0.000 C 
BRANCH  21  22
ATOM     22  OE1 UNL     1       3.771   4.024  78.319  0.00  0.00    +0.000 OA
ATOM     23  HE1 UNL     1       3.592   4.975  78.459  0.00  0.00    +0.000 HD
ENDBRANCH  21  22
ENDBRANCH  19  21
ENDBRANCH  13  18
ENDBRANCH   6  11
ENDBRANCH   1   3
BRANCH   1  24
ATOM     24  C   UNL     1      14.712   3.528  72.936  0.00  0.00    +0.000 C 
BRANCH  24  31
ATOM     25  O   UNL     1      15.755   4.645  67.902  0.00  0.00    +0.000 OA
ATOM     26  N   UNL     1      15.115   4.575  70.737  0.00  0.00    +0.000 N 
ATOM     27  N   UNL     1      15.129   7.247  71.908  0.00  0.00    +0.000 N 
ATOM     28  N   UNL     1      15.778   8.152  69.829  0.00  0.00    +0.000 NA
ATOM     29  N   UNL     1      15.924   6.874  67.907  0.00  0.00    +0.000 N 
ATOM     30  N   UNL     1      16.321   9.140  67.828  0.00  0.00    +0.000 N 
ATOM     31  C   UNL     1      14.943   4.663  72.114  0.00  0.00    +0.000 C 
ATOM     32  C   UNL     1      14.999   5.989  72.573  0.00  0.00    +0.000 C 
ATOM     33  C   UNL     1      15.387   5.765  70.006  0.00  0.00    +0.000 A 
ATOM     34  C   UNL     1      15.429   7.030  70.550  0.00  0.00    +0.000 A 
ATOM     35  C   UNL     1      15.691   5.692  68.539  0.00  0.00    +0.000 A 
ATOM     36  C   UNL     1      16.000   8.051  68.564  0.00  0.00    +0.000 A 
ATOM     37  H   UNL     1      15.685   8.011  72.280  0.00  0.00    +0.000 HD
ATOM     38  H   UNL     1      16.174   6.813  66.933  0.00  0.00    +0.000 HD
ATOM     39  H   UNL     1      16.156  10.007  68.334  0.00  0.00    +0.000 HD
ATOM     40  H   UNL     1      15.971   9.172  66.880  0.00  0.00    +0.000 HD
BRANCH  26  42
ATOM     41  O   UNL     1      14.983   2.332  69.584  0.00  0.00    +0.000 OA
ATOM     42  C   UNL     1      15.057   3.358  70.153  0.00  0.00    +0.000 C 
ENDBRANCH  26  42
ENDBRANCH  24  31
ENDBRANCH   1  24
TORSDOF 10
ENDMDL
