MODEL 1
REMARK VINA RESULT:      -5.4      0.000      0.000
REMARK  Name = 14132199_RiccardinD.pdbqt.pdb
REMARK  3 active torsions:
REMARK  status: ('A' for Active; 'I' for Inactive)
REMARK    1  A    between atoms: C_11  and  O_30
REMARK    2  A    between atoms: C_16  and  O_32
REMARK    3  A    between atoms: C_28  and  O_34
REMARK                            x       y       z     vdW  Elec       q    Type
REMARK                         _______ _______ _______ _____ _____    ______ ____
ROOT
ATOM      1  O   UNL     1       2.288   1.814  66.101  0.00  0.00    +0.000 OA
ATOM      2  C   UNL     1       5.703   3.835  60.390  0.00  0.00    +0.000 C 
ATOM      3  C   UNL     1       6.253   4.770  59.452  0.00  0.00    +0.000 A 
ATOM      4  C   UNL     1       6.065   6.169  59.599  0.00  0.00    +0.000 A 
ATOM      5  C   UNL     1       5.073   2.972  61.496  0.00  0.00    +0.000 C 
ATOM      6  C   UNL     1       2.808   7.196  64.072  0.00  0.00    +0.000 C 
ATOM      7  C   UNL     1       5.185   6.708  60.660  0.00  0.00    +0.000 A 
ATOM      8  C   UNL     1       3.512   7.326  62.839  0.00  0.00    +0.000 A 
ATOM      9  C   UNL     1       2.166   6.548  65.302  0.00  0.00    +0.000 C 
ATOM     10  C   UNL     1       4.430   2.364  62.615  0.00  0.00    +0.000 A 
ATOM     11  C   UNL     1       5.648   7.479  61.737  0.00  0.00    +0.000 A 
ATOM     12  C   UNL     1       1.781   5.488  66.167  0.00  0.00    +0.000 A 
ATOM     13  C   UNL     1       3.826   6.361  60.653  0.00  0.00    +0.000 A 
ATOM     14  C   UNL     1       4.830   7.770  62.831  0.00  0.00    +0.000 A 
ATOM     15  C   UNL     1       2.998   6.656  61.732  0.00  0.00    +0.000 A 
ATOM     16  C   UNL     1       6.736   7.002  58.685  0.00  0.00    +0.000 A 
ATOM     17  C   UNL     1       7.028   4.254  58.410  0.00  0.00    +0.000 A 
ATOM     18  C   UNL     1       7.493   6.481  57.636  0.00  0.00    +0.000 A 
ATOM     19  C   UNL     1       7.631   5.106  57.493  0.00  0.00    +0.000 A 
ATOM     20  C   UNL     1       2.191   4.221  65.768  0.00  0.00    +0.000 A 
ATOM     21  C   UNL     1       3.071   2.054  62.544  0.00  0.00    +0.000 A 
ATOM     22  C   UNL     1       5.106   2.284  63.833  0.00  0.00    +0.000 A 
ATOM     23  C   UNL     1       1.883   3.079  66.499  0.00  0.00    +0.000 A 
ATOM     24  C   UNL     1       1.042   5.639  67.330  0.00  0.00    +0.000 A 
ATOM     25  C   UNL     1       3.028   1.783  64.934  0.00  0.00    +0.000 A 
ATOM     26  C   UNL     1       2.365   1.750  63.706  0.00  0.00    +0.000 A 
ATOM     27  C   UNL     1       4.408   1.981  65.000  0.00  0.00    +0.000 A 
ATOM     28  C   UNL     1       1.142   3.231  67.665  0.00  0.00    +0.000 A 
ATOM     29  C   UNL     1       0.724   4.500  68.081  0.00  0.00    +0.000 A 
ENDROOT
BRANCH  11  30
ATOM     30  O   UNL     1       6.937   7.942  61.726  0.00  0.00    +0.000 OA
ATOM     31  H   UNL     1       7.500   7.283  62.174  0.00  0.00    +0.000 HD
ENDBRANCH  11  30
BRANCH  16  32
ATOM     32  O   UNL     1       6.704   8.368  58.781  0.00  0.00    +0.000 OA
ATOM     33  H   UNL     1       7.478   8.630  59.316  0.00  0.00    +0.000 HD
ENDBRANCH  16  32
BRANCH  28  34
ATOM     34  O   UNL     1       0.801   2.156  68.436  0.00  0.00    +0.000 OA
ATOM     35  H   UNL     1      -0.152   2.000  68.310  0.00  0.00    +0.000 HD
ENDBRANCH  28  34
TORSDOF 3
ENDMDL
MODEL 2
REMARK VINA RESULT:      -5.3     12.846     17.139
REMARK  Name = 14132199_RiccardinD.pdbqt.pdb
REMARK  3 active torsions:
REMARK  status: ('A' for Active; 'I' for Inactive)
REMARK    1  A    between atoms: C_11  and  O_30
REMARK    2  A    between atoms: C_16  and  O_32
REMARK    3  A    between atoms: C_28  and  O_34
REMARK                            x       y       z     vdW  Elec       q    Type
REMARK                         _______ _______ _______ _____ _____    ______ ____
ROOT
ATOM      1  O   UNL     1      19.125   2.099  52.504  0.00  0.00    +0.000 OA
ATOM      2  C   UNL     1      13.046  -1.040  53.748  0.00  0.00    +0.000 C 
ATOM      3  C   UNL     1      12.094  -1.808  54.499  0.00  0.00    +0.000 A 
ATOM      4  C   UNL     1      12.422  -2.371  55.759  0.00  0.00    +0.000 A 
ATOM      5  C   UNL     1      14.168  -0.223  53.087  0.00  0.00    +0.000 C 
ATOM      6  C   UNL     1      17.807  -1.292  56.989  0.00  0.00    +0.000 C 
ATOM      7  C   UNL     1      13.803  -2.294  56.288  0.00  0.00    +0.000 A 
ATOM      8  C   UNL     1      16.501  -1.863  56.968  0.00  0.00    +0.000 A 
ATOM      9  C   UNL     1      19.029  -0.479  56.555  0.00  0.00    +0.000 C 
ATOM     10  C   UNL     1      15.325   0.492  52.657  0.00  0.00    +0.000 A 
ATOM     11  C   UNL     1      14.157  -1.567  57.433  0.00  0.00    +0.000 A 
ATOM     12  C   UNL     1      19.798   0.376  55.719  0.00  0.00    +0.000 A 
ATOM     13  C   UNL     1      14.839  -2.900  55.564  0.00  0.00    +0.000 A 
ATOM     14  C   UNL     1      15.493  -1.330  57.764  0.00  0.00    +0.000 A 
ATOM     15  C   UNL     1      16.174  -2.683  55.890  0.00  0.00    +0.000 A 
ATOM     16  C   UNL     1      11.385  -3.013  56.460  0.00  0.00    +0.000 A 
ATOM     17  C   UNL     1      10.810  -1.937  53.965  0.00  0.00    +0.000 A 
ATOM     18  C   UNL     1      10.109  -3.156  55.914  0.00  0.00    +0.000 A 
ATOM     19  C   UNL     1       9.824  -2.626  54.661  0.00  0.00    +0.000 A 
ATOM     20  C   UNL     1      19.149   0.823  54.573  0.00  0.00    +0.000 A 
ATOM     21  C   UNL     1      16.325  -0.176  51.949  0.00  0.00    +0.000 A 
ATOM     22  C   UNL     1      15.545   1.786  53.131  0.00  0.00    +0.000 A 
ATOM     23  C   UNL     1      19.769   1.655  53.648  0.00  0.00    +0.000 A 
ATOM     24  C   UNL     1      21.106   0.763  55.965  0.00  0.00    +0.000 A 
ATOM     25  C   UNL     1      17.821   1.661  52.366  0.00  0.00    +0.000 A 
ATOM     26  C   UNL     1      17.577   0.413  51.790  0.00  0.00    +0.000 A 
ATOM     27  C   UNL     1      16.795   2.382  52.977  0.00  0.00    +0.000 A 
ATOM     28  C   UNL     1      21.081   2.042  53.896  0.00  0.00    +0.000 A 
ATOM     29  C   UNL     1      21.748   1.602  55.045  0.00  0.00    +0.000 A 
ENDROOT
BRANCH  11  30
ATOM     30  O   UNL     1      13.171  -1.059  58.238  0.00  0.00    +0.000 OA
ATOM     31  H   UNL     1      13.551  -0.326  58.759  0.00  0.00    +0.000 HD
ENDBRANCH  11  30
BRANCH  16  32
ATOM     32  O   UNL     1      11.556  -3.516  57.722  0.00  0.00    +0.000 OA
ATOM     33  H   UNL     1      11.368  -2.787  58.343  0.00  0.00    +0.000 HD
ENDBRANCH  16  32
BRANCH  28  34
ATOM     34  O   UNL     1      21.756   2.858  53.033  0.00  0.00    +0.000 OA
ATOM     35  H   UNL     1      22.187   2.287  52.371  0.00  0.00    +0.000 HD
ENDBRANCH  28  34
TORSDOF 3
ENDMDL
MODEL 3
REMARK VINA RESULT:      -5.2     11.355     14.563
REMARK  Name = 14132199_RiccardinD.pdbqt.pdb
REMARK  3 active torsions:
REMARK  status: ('A' for Active; 'I' for Inactive)
REMARK    1  A    between atoms: C_11  and  O_30
REMARK    2  A    between atoms: C_16  and  O_32
REMARK    3  A    between atoms: C_28  and  O_34
REMARK                            x       y       z     vdW  Elec       q    Type
REMARK                         _______ _______ _______ _____ _____    ______ ____
ROOT
ATOM      1  O   UNL     1      13.589  -2.137  64.720  0.00  0.00    +0.000 OA
ATOM      2  C   UNL     1      12.031  -0.404  71.272  0.00  0.00    +0.000 C 
ATOM      3  C   UNL     1      12.140   0.338  72.495  0.00  0.00    +0.000 A 
ATOM      4  C   UNL     1      13.116   1.354  72.663  0.00  0.00    +0.000 A 
ATOM      5  C   UNL     1      12.029  -1.085  69.893  0.00  0.00    +0.000 C 
ATOM      6  C   UNL     1      16.345   1.679  68.066  0.00  0.00    +0.000 C 
ATOM      7  C   UNL     1      14.143   1.598  71.626  0.00  0.00    +0.000 A 
ATOM      8  C   UNL     1      15.856   1.798  69.399  0.00  0.00    +0.000 A 
ATOM      9  C   UNL     1      16.480   1.194  66.620  0.00  0.00    +0.000 C 
ATOM     10  C   UNL     1      12.188  -1.573  68.563  0.00  0.00    +0.000 A 
ATOM     11  C   UNL     1      14.223   2.779  70.872  0.00  0.00    +0.000 A 
ATOM     12  C   UNL     1      16.165   0.425  65.467  0.00  0.00    +0.000 A 
ATOM     13  C   UNL     1      15.036   0.566  71.302  0.00  0.00    +0.000 A 
ATOM     14  C   UNL     1      15.053   2.877  69.754  0.00  0.00    +0.000 A 
ATOM     15  C   UNL     1      15.877   0.657  70.197  0.00  0.00    +0.000 A 
ATOM     16  C   UNL     1      13.066   2.094  73.859  0.00  0.00    +0.000 A 
ATOM     17  C   UNL     1      11.211   0.059  73.500  0.00  0.00    +0.000 A 
ATOM     18  C   UNL     1      12.150   1.798  74.868  0.00  0.00    +0.000 A 
ATOM     19  C   UNL     1      11.227   0.774  74.691  0.00  0.00    +0.000 A 
ATOM     20  C   UNL     1      15.087  -0.441  65.610  0.00  0.00    +0.000 A 
ATOM     21  C   UNL     1      13.103  -2.596  68.308  0.00  0.00    +0.000 A 
ATOM     22  C   UNL     1      11.593  -0.884  67.505  0.00  0.00    +0.000 A 
ATOM     23  C   UNL     1      14.661  -1.270  64.578  0.00  0.00    +0.000 A 
ATOM     24  C   UNL     1      16.849   0.481  64.262  0.00  0.00    +0.000 A 
ATOM     25  C   UNL     1      12.974  -2.101  65.958  0.00  0.00    +0.000 A 
ATOM     26  C   UNL     1      13.492  -2.872  67.000  0.00  0.00    +0.000 A 
ATOM     27  C   UNL     1      11.977  -1.154  66.193  0.00  0.00    +0.000 A 
ATOM     28  C   UNL     1      15.348  -1.214  63.371  0.00  0.00    +0.000 A 
ATOM     29  C   UNL     1      16.434  -0.346  63.210  0.00  0.00    +0.000 A 
ENDROOT
BRANCH  11  30
ATOM     30  O   UNL     1      13.455   3.856  71.229  0.00  0.00    +0.000 OA
ATOM     31  H   UNL     1      13.936   4.668  70.979  0.00  0.00    +0.000 HD
ENDBRANCH  11  30
BRANCH  16  32
ATOM     32  O   UNL     1      13.898   3.156  74.097  0.00  0.00    +0.000 OA
ATOM     33  H   UNL     1      14.749   2.950  73.666  0.00  0.00    +0.000 HD
ENDBRANCH  16  32
BRANCH  28  34
ATOM     34  O   UNL     1      14.988  -1.997  62.311  0.00  0.00    +0.000 OA
ATOM     35  H   UNL     1      14.281  -1.529  61.831  0.00  0.00    +0.000 HD
ENDBRANCH  28  34
TORSDOF 3
ENDMDL
MODEL 4
REMARK VINA RESULT:      -5.2      5.958      8.512
REMARK  Name = 14132199_RiccardinD.pdbqt.pdb
REMARK  3 active torsions:
REMARK  status: ('A' for Active; 'I' for Inactive)
REMARK    1  A    between atoms: C_11  and  O_30
REMARK    2  A    between atoms: C_16  and  O_32
REMARK    3  A    between atoms: C_28  and  O_34
REMARK                            x       y       z     vdW  Elec       q    Type
REMARK                         _______ _______ _______ _____ _____    ______ ____
ROOT
ATOM      1  O   UNL     1       9.499  -2.581  70.539  0.00  0.00    +0.000 OA
ATOM      2  C   UNL     1       7.242  -0.080  64.456  0.00  0.00    +0.000 C 
ATOM      3  C   UNL     1       6.297   0.496  63.543  0.00  0.00    +0.000 A 
ATOM      4  C   UNL     1       4.957   0.763  63.929  0.00  0.00    +0.000 A 
ATOM      5  C   UNL     1       8.132  -0.673  65.559  0.00  0.00    +0.000 C 
ATOM      6  C   UNL     1       4.113  -0.976  69.214  0.00  0.00    +0.000 C 
ATOM      7  C   UNL     1       4.451   0.336  65.253  0.00  0.00    +0.000 A 
ATOM      8  C   UNL     1       3.907  -0.557  67.867  0.00  0.00    +0.000 A 
ATOM      9  C   UNL     1       4.823  -1.490  70.469  0.00  0.00    +0.000 C 
ATOM     10  C   UNL     1       8.783  -1.201  66.714  0.00  0.00    +0.000 A 
ATOM     11  C   UNL     1       4.060   1.230  66.260  0.00  0.00    +0.000 A 
ATOM     12  C   UNL     1       5.911  -1.966  71.249  0.00  0.00    +0.000 A 
ATOM     13  C   UNL     1       4.441  -1.031  65.565  0.00  0.00    +0.000 A 
ATOM     14  C   UNL     1       3.811   0.797  67.564  0.00  0.00    +0.000 A 
ATOM     15  C   UNL     1       4.183  -1.476  66.858  0.00  0.00    +0.000 A 
ATOM     16  C   UNL     1       4.145   1.427  62.992  0.00  0.00    +0.000 A 
ATOM     17  C   UNL     1       6.759   0.836  62.269  0.00  0.00    +0.000 A 
ATOM     18  C   UNL     1       4.606   1.747  61.716  0.00  0.00    +0.000 A 
ATOM     19  C   UNL     1       5.912   1.442  61.351  0.00  0.00    +0.000 A 
ATOM     20  C   UNL     1       7.129  -2.043  70.582  0.00  0.00    +0.000 A 
ATOM     21  C   UNL     1       8.725  -2.571  66.972  0.00  0.00    +0.000 A 
ATOM     22  C   UNL     1       9.279  -0.325  67.681  0.00  0.00    +0.000 A 
ATOM     23  C   UNL     1       8.286  -2.501  71.203  0.00  0.00    +0.000 A 
ATOM     24  C   UNL     1       5.829  -2.351  72.579  0.00  0.00    +0.000 A 
ATOM     25  C   UNL     1       9.469  -2.160  69.222  0.00  0.00    +0.000 A 
ATOM     26  C   UNL     1       9.080  -3.059  68.227  0.00  0.00    +0.000 A 
ATOM     27  C   UNL     1       9.636  -0.805  68.939  0.00  0.00    +0.000 A 
ATOM     28  C   UNL     1       8.201  -2.887  72.536  0.00  0.00    +0.000 A 
ATOM     29  C   UNL     1       6.984  -2.814  73.222  0.00  0.00    +0.000 A 
ENDROOT
BRANCH  11  30
ATOM     30  O   UNL     1       3.938   2.563  65.966  0.00  0.00    +0.000 OA
ATOM     31  H   UNL     1       4.398   3.071  66.661  0.00  0.00    +0.000 HD
ENDBRANCH  11  30
BRANCH  16  32
ATOM     32  O   UNL     1       2.864   1.818  63.282  0.00  0.00    +0.000 OA
ATOM     33  H   UNL     1       2.778   2.744  62.985  0.00  0.00    +0.000 HD
ENDBRANCH  16  32
BRANCH  28  34
ATOM     34  O   UNL     1       9.295  -3.347  73.213  0.00  0.00    +0.000 OA
ATOM     35  H   UNL     1       8.988  -4.044  73.820  0.00  0.00    +0.000 HD
ENDBRANCH  28  34
TORSDOF 3
ENDMDL
MODEL 5
REMARK VINA RESULT:      -5.1     13.761     16.523
REMARK  Name = 14132199_RiccardinD.pdbqt.pdb
REMARK  3 active torsions:
REMARK  status: ('A' for Active; 'I' for Inactive)
REMARK    1  A    between atoms: C_11  and  O_30
REMARK    2  A    between atoms: C_16  and  O_32
REMARK    3  A    between atoms: C_28  and  O_34
REMARK                            x       y       z     vdW  Elec       q    Type
REMARK                         _______ _______ _______ _____ _____    ______ ____
ROOT
ATOM      1  O   UNL     1      15.141  12.467  61.082  0.00  0.00    +0.000 OA
ATOM      2  C   UNL     1      20.298   8.742  58.274  0.00  0.00    +0.000 C 
ATOM      3  C   UNL     1      21.139   8.249  57.221  0.00  0.00    +0.000 A 
ATOM      4  C   UNL     1      20.921   8.608  55.866  0.00  0.00    +0.000 A 
ATOM      5  C   UNL     1      19.327   9.377  59.282  0.00  0.00    +0.000 C 
ATOM      6  C   UNL     1      16.350  11.867  55.467  0.00  0.00    +0.000 C 
ATOM      7  C   UNL     1      19.737   9.406  55.474  0.00  0.00    +0.000 A 
ATOM      8  C   UNL     1      17.430  10.989  55.158  0.00  0.00    +0.000 A 
ATOM      9  C   UNL     1      15.326  12.656  56.287  0.00  0.00    +0.000 C 
ATOM     10  C   UNL     1      18.339  10.072  60.042  0.00  0.00    +0.000 A 
ATOM     11  C   UNL     1      19.814  10.708  54.959  0.00  0.00    +0.000 A 
ATOM     12  C   UNL     1      14.665  13.110  57.460  0.00  0.00    +0.000 A 
ATOM     13  C   UNL     1      18.459   8.881  55.711  0.00  0.00    +0.000 A 
ATOM     14  C   UNL     1      18.676  11.507  54.821  0.00  0.00    +0.000 A 
ATOM     15  C   UNL     1      17.317   9.662  55.565  0.00  0.00    +0.000 A 
ATOM     16  C   UNL     1      21.867   8.157  54.927  0.00  0.00    +0.000 A 
ATOM     17  C   UNL     1      22.217   7.439  57.586  0.00  0.00    +0.000 A 
ATOM     18  C   UNL     1      22.931   7.333  55.294  0.00  0.00    +0.000 A 
ATOM     19  C   UNL     1      23.100   6.966  56.624  0.00  0.00    +0.000 A 
ATOM     20  C   UNL     1      15.178  12.619  58.656  0.00  0.00    +0.000 A 
ATOM     21  C   UNL     1      17.082   9.496  60.230  0.00  0.00    +0.000 A 
ATOM     22  C   UNL     1      18.563  11.401  60.402  0.00  0.00    +0.000 A 
ATOM     23  C   UNL     1      14.634  12.958  59.890  0.00  0.00    +0.000 A 
ATOM     24  C   UNL     1      13.577  13.970  57.479  0.00  0.00    +0.000 A 
ATOM     25  C   UNL     1      16.232  11.629  60.946  0.00  0.00    +0.000 A 
ATOM     26  C   UNL     1      16.023  10.272  60.696  0.00  0.00    +0.000 A 
ATOM     27  C   UNL     1      17.510  12.185  60.868  0.00  0.00    +0.000 A 
ATOM     28  C   UNL     1      13.543  13.819  59.906  0.00  0.00    +0.000 A 
ATOM     29  C   UNL     1      13.016  14.324  58.712  0.00  0.00    +0.000 A 
ENDROOT
BRANCH  11  30
ATOM     30  O   UNL     1      21.033  11.218  54.599  0.00  0.00    +0.000 OA
ATOM     31  H   UNL     1      21.673  10.481  54.566  0.00  0.00    +0.000 HD
ENDBRANCH  11  30
BRANCH  16  32
ATOM     32  O   UNL     1      21.813   8.514  53.605  0.00  0.00    +0.000 OA
ATOM     33  H   UNL     1      22.719   8.426  53.253  0.00  0.00    +0.000 HD
ENDBRANCH  16  32
BRANCH  28  34
ATOM     34  O   UNL     1      12.955  14.198  61.080  0.00  0.00    +0.000 OA
ATOM     35  H   UNL     1      13.113  13.487  61.727  0.00  0.00    +0.000 HD
ENDBRANCH  28  34
TORSDOF 3
ENDMDL
MODEL 6
REMARK VINA RESULT:      -5.0     11.912     15.692
REMARK  Name = 14132199_RiccardinD.pdbqt.pdb
REMARK  3 active torsions:
REMARK  status: ('A' for Active; 'I' for Inactive)
REMARK    1  A    between atoms: C_11  and  O_30
REMARK    2  A    between atoms: C_16  and  O_32
REMARK    3  A    between atoms: C_28  and  O_34
REMARK                            x       y       z     vdW  Elec       q    Type
REMARK                         _______ _______ _______ _____ _____    ______ ____
ROOT
ATOM      1  O   UNL     1      11.074  -1.776  69.959  0.00  0.00    +0.000 OA
ATOM      2  C   UNL     1       7.057  -1.412  75.623  0.00  0.00    +0.000 C 
ATOM      3  C   UNL     1       6.624  -0.909  76.896  0.00  0.00    +0.000 A 
ATOM      4  C   UNL     1       7.337   0.114  77.573  0.00  0.00    +0.000 A 
ATOM      5  C   UNL     1       7.637  -1.818  74.259  0.00  0.00    +0.000 C 
ATOM      6  C   UNL     1      11.936   1.497  74.638  0.00  0.00    +0.000 C 
ATOM      7  C   UNL     1       8.629   0.611  77.049  0.00  0.00    +0.000 A 
ATOM      8  C   UNL     1      10.988   1.332  75.691  0.00  0.00    +0.000 A 
ATOM      9  C   UNL     1      12.642   1.304  73.294  0.00  0.00    +0.000 C 
ATOM     10  C   UNL     1       8.325  -2.035  73.028  0.00  0.00    +0.000 A 
ATOM     11  C   UNL     1       8.825   1.916  76.572  0.00  0.00    +0.000 A 
ATOM     12  C   UNL     1      12.862   0.750  72.004  0.00  0.00    +0.000 A 
ATOM     13  C   UNL     1       9.701  -0.285  76.932  0.00  0.00    +0.000 A 
ATOM     14  C   UNL     1       9.982   2.274  75.878  0.00  0.00    +0.000 A 
ATOM     15  C   UNL     1      10.865   0.064  76.253  0.00  0.00    +0.000 A 
ATOM     16  C   UNL     1       6.768   0.609  78.760  0.00  0.00    +0.000 A 
ATOM     17  C   UNL     1       5.439  -1.428  77.421  0.00  0.00    +0.000 A 
ATOM     18  C   UNL     1       5.594   0.074  79.291  0.00  0.00    +0.000 A 
ATOM     19  C   UNL     1       4.935  -0.953  78.626  0.00  0.00    +0.000 A 
ATOM     20  C   UNL     1      11.924  -0.192  71.596  0.00  0.00    +0.000 A 
ATOM     21  C   UNL     1       9.391  -2.934  72.984  0.00  0.00    +0.000 A 
ATOM     22  C   UNL     1       8.068  -1.196  71.943  0.00  0.00    +0.000 A 
ATOM     23  C   UNL     1      12.007  -0.835  70.366  0.00  0.00    +0.000 A 
ATOM     24  C   UNL     1      13.922   1.073  71.169  0.00  0.00    +0.000 A 
ATOM     25  C   UNL     1      10.056  -2.011  70.864  0.00  0.00    +0.000 A 
ATOM     26  C   UNL     1      10.257  -2.934  71.893  0.00  0.00    +0.000 A 
ATOM     27  C   UNL     1       8.930  -1.188  70.848  0.00  0.00    +0.000 A 
ATOM     28  C   UNL     1      13.069  -0.509  69.531  0.00  0.00    +0.000 A 
ATOM     29  C   UNL     1      14.021   0.437  69.925  0.00  0.00    +0.000 A 
ENDROOT
BRANCH  11  30
ATOM     30  O   UNL     1       7.850   2.858  76.774  0.00  0.00    +0.000 OA
ATOM     31  H   UNL     1       7.007   2.393  76.935  0.00  0.00    +0.000 HD
ENDBRANCH  11  30
BRANCH  16  32
ATOM     32  O   UNL     1       7.316   1.656  79.453  0.00  0.00    +0.000 OA
ATOM     33  H   UNL     1       7.685   1.285  80.277  0.00  0.00    +0.000 HD
ENDBRANCH  16  32
BRANCH  28  34
ATOM     34  O   UNL     1      13.217  -1.099  68.307  0.00  0.00    +0.000 OA
ATOM     35  H   UNL     1      12.719  -1.936  68.326  0.00  0.00    +0.000 HD
ENDBRANCH  28  34
TORSDOF 3
ENDMDL
MODEL 7
REMARK VINA RESULT:      -5.0     14.630     17.269
REMARK  Name = 14132199_RiccardinD.pdbqt.pdb
REMARK  3 active torsions:
REMARK  status: ('A' for Active; 'I' for Inactive)
REMARK    1  A    between atoms: C_11  and  O_30
REMARK    2  A    between atoms: C_16  and  O_32
REMARK    3  A    between atoms: C_28  and  O_34
REMARK                            x       y       z     vdW  Elec       q    Type
REMARK                         _______ _______ _______ _____ _____    ______ ____
ROOT
ATOM      1  O   UNL     1      11.750  -1.989  52.309  0.00  0.00    +0.000 OA
ATOM      2  C   UNL     1      18.021   0.426  54.099  0.00  0.00    +0.000 C 
ATOM      3  C   UNL     1      19.201   1.233  53.976  0.00  0.00    +0.000 A 
ATOM      4  C   UNL     1      19.393   2.106  52.874  0.00  0.00    +0.000 A 
ATOM      5  C   UNL     1      16.692  -0.346  54.095  0.00  0.00    +0.000 C 
ATOM      6  C   UNL     1      15.089   1.621  49.282  0.00  0.00    +0.000 C 
ATOM      7  C   UNL     1      18.438   2.122  51.744  0.00  0.00    +0.000 A 
ATOM      8  C   UNL     1      16.364   1.907  49.851  0.00  0.00    +0.000 A 
ATOM      9  C   UNL     1      13.693   1.018  49.108  0.00  0.00    +0.000 C 
ATOM     10  C   UNL     1      15.412  -0.949  53.907  0.00  0.00    +0.000 A 
ATOM     11  C   UNL     1      17.624   3.220  51.429  0.00  0.00    +0.000 A 
ATOM     12  C   UNL     1      12.565   0.221  49.444  0.00  0.00    +0.000 A 
ATOM     13  C   UNL     1      18.258   0.951  50.994  0.00  0.00    +0.000 A 
ATOM     14  C   UNL     1      16.580   3.115  50.508  0.00  0.00    +0.000 A 
ATOM     15  C   UNL     1      17.229   0.837  50.065  0.00  0.00    +0.000 A 
ATOM     16  C   UNL     1      20.533   2.931  52.906  0.00  0.00    +0.000 A 
ATOM     17  C   UNL     1      20.135   1.166  55.012  0.00  0.00    +0.000 A 
ATOM     18  C   UNL     1      21.472   2.846  53.933  0.00  0.00    +0.000 A 
ATOM     19  C   UNL     1      21.278   1.956  54.983  0.00  0.00    +0.000 A 
ATOM     20  C   UNL     1      12.665  -0.468  50.648  0.00  0.00    +0.000 A 
ATOM     21  C   UNL     1      15.303  -2.109  53.140  0.00  0.00    +0.000 A 
ATOM     22  C   UNL     1      14.266  -0.260  54.307  0.00  0.00    +0.000 A 
ATOM     23  C   UNL     1      11.652  -1.300  51.111  0.00  0.00    +0.000 A 
ATOM     24  C   UNL     1      11.425   0.088  48.667  0.00  0.00    +0.000 A 
ATOM     25  C   UNL     1      12.925  -1.774  53.007  0.00  0.00    +0.000 A 
ATOM     26  C   UNL     1      14.053  -2.534  52.695  0.00  0.00    +0.000 A 
ATOM     27  C   UNL     1      13.012  -0.678  53.866  0.00  0.00    +0.000 A 
ATOM     28  C   UNL     1      10.509  -1.432  50.331  0.00  0.00    +0.000 A 
ATOM     29  C   UNL     1      10.392  -0.745  49.118  0.00  0.00    +0.000 A 
ENDROOT
BRANCH  11  30
ATOM     30  O   UNL     1      17.846   4.420  52.051  0.00  0.00    +0.000 OA
ATOM     31  H   UNL     1      17.407   5.119  51.528  0.00  0.00    +0.000 HD
ENDBRANCH  11  30
BRANCH  16  32
ATOM     32  O   UNL     1      20.779   3.876  51.946  0.00  0.00    +0.000 OA
ATOM     33  H   UNL     1      20.117   4.583  52.071  0.00  0.00    +0.000 HD
ENDBRANCH  16  32
BRANCH  28  34
ATOM     34  O   UNL     1       9.471  -2.231  50.720  0.00  0.00    +0.000 OA
ATOM     35  H   UNL     1       9.073  -1.824  51.511  0.00  0.00    +0.000 HD
ENDBRANCH  28  34
TORSDOF 3
ENDMDL
MODEL 8
REMARK VINA RESULT:      -4.9      2.478      9.290
REMARK  Name = 14132199_RiccardinD.pdbqt.pdb
REMARK  3 active torsions:
REMARK  status: ('A' for Active; 'I' for Inactive)
REMARK    1  A    between atoms: C_11  and  O_30
REMARK    2  A    between atoms: C_16  and  O_32
REMARK    3  A    between atoms: C_28  and  O_34
REMARK                            x       y       z     vdW  Elec       q    Type
REMARK                         _______ _______ _______ _____ _____    ______ ____
ROOT
ATOM      1  O   UNL     1       2.535   8.818  63.690  0.00  0.00    +0.000 OA
ATOM      2  C   UNL     1      -0.621   4.462  68.097  0.00  0.00    +0.000 C 
ATOM      3  C   UNL     1      -0.843   3.222  68.784  0.00  0.00    +0.000 A 
ATOM      4  C   UNL     1      -0.062   2.070  68.509  0.00  0.00    +0.000 A 
ATOM      5  C   UNL     1      -0.237   5.717  67.296  0.00  0.00    +0.000 C 
ATOM      6  C   UNL     1       3.589   3.182  64.373  0.00  0.00    +0.000 C 
ATOM      7  C   UNL     1       0.929   2.070  67.409  0.00  0.00    +0.000 A 
ATOM      8  C   UNL     1       2.749   2.505  65.305  0.00  0.00    +0.000 A 
ATOM      9  C   UNL     1       4.181   4.310  63.525  0.00  0.00    +0.000 C 
ATOM     10  C   UNL     1       0.280   6.756  66.467  0.00  0.00    +0.000 A 
ATOM     11  C   UNL     1       2.313   1.962  67.610  0.00  0.00    +0.000 A 
ATOM     12  C   UNL     1       4.311   5.632  63.020  0.00  0.00    +0.000 A 
ATOM     13  C   UNL     1       0.483   2.282  66.097  0.00  0.00    +0.000 A 
ATOM     14  C   UNL     1       3.222   2.199  66.577  0.00  0.00    +0.000 A 
ATOM     15  C   UNL     1       1.379   2.507  65.056  0.00  0.00    +0.000 A 
ATOM     16  C   UNL     1      -0.290   0.939  69.314  0.00  0.00    +0.000 A 
ATOM     17  C   UNL     1      -1.827   3.205  69.775  0.00  0.00    +0.000 A 
ATOM     18  C   UNL     1      -1.287   0.920  70.289  0.00  0.00    +0.000 A 
ATOM     19  C   UNL     1      -2.062   2.051  70.514  0.00  0.00    +0.000 A 
ATOM     20  C   UNL     1       3.426   6.560  63.557  0.00  0.00    +0.000 A 
ATOM     21  C   UNL     1      -0.201   6.904  65.165  0.00  0.00    +0.000 A 
ATOM     22  C   UNL     1       1.404   7.469  66.886  0.00  0.00    +0.000 A 
ATOM     23  C   UNL     1       3.418   7.892  63.158  0.00  0.00    +0.000 A 
ATOM     24  C   UNL     1       5.225   6.029  62.055  0.00  0.00    +0.000 A 
ATOM     25  C   UNL     1       1.678   8.316  64.652  0.00  0.00    +0.000 A 
ATOM     26  C   UNL     1       0.492   7.697  64.253  0.00  0.00    +0.000 A 
ATOM     27  C   UNL     1       2.104   8.264  65.980  0.00  0.00    +0.000 A 
ATOM     28  C   UNL     1       4.334   8.289  62.191  0.00  0.00    +0.000 A 
ATOM     29  C   UNL     1       5.232   7.367  61.641  0.00  0.00    +0.000 A 
ENDROOT
BRANCH  11  30
ATOM     30  O   UNL     1       2.788   1.636  68.854  0.00  0.00    +0.000 OA
ATOM     31  H   UNL     1       2.709   0.669  68.964  0.00  0.00    +0.000 HD
ENDBRANCH  11  30
BRANCH  16  32
ATOM     32  O   UNL     1       0.462  -0.201  69.203  0.00  0.00    +0.000 OA
ATOM     33  H   UNL     1       0.139  -0.818  69.887  0.00  0.00    +0.000 HD
ENDBRANCH  16  32
BRANCH  28  34
ATOM     34  O   UNL     1       4.386   9.580  61.749  0.00  0.00    +0.000 OA
ATOM     35  H   UNL     1       5.059   9.619  61.045  0.00  0.00    +0.000 HD
ENDBRANCH  28  34
TORSDOF 3
ENDMDL
MODEL 9
REMARK VINA RESULT:      -4.9      5.475     10.455
REMARK  Name = 14132199_RiccardinD.pdbqt.pdb
REMARK  3 active torsions:
REMARK  status: ('A' for Active; 'I' for Inactive)
REMARK    1  A    between atoms: C_11  and  O_30
REMARK    2  A    between atoms: C_16  and  O_32
REMARK    3  A    between atoms: C_28  and  O_34
REMARK                            x       y       z     vdW  Elec       q    Type
REMARK                         _______ _______ _______ _____ _____    ______ ____
ROOT
ATOM      1  O   UNL     1       2.729   1.984  64.189  0.00  0.00    +0.000 OA
ATOM      2  C   UNL     1       4.495  -1.376  70.016  0.00  0.00    +0.000 C 
ATOM      3  C   UNL     1       5.363  -2.088  70.909  0.00  0.00    +0.000 A 
ATOM      4  C   UNL     1       6.692  -2.424  70.543  0.00  0.00    +0.000 A 
ATOM      5  C   UNL     1       3.706  -0.589  68.957  0.00  0.00    +0.000 C 
ATOM      6  C   UNL     1       7.695  -0.763  65.260  0.00  0.00    +0.000 C 
ATOM      7  C   UNL     1       7.191  -2.162  69.174  0.00  0.00    +0.000 A 
ATOM      8  C   UNL     1       7.773  -1.429  66.518  0.00  0.00    +0.000 A 
ATOM      9  C   UNL     1       7.130   0.063  64.102  0.00  0.00    +0.000 C 
ATOM     10  C   UNL     1       3.161   0.137  67.857  0.00  0.00    +0.000 A 
ATOM     11  C   UNL     1       8.208  -1.241  68.880  0.00  0.00    +0.000 A 
ATOM     12  C   UNL     1       6.165   0.834  63.398  0.00  0.00    +0.000 A 
ATOM     13  C   UNL     1       6.560  -2.793  68.092  0.00  0.00    +0.000 A 
ATOM     14  C   UNL     1       8.487  -0.856  67.567  0.00  0.00    +0.000 A 
ATOM     15  C   UNL     1       6.838  -2.427  66.779  0.00  0.00    +0.000 A 
ATOM     16  C   UNL     1       7.493  -3.026  71.531  0.00  0.00    +0.000 A 
ATOM     17  C   UNL     1       4.867  -2.395  72.178  0.00  0.00    +0.000 A 
ATOM     18  C   UNL     1       6.987  -3.348  72.790  0.00  0.00    +0.000 A 
ATOM     19  C   UNL     1       5.670  -3.041  73.111  0.00  0.00    +0.000 A 
ATOM     20  C   UNL     1       4.970   1.048  64.075  0.00  0.00    +0.000 A 
ATOM     21  C   UNL     1       2.555  -0.555  66.807  0.00  0.00    +0.000 A 
ATOM     22  C   UNL     1       3.428   1.502  67.737  0.00  0.00    +0.000 A 
ATOM     23  C   UNL     1       3.922   1.771  63.517  0.00  0.00    +0.000 A 
ATOM     24  C   UNL     1       6.338   1.352  62.123  0.00  0.00    +0.000 A 
ATOM     25  C   UNL     1       2.672   1.432  65.456  0.00  0.00    +0.000 A 
ATOM     26  C   UNL     1       2.297   0.096  65.602  0.00  0.00    +0.000 A 
ATOM     27  C   UNL     1       3.173   2.160  66.536  0.00  0.00    +0.000 A 
ATOM     28  C   UNL     1       4.096   2.290  62.239  0.00  0.00    +0.000 A 
ATOM     29  C   UNL     1       5.293   2.085  61.545  0.00  0.00    +0.000 A 
ENDROOT
BRANCH  11  30
ATOM     30  O   UNL     1       8.933  -0.692  69.904  0.00  0.00    +0.000 OA
ATOM     31  H   UNL     1       9.784  -1.167  69.962  0.00  0.00    +0.000 HD
ENDBRANCH  11  30
BRANCH  16  32
ATOM     32  O   UNL     1       8.816  -3.314  71.326  0.00  0.00    +0.000 OA
ATOM     33  H   UNL     1       9.150  -2.659  70.683  0.00  0.00    +0.000 HD
ENDBRANCH  16  32
BRANCH  28  34
ATOM     34  O   UNL     1       3.112   3.012  61.625  0.00  0.00    +0.000 OA
ATOM     35  H   UNL     1       3.111   3.900  62.025  0.00  0.00    +0.000 HD
ENDBRANCH  28  34
TORSDOF 3
ENDMDL
