MODEL 1
REMARK VINA RESULT:      -3.2      0.000      0.000
REMARK  Name = 146026348_FluorouracilMononitrate.pdbqt.pdb
REMARK  2 active torsions:
REMARK  status: ('A' for Active; 'I' for Inactive)
REMARK    1  A    between atoms: N_4  and  O_10
REMARK    2  A    between atoms: O_10  and  N_13
REMARK                            x       y       z     vdW  Elec       q    Type
REMARK                         _______ _______ _______ _____ _____    ______ ____
ROOT
ATOM      1  F   UNL     1      16.925   7.802  72.425  0.00  0.00    +0.000 F 
ATOM      2  O   UNL     1      14.792   8.921  71.010  0.00  0.00    +0.000 OA
ATOM      3  O   UNL     1      15.598   5.731  67.686  0.00  0.00    +0.000 OA
ATOM      4  N   UNL     1      15.260   7.450  69.251  0.00  0.00    +0.000 N 
ATOM      5  N   UNL     1      16.615   7.439  71.171  0.00  0.00    +0.000 N 
ATOM      6  C   UNL     1      15.492   8.036  70.526  0.00  0.00    +0.000 A 
ATOM      7  C   UNL     1      15.895   6.334  68.704  0.00  0.00    +0.000 A 
ATOM      8  C   UNL     1      16.984   5.908  69.553  0.00  0.00    +0.000 A 
ATOM      9  C   UNL     1      17.261   6.404  70.602  0.00  0.00    +0.000 A 
ENDROOT
BRANCH   4  10
ATOM     10  O   UNL     1      14.116   7.907  68.572  0.00  0.00    +0.000 OA
BRANCH  10  13
ATOM     11  O   UNL     1      15.372   9.215  67.243  0.00  0.00    +0.000 OA
ATOM     12  O   UNL     1      13.360   9.893  67.945  0.00  0.00    +0.000 OA
ATOM     13  N   UNL     1      14.306   9.114  67.855  0.00  0.00    +0.000 N 
ENDBRANCH  10  13
ENDBRANCH   4  10
TORSDOF 2
ENDMDL
MODEL 2
REMARK VINA RESULT:      -2.9     16.421     17.015
REMARK  Name = 146026348_FluorouracilMononitrate.pdbqt.pdb
REMARK  2 active torsions:
REMARK  status: ('A' for Active; 'I' for Inactive)
REMARK    1  A    between atoms: N_4  and  O_10
REMARK    2  A    between atoms: O_10  and  N_13
REMARK                            x       y       z     vdW  Elec       q    Type
REMARK                         _______ _______ _______ _____ _____    ______ ____
ROOT
ATOM      1  F   UNL     1      19.280  -0.653  56.810  0.00  0.00    +0.000 F 
ATOM      2  O   UNL     1      17.035  -0.866  55.159  0.00  0.00    +0.000 OA
ATOM      3  O   UNL     1      19.107   2.203  52.302  0.00  0.00    +0.000 OA
ATOM      4  N   UNL     1      17.960   0.785  53.783  0.00  0.00    +0.000 N 
ATOM      5  N   UNL     1      19.090   0.129  55.737  0.00  0.00    +0.000 N 
ATOM      6  C   UNL     1      17.932  -0.061  54.927  0.00  0.00    +0.000 A 
ATOM      7  C   UNL     1      19.012   1.598  53.357  0.00  0.00    +0.000 A 
ATOM      8  C   UNL     1      20.070   1.609  54.341  0.00  0.00    +0.000 A 
ATOM      9  C   UNL     1      20.069   0.968  55.347  0.00  0.00    +0.000 A 
ENDROOT
BRANCH   4  10
ATOM     10  O   UNL     1      16.905   0.607  52.870  0.00  0.00    +0.000 OA
BRANCH  10  13
ATOM     11  O   UNL     1      15.923   2.630  52.927  0.00  0.00    +0.000 OA
ATOM     12  O   UNL     1      14.786   0.789  53.494  0.00  0.00    +0.000 OA
ATOM     13  N   UNL     1      15.772   1.421  53.121  0.00  0.00    +0.000 N 
ENDBRANCH  10  13
ENDBRANCH   4  10
TORSDOF 2
ENDMDL
MODEL 3
REMARK VINA RESULT:      -2.7      2.082      2.184
REMARK  Name = 146026348_FluorouracilMononitrate.pdbqt.pdb
REMARK  2 active torsions:
REMARK  status: ('A' for Active; 'I' for Inactive)
REMARK    1  A    between atoms: N_4  and  O_10
REMARK    2  A    between atoms: O_10  and  N_13
REMARK                            x       y       z     vdW  Elec       q    Type
REMARK                         _______ _______ _______ _____ _____    ______ ____
ROOT
ATOM      1  F   UNL     1      17.981  10.639  71.691  0.00  0.00    +0.000 F 
ATOM      2  O   UNL     1      15.301   9.984  71.247  0.00  0.00    +0.000 OA
ATOM      3  O   UNL     1      16.756   7.359  67.659  0.00  0.00    +0.000 OA
ATOM      4  N   UNL     1      15.966   8.789  69.347  0.00  0.00    +0.000 N 
ATOM      5  N   UNL     1      17.571   9.940  70.622  0.00  0.00    +0.000 N 
ATOM      6  C   UNL     1      16.189   9.620  70.480  0.00  0.00    +0.000 A 
ATOM      7  C   UNL     1      16.930   8.195  68.531  0.00  0.00    +0.000 A 
ATOM      8  C   UNL     1      18.249   8.665  68.885  0.00  0.00    +0.000 A 
ATOM      9  C   UNL     1      18.485   9.411  69.786  0.00  0.00    +0.000 A 
ENDROOT
BRANCH   4  10
ATOM     10  O   UNL     1      14.644   8.340  69.173  0.00  0.00    +0.000 OA
BRANCH  10  13
ATOM     11  O   UNL     1      13.831  10.224  68.252  0.00  0.00    +0.000 OA
ATOM     12  O   UNL     1      13.532   8.243  67.259  0.00  0.00    +0.000 OA
ATOM     13  N   UNL     1      13.936   9.000  68.138  0.00  0.00    +0.000 N 
ENDBRANCH  10  13
ENDBRANCH   4  10
TORSDOF 2
ENDMDL
MODEL 4
REMARK VINA RESULT:      -2.7      3.297      4.393
REMARK  Name = 146026348_FluorouracilMononitrate.pdbqt.pdb
REMARK  2 active torsions:
REMARK  status: ('A' for Active; 'I' for Inactive)
REMARK    1  A    between atoms: N_4  and  O_10
REMARK    2  A    between atoms: O_10  and  N_13
REMARK                            x       y       z     vdW  Elec       q    Type
REMARK                         _______ _______ _______ _____ _____    ______ ____
ROOT
ATOM      1  F   UNL     1      14.141  10.022  73.092  0.00  0.00    +0.000 F 
ATOM      2  O   UNL     1      13.139   8.829  70.772  0.00  0.00    +0.000 OA
ATOM      3  O   UNL     1      14.286  12.758  68.508  0.00  0.00    +0.000 OA
ATOM      4  N   UNL     1      13.547  10.833  69.632  0.00  0.00    +0.000 N 
ATOM      5  N   UNL     1      14.009  10.685  71.932  0.00  0.00    +0.000 N 
ATOM      6  C   UNL     1      13.516   9.998  70.784  0.00  0.00    +0.000 A 
ATOM      7  C   UNL     1      14.114  12.103  69.523  0.00  0.00    +0.000 A 
ATOM      8  C   UNL     1      14.554  12.572  70.817  0.00  0.00    +0.000 A 
ATOM      9  C   UNL     1      14.493  11.937  71.826  0.00  0.00    +0.000 A 
ENDROOT
BRANCH   4  10
ATOM     10  O   UNL     1      13.167  10.217  68.426  0.00  0.00    +0.000 OA
BRANCH  10  13
ATOM     11  O   UNL     1      13.630   8.202  67.542  0.00  0.00    +0.000 OA
ATOM     12  O   UNL     1      15.264   9.669  67.963  0.00  0.00    +0.000 OA
ATOM     13  N   UNL     1      14.102   9.272  67.934  0.00  0.00    +0.000 N 
ENDBRANCH  10  13
ENDBRANCH   4  10
TORSDOF 2
ENDMDL
MODEL 5
REMARK VINA RESULT:      -2.5     12.652     13.608
REMARK  Name = 146026348_FluorouracilMononitrate.pdbqt.pdb
REMARK  2 active torsions:
REMARK  status: ('A' for Active; 'I' for Inactive)
REMARK    1  A    between atoms: N_4  and  O_10
REMARK    2  A    between atoms: O_10  and  N_13
REMARK                            x       y       z     vdW  Elec       q    Type
REMARK                         _______ _______ _______ _____ _____    ______ ____
ROOT
ATOM      1  F   UNL     1       3.379  10.236  75.547  0.00  0.00    +0.000 F 
ATOM      2  O   UNL     1       5.702   8.683  75.518  0.00  0.00    +0.000 OA
ATOM      3  O   UNL     1       2.930   4.917  75.429  0.00  0.00    +0.000 OA
ATOM      4  N   UNL     1       4.358   6.771  75.635  0.00  0.00    +0.000 N 
ATOM      5  N   UNL     1       3.361   8.899  75.659  0.00  0.00    +0.000 N 
ATOM      6  C   UNL     1       4.588   8.175  75.607  0.00  0.00    +0.000 A 
ATOM      7  C   UNL     1       3.128   6.113  75.563  0.00  0.00    +0.000 A 
ATOM      8  C   UNL     1       2.043   7.065  75.615  0.00  0.00    +0.000 A 
ATOM      9  C   UNL     1       2.181   8.250  75.655  0.00  0.00    +0.000 A 
ENDROOT
BRANCH   4  10
ATOM     10  O   UNL     1       5.502   5.965  75.494  0.00  0.00    +0.000 OA
BRANCH  10  13
ATOM     11  O   UNL     1       5.986   4.052  76.574  0.00  0.00    +0.000 OA
ATOM     12  O   UNL     1       6.058   6.017  77.639  0.00  0.00    +0.000 OA
ATOM     13  N   UNL     1       5.880   5.277  76.674  0.00  0.00    +0.000 N 
ENDBRANCH  10  13
ENDBRANCH   4  10
TORSDOF 2
ENDMDL
MODEL 6
REMARK VINA RESULT:      -2.5     13.793     14.823
REMARK  Name = 146026348_FluorouracilMononitrate.pdbqt.pdb
REMARK  2 active torsions:
REMARK  status: ('A' for Active; 'I' for Inactive)
REMARK    1  A    between atoms: N_4  and  O_10
REMARK    2  A    between atoms: O_10  and  N_13
REMARK                            x       y       z     vdW  Elec       q    Type
REMARK                         _______ _______ _______ _____ _____    ______ ____
ROOT
ATOM      1  F   UNL     1      22.318   8.371  56.596  0.00  0.00    +0.000 F 
ATOM      2  O   UNL     1      19.724   8.891  57.497  0.00  0.00    +0.000 OA
ATOM      3  O   UNL     1      18.289   8.238  53.094  0.00  0.00    +0.000 OA
ATOM      4  N   UNL     1      18.983   8.732  55.283  0.00  0.00    +0.000 N 
ATOM      5  N   UNL     1      21.271   8.497  55.766  0.00  0.00    +0.000 N 
ATOM      6  C   UNL     1      19.973   8.734  56.305  0.00  0.00    +0.000 A 
ATOM      7  C   UNL     1      19.155   8.394  53.939  0.00  0.00    +0.000 A 
ATOM      8  C   UNL     1      20.554   8.186  53.647  0.00  0.00    +0.000 A 
ATOM      9  C   UNL     1      21.431   8.238  54.454  0.00  0.00    +0.000 A 
ENDROOT
BRANCH   4  10
ATOM     10  O   UNL     1      17.654   8.864  55.724  0.00  0.00    +0.000 OA
BRANCH  10  13
ATOM     11  O   UNL     1      16.040  10.074  54.730  0.00  0.00    +0.000 OA
ATOM     12  O   UNL     1      17.658  11.073  55.908  0.00  0.00    +0.000 OA
ATOM     13  N   UNL     1      17.061  10.115  55.421  0.00  0.00    +0.000 N 
ENDBRANCH  10  13
ENDBRANCH   4  10
TORSDOF 2
ENDMDL
MODEL 7
REMARK VINA RESULT:      -2.5     12.506     13.331
REMARK  Name = 146026348_FluorouracilMononitrate.pdbqt.pdb
REMARK  2 active torsions:
REMARK  status: ('A' for Active; 'I' for Inactive)
REMARK    1  A    between atoms: N_4  and  O_10
REMARK    2  A    between atoms: O_10  and  N_13
REMARK                            x       y       z     vdW  Elec       q    Type
REMARK                         _______ _______ _______ _____ _____    ______ ____
ROOT
ATOM      1  F   UNL     1       4.889   6.942  80.168  0.00  0.00    +0.000 F 
ATOM      2  O   UNL     1       4.771   5.192  77.992  0.00  0.00    +0.000 OA
ATOM      3  O   UNL     1       5.698   8.869  75.254  0.00  0.00    +0.000 OA
ATOM      4  N   UNL     1       5.073   7.028  76.571  0.00  0.00    +0.000 N 
ATOM      5  N   UNL     1       4.939   7.361  78.894  0.00  0.00    +0.000 N 
ATOM      6  C   UNL     1       4.903   6.403  77.838  0.00  0.00    +0.000 A 
ATOM      7  C   UNL     1       5.396   8.362  76.322  0.00  0.00    +0.000 A 
ATOM      8  C   UNL     1       5.386   9.121  77.551  0.00  0.00    +0.000 A 
ATOM      9  C   UNL     1       5.187   8.659  78.633  0.00  0.00    +0.000 A 
ENDROOT
BRANCH   4  10
ATOM     10  O   UNL     1       5.145   6.156  75.469  0.00  0.00    +0.000 OA
BRANCH  10  13
ATOM     11  O   UNL     1       3.763   6.792  73.813  0.00  0.00    +0.000 OA
ATOM     12  O   UNL     1       3.207   5.118  75.187  0.00  0.00    +0.000 OA
ATOM     13  N   UNL     1       3.928   6.015  74.757  0.00  0.00    +0.000 N 
ENDBRANCH  10  13
ENDBRANCH   4  10
TORSDOF 2
ENDMDL
MODEL 8
REMARK VINA RESULT:      -2.4     15.391     16.412
REMARK  Name = 146026348_FluorouracilMononitrate.pdbqt.pdb
REMARK  2 active torsions:
REMARK  status: ('A' for Active; 'I' for Inactive)
REMARK    1  A    between atoms: N_4  and  O_10
REMARK    2  A    between atoms: O_10  and  N_13
REMARK                            x       y       z     vdW  Elec       q    Type
REMARK                         _______ _______ _______ _____ _____    ______ ____
ROOT
ATOM      1  F   UNL     1      19.991   1.522  54.744  0.00  0.00    +0.000 F 
ATOM      2  O   UNL     1      19.719  -0.404  56.751  0.00  0.00    +0.000 OA
ATOM      3  O   UNL     1      15.756  -1.728  54.649  0.00  0.00    +0.000 OA
ATOM      4  N   UNL     1      17.651  -0.994  55.826  0.00  0.00    +0.000 N 
ATOM      5  N   UNL     1      18.894   0.762  54.878  0.00  0.00    +0.000 N 
ATOM      6  C   UNL     1      18.842  -0.220  55.911  0.00  0.00    +0.000 A 
ATOM      7  C   UNL     1      16.694  -0.965  54.811  0.00  0.00    +0.000 A 
ATOM      8  C   UNL     1      16.977   0.104  53.881  0.00  0.00    +0.000 A 
ATOM      9  C   UNL     1      17.928   0.822  53.941  0.00  0.00    +0.000 A 
ENDROOT
BRANCH   4  10
ATOM     10  O   UNL     1      17.548  -2.053  56.746  0.00  0.00    +0.000 OA
BRANCH  10  13
ATOM     11  O   UNL     1      17.758  -1.724  58.961  0.00  0.00    +0.000 OA
ATOM     12  O   UNL     1      15.804  -1.373  57.932  0.00  0.00    +0.000 OA
ATOM     13  N   UNL     1      16.990  -1.687  57.996  0.00  0.00    +0.000 N 
ENDBRANCH  10  13
ENDBRANCH   4  10
TORSDOF 2
ENDMDL
MODEL 9
REMARK VINA RESULT:      -2.4      7.901      9.288
REMARK  Name = 146026348_FluorouracilMononitrate.pdbqt.pdb
REMARK  2 active torsions:
REMARK  status: ('A' for Active; 'I' for Inactive)
REMARK    1  A    between atoms: N_4  and  O_10
REMARK    2  A    between atoms: O_10  and  N_13
REMARK                            x       y       z     vdW  Elec       q    Type
REMARK                         _______ _______ _______ _____ _____    ______ ____
ROOT
ATOM      1  F   UNL     1      17.402  -0.284  66.043  0.00  0.00    +0.000 F 
ATOM      2  O   UNL     1      17.592  -0.188  63.257  0.00  0.00    +0.000 OA
ATOM      3  O   UNL     1      19.177   4.187  63.725  0.00  0.00    +0.000 OA
ATOM      4  N   UNL     1      18.235   2.055  63.433  0.00  0.00    +0.000 N 
ATOM      5  N   UNL     1      17.701   0.840  65.373  0.00  0.00    +0.000 N 
ATOM      6  C   UNL     1      17.808   0.801  63.952  0.00  0.00    +0.000 A 
ATOM      7  C   UNL     1      18.664   3.169  64.158  0.00  0.00    +0.000 A 
ATOM      8  C   UNL     1      18.470   2.954  65.574  0.00  0.00    +0.000 A 
ATOM      9  C   UNL     1      18.056   1.944  66.057  0.00  0.00    +0.000 A 
ENDROOT
BRANCH   4  10
ATOM     10  O   UNL     1      18.461   2.094  62.046  0.00  0.00    +0.000 OA
BRANCH  10  13
ATOM     11  O   UNL     1      20.195   2.959  60.905  0.00  0.00    +0.000 OA
ATOM     12  O   UNL     1      20.461   1.153  62.197  0.00  0.00    +0.000 OA
ATOM     13  N   UNL     1      19.829   2.069  61.677  0.00  0.00    +0.000 N 
ENDBRANCH  10  13
ENDBRANCH   4  10
TORSDOF 2
ENDMDL
