MODEL 1
REMARK VINA RESULT:      -5.2      0.000      0.000
REMARK  Name = 179268_Nortopsentin.pdbqt.pdb
REMARK  2 active torsions:
REMARK  status: ('A' for Active; 'I' for Inactive)
REMARK    1  A    between atoms: C_3  and  C_9
REMARK    2  A    between atoms: C_4  and  C_20
REMARK                            x       y       z     vdW  Elec       q    Type
REMARK                         _______ _______ _______ _____ _____    ______ ____
ROOT
ATOM      1  N   UNL     1       8.630  10.112  60.758  0.00  0.00    +0.000 N 
ATOM      2  N   UNL     1       7.986  12.026  59.856  0.00  0.00    +0.000 NA
ATOM      3  C   UNL     1       7.595   9.799  59.921  0.00  0.00    +0.000 A 
ATOM      4  C   UNL     1       8.835  11.467  60.691  0.00  0.00    +0.000 A 
ATOM      5  C   UNL     1       7.210  11.001  59.371  0.00  0.00    +0.000 A 
ATOM      6  H   UNL     1       9.158   9.471  61.330  0.00  0.00    +0.000 HD
ENDROOT
BRANCH   3   9
ATOM      7 BR   UNL     1       4.089   4.049  62.621  0.00  0.00    +0.000 Br
ATOM      8  N   UNL     1       6.452   6.619  58.571  0.00  0.00    +0.000 N 
ATOM      9  C   UNL     1       7.025   8.460  59.670  0.00  0.00    +0.000 A 
ATOM     10  C   UNL     1       6.356   7.593  60.579  0.00  0.00    +0.000 A 
ATOM     11  C   UNL     1       6.008   6.444  59.861  0.00  0.00    +0.000 A 
ATOM     12  C   UNL     1       7.067   7.832  58.447  0.00  0.00    +0.000 A 
ATOM     13  C   UNL     1       6.008   7.662  61.943  0.00  0.00    +0.000 A 
ATOM     14  C   UNL     1       5.330   5.362  60.435  0.00  0.00    +0.000 A 
ATOM     15  C   UNL     1       5.331   6.595  62.535  0.00  0.00    +0.000 A 
ATOM     16  C   UNL     1       5.003   5.471  61.787  0.00  0.00    +0.000 A 
ATOM     17  H   UNL     1       6.340   5.948  57.822  0.00  0.00    +0.000 HD
ENDBRANCH   3   9
BRANCH   4  20
ATOM     18 BR   UNL     1      15.629  13.985  60.782  0.00  0.00    +0.000 Br
ATOM     19  N   UNL     1      10.860  13.312  63.105  0.00  0.00    +0.000 N 
ATOM     20  C   UNL     1       9.876  12.197  61.458  0.00  0.00    +0.000 A 
ATOM     21  C   UNL     1      11.207  12.497  61.054  0.00  0.00    +0.000 A 
ATOM     22  C   UNL     1      11.801  13.197  62.107  0.00  0.00    +0.000 A 
ATOM     23  C   UNL     1       9.692  12.710  62.722  0.00  0.00    +0.000 A 
ATOM     24  C   UNL     1      11.969  12.245  59.897  0.00  0.00    +0.000 A 
ATOM     25  C   UNL     1      13.120  13.659  62.065  0.00  0.00    +0.000 A 
ATOM     26  C   UNL     1      13.289  12.697  59.834  0.00  0.00    +0.000 A 
ATOM     27  C   UNL     1      13.843  13.389  60.902  0.00  0.00    +0.000 A 
ATOM     28  H   UNL     1      11.013  13.774  63.991  0.00  0.00    +0.000 HD
ENDBRANCH   4  20
TORSDOF 2
ENDMDL
MODEL 2
REMARK VINA RESULT:      -5.2      6.099      8.867
REMARK  Name = 179268_Nortopsentin.pdbqt.pdb
REMARK  2 active torsions:
REMARK  status: ('A' for Active; 'I' for Inactive)
REMARK    1  A    between atoms: C_3  and  C_9
REMARK    2  A    between atoms: C_4  and  C_20
REMARK                            x       y       z     vdW  Elec       q    Type
REMARK                         _______ _______ _______ _____ _____    ______ ____
ROOT
ATOM      1  N   UNL     1      15.412  11.085  59.805  0.00  0.00    +0.000 N 
ATOM      2  N   UNL     1      16.670  11.747  61.499  0.00  0.00    +0.000 NA
ATOM      3  C   UNL     1      14.626  11.925  60.545  0.00  0.00    +0.000 A 
ATOM      4  C   UNL     1      16.639  11.003  60.414  0.00  0.00    +0.000 A 
ATOM      5  C   UNL     1      15.427  12.324  61.592  0.00  0.00    +0.000 A 
ATOM      6  H   UNL     1      15.149  10.604  58.959  0.00  0.00    +0.000 HD
ENDROOT
BRANCH   3   9
ATOM      7 BR   UNL     1       9.582  13.480  55.568  0.00  0.00    +0.000 Br
ATOM      8  N   UNL     1      11.111  12.861  60.654  0.00  0.00    +0.000 N 
ATOM      9  C   UNL     1      13.227  12.310  60.272  0.00  0.00    +0.000 A 
ATOM     10  C   UNL     1      12.595  12.532  59.015  0.00  0.00    +0.000 A 
ATOM     11  C   UNL     1      11.267  12.876  59.287  0.00  0.00    +0.000 A 
ATOM     12  C   UNL     1      12.290  12.520  61.256  0.00  0.00    +0.000 A 
ATOM     13  C   UNL     1      13.011  12.476  57.671  0.00  0.00    +0.000 A 
ATOM     14  C   UNL     1      10.334  13.167  58.284  0.00  0.00    +0.000 A 
ATOM     15  C   UNL     1      12.098  12.762  56.655  0.00  0.00    +0.000 A 
ATOM     16  C   UNL     1      10.787  13.100  56.967  0.00  0.00    +0.000 A 
ATOM     17  H   UNL     1      10.252  13.070  61.144  0.00  0.00    +0.000 HD
ENDBRANCH   3   9
BRANCH   4  20
ATOM     18 BR   UNL     1      20.242   8.576  54.614  0.00  0.00    +0.000 Br
ATOM     19  N   UNL     1      19.559   8.872  59.910  0.00  0.00    +0.000 N 
ATOM     20  C   UNL     1      17.772  10.187  59.912  0.00  0.00    +0.000 A 
ATOM     21  C   UNL     1      18.152   9.960  58.559  0.00  0.00    +0.000 A 
ATOM     22  C   UNL     1      19.276   9.131  58.588  0.00  0.00    +0.000 A 
ATOM     23  C   UNL     1      18.655   9.505  60.718  0.00  0.00    +0.000 A 
ATOM     24  C   UNL     1      17.653  10.378  57.310  0.00  0.00    +0.000 A 
ATOM     25  C   UNL     1      19.930   8.696  57.432  0.00  0.00    +0.000 A 
ATOM     26  C   UNL     1      18.290   9.953  56.142  0.00  0.00    +0.000 A 
ATOM     27  C   UNL     1      19.406   9.129  56.213  0.00  0.00    +0.000 A 
ATOM     28  H   UNL     1      20.324   8.295  60.233  0.00  0.00    +0.000 HD
ENDBRANCH   4  20
TORSDOF 2
ENDMDL
MODEL 3
REMARK VINA RESULT:      -5.1      5.780      9.991
REMARK  Name = 179268_Nortopsentin.pdbqt.pdb
REMARK  2 active torsions:
REMARK  status: ('A' for Active; 'I' for Inactive)
REMARK    1  A    between atoms: C_3  and  C_9
REMARK    2  A    between atoms: C_4  and  C_20
REMARK                            x       y       z     vdW  Elec       q    Type
REMARK                         _______ _______ _______ _____ _____    ______ ____
ROOT
ATOM      1  N   UNL     1      15.254  11.141  59.683  0.00  0.00    +0.000 N 
ATOM      2  N   UNL     1      15.466  13.081  60.724  0.00  0.00    +0.000 NA
ATOM      3  C   UNL     1      16.597  11.312  59.880  0.00  0.00    +0.000 A 
ATOM      4  C   UNL     1      14.605  12.230  60.206  0.00  0.00    +0.000 A 
ATOM      5  C   UNL     1      16.706  12.522  60.527  0.00  0.00    +0.000 A 
ATOM      6  H   UNL     1      14.806  10.357  59.233  0.00  0.00    +0.000 HD
ENDROOT
BRANCH   3   9
ATOM      7 BR   UNL     1      20.412   8.356  54.462  0.00  0.00    +0.000 Br
ATOM      8  N   UNL     1      19.341   8.932  59.669  0.00  0.00    +0.000 N 
ATOM      9  C   UNL     1      17.681  10.393  59.480  0.00  0.00    +0.000 A 
ATOM     10  C   UNL     1      18.145  10.079  58.171  0.00  0.00    +0.000 A 
ATOM     11  C   UNL     1      19.187   9.159  58.321  0.00  0.00    +0.000 A 
ATOM     12  C   UNL     1      18.436   9.673  60.376  0.00  0.00    +0.000 A 
ATOM     13  C   UNL     1      17.788  10.480  56.869  0.00  0.00    +0.000 A 
ATOM     14  C   UNL     1      19.890   8.620  57.237  0.00  0.00    +0.000 A 
ATOM     15  C   UNL     1      18.475   9.956  55.774  0.00  0.00    +0.000 A 
ATOM     16  C   UNL     1      19.506   9.044  55.965  0.00  0.00    +0.000 A 
ATOM     17  H   UNL     1      20.024   8.308  60.079  0.00  0.00    +0.000 HD
ENDBRANCH   3   9
BRANCH   4  20
ATOM     18 BR   UNL     1       8.694  13.329  56.162  0.00  0.00    +0.000 Br
ATOM     19  N   UNL     1      11.044  12.619  60.912  0.00  0.00    +0.000 N 
ATOM     20  C   UNL     1      13.133  12.418  60.190  0.00  0.00    +0.000 A 
ATOM     21  C   UNL     1      12.292  12.623  59.060  0.00  0.00    +0.000 A 
ATOM     22  C   UNL     1      10.987  12.746  59.543  0.00  0.00    +0.000 A 
ATOM     23  C   UNL     1      12.338  12.421  61.313  0.00  0.00    +0.000 A 
ATOM     24  C   UNL     1      12.509  12.716  57.671  0.00  0.00    +0.000 A 
ATOM     25  C   UNL     1       9.885  12.957  58.711  0.00  0.00    +0.000 A 
ATOM     26  C   UNL     1      11.422  12.928  56.821  0.00  0.00    +0.000 A 
ATOM     27  C   UNL     1      10.139  13.044  57.341  0.00  0.00    +0.000 A 
ATOM     28  H   UNL     1      10.245  12.666  61.530  0.00  0.00    +0.000 HD
ENDBRANCH   4  20
TORSDOF 2
ENDMDL
MODEL 4
REMARK VINA RESULT:      -4.9      1.579      2.055
REMARK  Name = 179268_Nortopsentin.pdbqt.pdb
REMARK  2 active torsions:
REMARK  status: ('A' for Active; 'I' for Inactive)
REMARK    1  A    between atoms: C_3  and  C_9
REMARK    2  A    between atoms: C_4  and  C_20
REMARK                            x       y       z     vdW  Elec       q    Type
REMARK                         _______ _______ _______ _____ _____    ______ ____
ROOT
ATOM      1  N   UNL     1       8.783  10.528  60.960  0.00  0.00    +0.000 N 
ATOM      2  N   UNL     1       8.792  12.123  59.427  0.00  0.00    +0.000 NA
ATOM      3  C   UNL     1       7.764  10.223  60.100  0.00  0.00    +0.000 A 
ATOM      4  C   UNL     1       9.379  11.683  60.520  0.00  0.00    +0.000 A 
ATOM      5  C   UNL     1       7.787  11.226  59.157  0.00  0.00    +0.000 A 
ATOM      6  H   UNL     1       9.059  10.006  61.777  0.00  0.00    +0.000 HD
ENDROOT
BRANCH   3   9
ATOM      7 BR   UNL     1       6.432   3.344  58.214  0.00  0.00    +0.000 Br
ATOM      8  N   UNL     1       5.066   7.863  60.727  0.00  0.00    +0.000 N 
ATOM      9  C   UNL     1       6.847   9.068  60.178  0.00  0.00    +0.000 A 
ATOM     10  C   UNL     1       6.993   7.776  59.598  0.00  0.00    +0.000 A 
ATOM     11  C   UNL     1       5.859   7.041  59.960  0.00  0.00    +0.000 A 
ATOM     12  C   UNL     1       5.655   9.088  60.863  0.00  0.00    +0.000 A 
ATOM     13  C   UNL     1       7.971   7.149  58.801  0.00  0.00    +0.000 A 
ATOM     14  C   UNL     1       5.654   5.713  59.566  0.00  0.00    +0.000 A 
ATOM     15  C   UNL     1       7.787   5.827  58.398  0.00  0.00    +0.000 A 
ATOM     16  C   UNL     1       6.646   5.131  58.779  0.00  0.00    +0.000 A 
ATOM     17  H   UNL     1       4.177   7.601  61.132  0.00  0.00    +0.000 HD
ENDBRANCH   3   9
BRANCH   4  20
ATOM     18 BR   UNL     1      16.317  13.710  60.007  0.00  0.00    +0.000 Br
ATOM     19  N   UNL     1      11.728  13.389  62.733  0.00  0.00    +0.000 N 
ATOM     20  C   UNL     1      10.531  12.340  61.188  0.00  0.00    +0.000 A 
ATOM     21  C   UNL     1      11.840  12.543  60.669  0.00  0.00    +0.000 A 
ATOM     22  C   UNL     1      12.570  13.203  61.661  0.00  0.00    +0.000 A 
ATOM     23  C   UNL     1      10.492  12.870  62.457  0.00  0.00    +0.000 A 
ATOM     24  C   UNL     1      12.481  12.231  59.454  0.00  0.00    +0.000 A 
ATOM     25  C   UNL     1      13.910  13.569  61.502  0.00  0.00    +0.000 A 
ATOM     26  C   UNL     1      13.819  12.587  59.275  0.00  0.00    +0.000 A 
ATOM     27  C   UNL     1      14.510  13.243  60.285  0.00  0.00    +0.000 A 
ATOM     28  H   UNL     1      11.988  13.843  63.598  0.00  0.00    +0.000 HD
ENDBRANCH   4  20
TORSDOF 2
ENDMDL
MODEL 5
REMARK VINA RESULT:      -4.9     13.700     14.866
REMARK  Name = 179268_Nortopsentin.pdbqt.pdb
REMARK  2 active torsions:
REMARK  status: ('A' for Active; 'I' for Inactive)
REMARK    1  A    between atoms: C_3  and  C_9
REMARK    2  A    between atoms: C_4  and  C_20
REMARK                            x       y       z     vdW  Elec       q    Type
REMARK                         _______ _______ _______ _____ _____    ______ ____
ROOT
ATOM      1  N   UNL     1      14.064   4.636  71.988  0.00  0.00    +0.000 N 
ATOM      2  N   UNL     1      16.085   3.794  72.308  0.00  0.00    +0.000 NA
ATOM      3  C   UNL     1      14.135   4.334  73.320  0.00  0.00    +0.000 A 
ATOM      4  C   UNL     1      15.261   4.294  71.411  0.00  0.00    +0.000 A 
ATOM      5  C   UNL     1      15.397   3.813  73.497  0.00  0.00    +0.000 A 
ATOM      6  H   UNL     1      13.278   5.038  71.502  0.00  0.00    +0.000 HD
ENDROOT
BRANCH   3   9
ATOM      7 BR   UNL     1       8.731   1.386  77.161  0.00  0.00    +0.000 Br
ATOM      8  N   UNL     1      11.807   5.554  75.838  0.00  0.00    +0.000 N 
ATOM      9  C   UNL     1      13.081   4.530  74.336  0.00  0.00    +0.000 A 
ATOM     10  C   UNL     1      12.149   3.581  74.846  0.00  0.00    +0.000 A 
ATOM     11  C   UNL     1      11.363   4.253  75.787  0.00  0.00    +0.000 A 
ATOM     12  C   UNL     1      12.845   5.730  74.966  0.00  0.00    +0.000 A 
ATOM     13  C   UNL     1      11.890   2.218  74.607  0.00  0.00    +0.000 A 
ATOM     14  C   UNL     1      10.330   3.633  76.500  0.00  0.00    +0.000 A 
ATOM     15  C   UNL     1      10.866   1.579  75.307  0.00  0.00    +0.000 A 
ATOM     16  C   UNL     1      10.106   2.282  76.234  0.00  0.00    +0.000 A 
ATOM     17  H   UNL     1      11.425   6.277  76.433  0.00  0.00    +0.000 HD
ENDBRANCH   3   9
BRANCH   4  20
ATOM     18 BR   UNL     1      17.249   1.090  65.223  0.00  0.00    +0.000 Br
ATOM     19  N   UNL     1      15.896   5.451  68.007  0.00  0.00    +0.000 N 
ATOM     20  C   UNL     1      15.579   4.469  69.972  0.00  0.00    +0.000 A 
ATOM     21  C   UNL     1      15.962   3.469  69.035  0.00  0.00    +0.000 A 
ATOM     22  C   UNL     1      16.154   4.113  67.811  0.00  0.00    +0.000 A 
ATOM     23  C   UNL     1      15.548   5.677  69.311  0.00  0.00    +0.000 A 
ATOM     24  C   UNL     1      16.163   2.076  69.104  0.00  0.00    +0.000 A 
ATOM     25  C   UNL     1      16.538   3.439  66.648  0.00  0.00    +0.000 A 
ATOM     26  C   UNL     1      16.549   1.383  67.955  0.00  0.00    +0.000 A 
ATOM     27  C   UNL     1      16.729   2.060  66.756  0.00  0.00    +0.000 A 
ATOM     28  H   UNL     1      15.956   6.161  67.290  0.00  0.00    +0.000 HD
ENDBRANCH   4  20
TORSDOF 2
ENDMDL
MODEL 6
REMARK VINA RESULT:      -4.9      6.375     11.800
REMARK  Name = 179268_Nortopsentin.pdbqt.pdb
REMARK  2 active torsions:
REMARK  status: ('A' for Active; 'I' for Inactive)
REMARK    1  A    between atoms: C_3  and  C_9
REMARK    2  A    between atoms: C_4  and  C_20
REMARK                            x       y       z     vdW  Elec       q    Type
REMARK                         _______ _______ _______ _____ _____    ______ ____
ROOT
ATOM      1  N   UNL     1       2.453   5.050  65.739  0.00  0.00    +0.000 N 
ATOM      2  N   UNL     1       0.560   4.141  65.043  0.00  0.00    +0.000 NA
ATOM      3  C   UNL     1       2.036   5.818  64.687  0.00  0.00    +0.000 A 
ATOM      4  C   UNL     1       1.535   4.047  65.923  0.00  0.00    +0.000 A 
ATOM      5  C   UNL     1       0.860   5.237  64.270  0.00  0.00    +0.000 A 
ATOM      6  H   UNL     1       3.286   5.185  66.291  0.00  0.00    +0.000 HD
ENDROOT
BRANCH   3   9
ATOM      7 BR   UNL     1       7.399   8.427  60.554  0.00  0.00    +0.000 Br
ATOM      8  N   UNL     1       3.143   9.144  63.710  0.00  0.00    +0.000 N 
ATOM      9  C   UNL     1       2.710   7.008  64.130  0.00  0.00    +0.000 A 
ATOM     10  C   UNL     1       3.847   7.069  63.275  0.00  0.00    +0.000 A 
ATOM     11  C   UNL     1       4.096   8.423  63.029  0.00  0.00    +0.000 A 
ATOM     12  C   UNL     1       2.302   8.298  64.377  0.00  0.00    +0.000 A 
ATOM     13  C   UNL     1       4.696   6.114  62.682  0.00  0.00    +0.000 A 
ATOM     14  C   UNL     1       5.148   8.871  62.221  0.00  0.00    +0.000 A 
ATOM     15  C   UNL     1       5.750   6.537  61.873  0.00  0.00    +0.000 A 
ATOM     16  C   UNL     1       5.964   7.892  61.653  0.00  0.00    +0.000 A 
ATOM     17  H   UNL     1       3.072  10.153  63.718  0.00  0.00    +0.000 HD
ENDBRANCH   3   9
BRANCH   4  20
ATOM     18 BR   UNL     1       5.149  -1.728  68.392  0.00  0.00    +0.000 Br
ATOM     19  N   UNL     1       1.166   1.818  68.790  0.00  0.00    +0.000 N 
ATOM     20  C   UNL     1       1.633   3.002  66.972  0.00  0.00    +0.000 A 
ATOM     21  C   UNL     1       2.596   1.960  67.080  0.00  0.00    +0.000 A 
ATOM     22  C   UNL     1       2.279   1.232  68.229  0.00  0.00    +0.000 A 
ATOM     23  C   UNL     1       0.767   2.888  68.037  0.00  0.00    +0.000 A 
ATOM     24  C   UNL     1       3.709   1.561  66.314  0.00  0.00    +0.000 A 
ATOM     25  C   UNL     1       3.016   0.124  68.656  0.00  0.00    +0.000 A 
ATOM     26  C   UNL     1       4.459   0.456  66.722  0.00  0.00    +0.000 A 
ATOM     27  C   UNL     1       4.112  -0.241  67.871  0.00  0.00    +0.000 A 
ATOM     28  H   UNL     1       0.712   1.500  69.635  0.00  0.00    +0.000 HD
ENDBRANCH   4  20
TORSDOF 2
ENDMDL
MODEL 7
REMARK VINA RESULT:      -4.8      6.049     10.072
REMARK  Name = 179268_Nortopsentin.pdbqt.pdb
REMARK  2 active torsions:
REMARK  status: ('A' for Active; 'I' for Inactive)
REMARK    1  A    between atoms: C_3  and  C_9
REMARK    2  A    between atoms: C_4  and  C_20
REMARK                            x       y       z     vdW  Elec       q    Type
REMARK                         _______ _______ _______ _____ _____    ______ ____
ROOT
ATOM      1  N   UNL     1      14.448  11.440  55.964  0.00  0.00    +0.000 N 
ATOM      2  N   UNL     1      14.441  13.585  55.424  0.00  0.00    +0.000 NA
ATOM      3  C   UNL     1      15.636  11.667  55.326  0.00  0.00    +0.000 A 
ATOM      4  C   UNL     1      13.754  12.623  56.003  0.00  0.00    +0.000 A 
ATOM      5  C   UNL     1      15.611  13.004  54.999  0.00  0.00    +0.000 A 
ATOM      6  H   UNL     1      14.126  10.563  56.344  0.00  0.00    +0.000 HD
ENDROOT
BRANCH   3   9
ATOM      7 BR   UNL     1      21.328   7.964  57.881  0.00  0.00    +0.000 Br
ATOM      8  N   UNL     1      17.952   9.229  53.933  0.00  0.00    +0.000 N 
ATOM      9  C   UNL     1      16.704  10.684  55.052  0.00  0.00    +0.000 A 
ATOM     10  C   UNL     1      17.710  10.194  55.934  0.00  0.00    +0.000 A 
ATOM     11  C   UNL     1      18.478   9.283  55.203  0.00  0.00    +0.000 A 
ATOM     12  C   UNL     1      16.881  10.072  53.834  0.00  0.00    +0.000 A 
ATOM     13  C   UNL     1      18.050  10.430  57.280  0.00  0.00    +0.000 A 
ATOM     14  C   UNL     1      19.569   8.595  55.748  0.00  0.00    +0.000 A 
ATOM     15  C   UNL     1      19.133   9.755  57.845  0.00  0.00    +0.000 A 
ATOM     16  C   UNL     1      19.872   8.857  57.085  0.00  0.00    +0.000 A 
ATOM     17  H   UNL     1      18.304   8.652  53.182  0.00  0.00    +0.000 HD
ENDBRANCH   3   9
BRANCH   4  20
ATOM     18 BR   UNL     1       9.848  12.562  62.106  0.00  0.00    +0.000 Br
ATOM     19  N   UNL     1      10.234  13.163  56.806  0.00  0.00    +0.000 N 
ATOM     20  C   UNL     1      12.413  12.789  56.618  0.00  0.00    +0.000 A 
ATOM     21  C   UNL     1      12.064  12.678  57.992  0.00  0.00    +0.000 A 
ATOM     22  C   UNL     1      10.690  12.918  58.082  0.00  0.00    +0.000 A 
ATOM     23  C   UNL     1      11.268  13.087  55.913  0.00  0.00    +0.000 A 
ATOM     24  C   UNL     1      12.778  12.399  59.174  0.00  0.00    +0.000 A 
ATOM     25  C   UNL     1       9.991  12.893  59.292  0.00  0.00    +0.000 A 
ATOM     26  C   UNL     1      12.099  12.368  60.393  0.00  0.00    +0.000 A 
ATOM     27  C   UNL     1      10.732  12.612  60.440  0.00  0.00    +0.000 A 
ATOM     28  H   UNL     1       9.273  13.369  56.567  0.00  0.00    +0.000 HD
ENDBRANCH   4  20
TORSDOF 2
ENDMDL
MODEL 8
REMARK VINA RESULT:      -4.7     16.218     18.289
REMARK  Name = 179268_Nortopsentin.pdbqt.pdb
REMARK  2 active torsions:
REMARK  status: ('A' for Active; 'I' for Inactive)
REMARK    1  A    between atoms: C_3  and  C_9
REMARK    2  A    between atoms: C_4  and  C_20
REMARK                            x       y       z     vdW  Elec       q    Type
REMARK                         _______ _______ _______ _____ _____    ______ ____
ROOT
ATOM      1  N   UNL     1       5.915   3.282  76.861  0.00  0.00    +0.000 N 
ATOM      2  N   UNL     1       5.987   3.962  78.964  0.00  0.00    +0.000 NA
ATOM      3  C   UNL     1       7.083   2.787  77.371  0.00  0.00    +0.000 A 
ATOM      4  C   UNL     1       5.282   3.987  77.853  0.00  0.00    +0.000 A 
ATOM      5  C   UNL     1       7.108   3.221  78.678  0.00  0.00    +0.000 A 
ATOM      6  H   UNL     1       5.568   3.160  75.922  0.00  0.00    +0.000 HD
ENDROOT
BRANCH   3   9
ATOM      7 BR   UNL     1      13.716   2.436  74.451  0.00  0.00    +0.000 Br
ATOM      8  N   UNL     1       9.011   0.209  75.674  0.00  0.00    +0.000 N 
ATOM      9  C   UNL     1       8.089   1.968  76.666  0.00  0.00    +0.000 A 
ATOM     10  C   UNL     1       9.397   2.336  76.240  0.00  0.00    +0.000 A 
ATOM     11  C   UNL     1       9.951   1.212  75.620  0.00  0.00    +0.000 A 
ATOM     12  C   UNL     1       7.884   0.657  76.303  0.00  0.00    +0.000 A 
ATOM     13  C   UNL     1      10.171   3.510  76.315  0.00  0.00    +0.000 A 
ATOM     14  C   UNL     1      11.239   1.201  75.072  0.00  0.00    +0.000 A 
ATOM     15  C   UNL     1      11.458   3.522  75.776  0.00  0.00    +0.000 A 
ATOM     16  C   UNL     1      11.973   2.383  75.168  0.00  0.00    +0.000 A 
ATOM     17  H   UNL     1       9.133  -0.723  75.302  0.00  0.00    +0.000 HD
ENDBRANCH   3   9
BRANCH   4  20
ATOM     18 BR   UNL     1       1.474   8.928  74.167  0.00  0.00    +0.000 Br
ATOM     19  N   UNL     1       1.862   5.252  78.030  0.00  0.00    +0.000 N 
ATOM     20  C   UNL     1       3.978   4.678  77.691  0.00  0.00    +0.000 A 
ATOM     21  C   UNL     1       3.636   5.683  76.744  0.00  0.00    +0.000 A 
ATOM     22  C   UNL     1       2.302   6.025  76.980  0.00  0.00    +0.000 A 
ATOM     23  C   UNL     1       2.868   4.434  78.468  0.00  0.00    +0.000 A 
ATOM     24  C   UNL     1       4.327   6.339  75.706  0.00  0.00    +0.000 A 
ATOM     25  C   UNL     1       1.620   6.989  76.232  0.00  0.00    +0.000 A 
ATOM     26  C   UNL     1       3.664   7.306  74.947  0.00  0.00    +0.000 A 
ATOM     27  C   UNL     1       2.337   7.617  75.213  0.00  0.00    +0.000 A 
ATOM     28  H   UNL     1       0.929   5.286  78.420  0.00  0.00    +0.000 HD
ENDBRANCH   4  20
TORSDOF 2
ENDMDL
MODEL 9
REMARK VINA RESULT:      -4.6      5.473      9.890
REMARK  Name = 179268_Nortopsentin.pdbqt.pdb
REMARK  2 active torsions:
REMARK  status: ('A' for Active; 'I' for Inactive)
REMARK    1  A    between atoms: C_3  and  C_9
REMARK    2  A    between atoms: C_4  and  C_20
REMARK                            x       y       z     vdW  Elec       q    Type
REMARK                         _______ _______ _______ _____ _____    ______ ____
ROOT
ATOM      1  N   UNL     1      14.857  11.371  59.421  0.00  0.00    +0.000 N 
ATOM      2  N   UNL     1      15.016  13.429  60.218  0.00  0.00    +0.000 NA
ATOM      3  C   UNL     1      16.189  11.578  59.655  0.00  0.00    +0.000 A 
ATOM      4  C   UNL     1      14.182  12.512  59.774  0.00  0.00    +0.000 A 
ATOM      5  C   UNL     1      16.265  12.860  60.149  0.00  0.00    +0.000 A 
ATOM      6  H   UNL     1      14.432  10.533  59.055  0.00  0.00    +0.000 HD
ENDROOT
BRANCH   3   9
ATOM      7 BR   UNL     1      20.728   8.531  54.885  0.00  0.00    +0.000 Br
ATOM      8  N   UNL     1      18.853   9.108  59.859  0.00  0.00    +0.000 N 
ATOM      9  C   UNL     1      17.293  10.625  59.424  0.00  0.00    +0.000 A 
ATOM     10  C   UNL     1      17.951  10.305  58.202  0.00  0.00    +0.000 A 
ATOM     11  C   UNL     1      18.925   9.349  58.507  0.00  0.00    +0.000 A 
ATOM     12  C   UNL     1      17.871   9.874  60.420  0.00  0.00    +0.000 A 
ATOM     13  C   UNL     1      17.821  10.726  56.865  0.00  0.00    +0.000 A 
ATOM     14  C   UNL     1      19.776   8.793  57.544  0.00  0.00    +0.000 A 
ATOM     15  C   UNL     1      18.658  10.186  55.888  0.00  0.00    +0.000 A 
ATOM     16  C   UNL     1      19.614   9.239  56.231  0.00  0.00    +0.000 A 
ATOM     17  H   UNL     1      19.440   8.459  60.366  0.00  0.00    +0.000 HD
ENDBRANCH   3   9
BRANCH   4  20
ATOM     18 BR   UNL     1       7.962  13.706  63.295  0.00  0.00    +0.000 Br
ATOM     19  N   UNL     1      10.684  12.834  58.776  0.00  0.00    +0.000 N 
ATOM     20  C   UNL     1      12.711  12.684  59.668  0.00  0.00    +0.000 A 
ATOM     21  C   UNL     1      11.783  12.923  60.719  0.00  0.00    +0.000 A 
ATOM     22  C   UNL     1      10.519  13.013  60.130  0.00  0.00    +0.000 A 
ATOM     23  C   UNL     1      12.007  12.634  58.486  0.00  0.00    +0.000 A 
ATOM     24  C   UNL     1      11.889  13.074  62.115  0.00  0.00    +0.000 A 
ATOM     25  C   UNL     1       9.352  13.246  60.865  0.00  0.00    +0.000 A 
ATOM     26  C   UNL     1      10.736  13.307  62.868  0.00  0.00    +0.000 A 
ATOM     27  C   UNL     1       9.498  13.389  62.246  0.00  0.00    +0.000 A 
ATOM     28  H   UNL     1       9.936  12.849  58.096  0.00  0.00    +0.000 HD
ENDBRANCH   4  20
TORSDOF 2
ENDMDL
