REMARK  Name = 179268_Nortopsentin.pdbqt.pdb
REMARK  2 active torsions:
REMARK  status: ('A' for Active; 'I' for Inactive)
REMARK    1  A    between atoms: C_3  and  C_9
REMARK    2  A    between atoms: C_4  and  C_20
REMARK                            x       y       z     vdW  Elec       q    Type
REMARK                         _______ _______ _______ _____ _____    ______ ____
ROOT
ATOM      1  N   UNL     1      -0.315  -0.089  -0.076  0.00  0.00    +0.000 N 
ATOM      2  N   UNL     1       1.069  -1.814  -0.027  0.00  0.00    +0.000 NA
ATOM      3  C   UNL     1      -1.109  -1.202  -0.049  0.00  0.00    +0.000 A 
ATOM      4  C   UNL     1       0.994  -0.500  -0.062  0.00  0.00    +0.000 A 
ATOM      5  C   UNL     1      -0.230  -2.261  -0.019  0.00  0.00    +0.000 A 
ATOM      6  H   UNL     1      -0.623   0.871  -0.102  0.00  0.00    +0.000 HD
ENDROOT
BRANCH   3   9
ATOM      7 BR   UNL     1      -7.328   2.534  -0.164  0.00  0.00    +0.000 Br
ATOM      8  N   UNL     1      -4.639  -2.086  -0.036  0.00  0.00    +0.000 N 
ATOM      9  C   UNL     1      -2.585  -1.245  -0.052  0.00  0.00    +0.000 A 
ATOM     10  C   UNL     1      -3.507  -0.160  -0.083  0.00  0.00    +0.000 A 
ATOM     11  C   UNL     1      -4.789  -0.719  -0.072  0.00  0.00    +0.000 A 
ATOM     12  C   UNL     1      -3.312  -2.412  -0.024  0.00  0.00    +0.000 A 
ATOM     13  C   UNL     1      -3.388   1.243  -0.119  0.00  0.00    +0.000 A 
ATOM     14  C   UNL     1      -5.957   0.052  -0.095  0.00  0.00    +0.000 A 
ATOM     15  C   UNL     1      -4.539   2.031  -0.143  0.00  0.00    +0.000 A 
ATOM     16  C   UNL     1      -5.795   1.437  -0.131  0.00  0.00    +0.000 A 
ATOM     17  H   UNL     1      -5.398  -2.754  -0.021  0.00  0.00    +0.000 HD
ENDBRANCH   3   9
BRANCH   4  20
ATOM     18 BR   UNL     1       8.216   0.093  -0.057  0.00  0.00    +0.000 Br
ATOM     19  N   UNL     1       3.343   2.294  -0.128  0.00  0.00    +0.000 N 
ATOM     20  C   UNL     1       2.162   0.416  -0.082  0.00  0.00    +0.000 A 
ATOM     21  C   UNL     1       3.542   0.070  -0.069  0.00  0.00    +0.000 A 
ATOM     22  C   UNL     1       4.260   1.268  -0.098  0.00  0.00    +0.000 A 
ATOM     23  C   UNL     1       2.071   1.789  -0.118  0.00  0.00    +0.000 A 
ATOM     24  C   UNL     1       4.256  -1.144  -0.036  0.00  0.00    +0.000 A 
ATOM     25  C   UNL     1       5.657   1.318  -0.096  0.00  0.00    +0.000 A 
ATOM     26  C   UNL     1       5.652  -1.117  -0.032  0.00  0.00    +0.000 A 
ATOM     27  C   UNL     1       6.329   0.095  -0.062  0.00  0.00    +0.000 A 
ATOM     28  H   UNL     1       3.578   3.277  -0.153  0.00  0.00    +0.000 HD
ENDBRANCH   4  20
TORSDOF 2
