MODEL 1
REMARK VINA RESULT:      -3.0      0.000      0.000
REMARK  Name = 21574552_Mertensene.pdbqt.pdb
REMARK  1 active torsions:
REMARK  status: ('A' for Active; 'I' for Inactive)
REMARK    1  A    between atoms: C_4  and  C_13
REMARK                            x       y       z     vdW  Elec       q    Type
REMARK                         _______ _______ _______ _____ _____    ______ ____
ROOT
ATOM      1 BR   UNL     1       7.020   7.605  58.719  0.00  0.00    +0.000 Br
ATOM      2 CL   UNL     1       7.728   1.984  60.523  0.00  0.00    +0.000 Cl
ATOM      3 CL   UNL     1      10.080   3.110  58.331  0.00  0.00    +0.000 Cl
ATOM      4  C   UNL     1       5.708   4.953  59.139  0.00  0.00    +0.000 C 
ATOM      5  C   UNL     1       6.176   3.563  59.156  0.00  0.00    +0.000 C 
ATOM      6  C   UNL     1       7.327   2.690  58.939  0.00  0.00    +0.000 C 
ATOM      7  C   UNL     1       6.942   5.762  58.665  0.00  0.00    +0.000 C 
ATOM      8  C   UNL     1       8.450   3.615  58.448  0.00  0.00    +0.000 C 
ATOM      9  C   UNL     1       8.116   4.999  58.392  0.00  0.00    +0.000 C 
ATOM     10  C   UNL     1       4.565   5.116  58.113  0.00  0.00    +0.000 C 
ATOM     11  C   UNL     1       7.039   1.556  57.949  0.00  0.00    +0.000 C 
ENDROOT
BRANCH   4  13
ATOM     12 CL   UNL     1       4.533   6.237  63.205  0.00  0.00    +0.000 Cl
ATOM     13  C   UNL     1       5.310   5.379  60.490  0.00  0.00    +0.000 C 
ATOM     14  C   UNL     1       4.989   5.728  61.593  0.00  0.00    +0.000 C 
ENDBRANCH   4  13
TORSDOF 1
ENDMDL
MODEL 2
REMARK VINA RESULT:      -3.0     12.354     13.705
REMARK  Name = 21574552_Mertensene.pdbqt.pdb
REMARK  1 active torsions:
REMARK  status: ('A' for Active; 'I' for Inactive)
REMARK    1  A    between atoms: C_4  and  C_13
REMARK                            x       y       z     vdW  Elec       q    Type
REMARK                         _______ _______ _______ _____ _____    ______ ____
ROOT
ATOM      1 BR   UNL     1      18.935  12.404  61.836  0.00  0.00    +0.000 Br
ATOM      2 CL   UNL     1      20.170   8.491  57.532  0.00  0.00    +0.000 Cl
ATOM      3 CL   UNL     1      20.646  11.760  56.700  0.00  0.00    +0.000 Cl
ATOM      4  C   UNL     1      17.987  10.015  60.312  0.00  0.00    +0.000 C 
ATOM      5  C   UNL     1      18.239   9.482  58.968  0.00  0.00    +0.000 C 
ATOM      6  C   UNL     1      18.905   9.734  57.693  0.00  0.00    +0.000 C 
ATOM      7  C   UNL     1      18.689  11.396  60.309  0.00  0.00    +0.000 C 
ATOM      8  C   UNL     1      19.521  11.133  57.826  0.00  0.00    +0.000 C 
ATOM      9  C   UNL     1      19.344  11.757  59.096  0.00  0.00    +0.000 C 
ATOM     10  C   UNL     1      16.470  10.212  60.529  0.00  0.00    +0.000 C 
ATOM     11  C   UNL     1      17.956   9.632  56.494  0.00  0.00    +0.000 C 
ENDROOT
BRANCH   4  13
ATOM     12 CL   UNL     1      19.802   7.382  63.367  0.00  0.00    +0.000 Cl
ATOM     13  C   UNL     1      18.587   9.142  61.334  0.00  0.00    +0.000 C 
ATOM     14  C   UNL     1      19.079   8.429  62.165  0.00  0.00    +0.000 C 
ENDBRANCH   4  13
TORSDOF 1
ENDMDL
MODEL 3
REMARK VINA RESULT:      -2.9     12.845     14.197
REMARK  Name = 21574552_Mertensene.pdbqt.pdb
REMARK  1 active torsions:
REMARK  status: ('A' for Active; 'I' for Inactive)
REMARK    1  A    between atoms: C_4  and  C_13
REMARK                            x       y       z     vdW  Elec       q    Type
REMARK                         _______ _______ _______ _____ _____    ______ ____
ROOT
ATOM      1 BR   UNL     1      17.610   0.414  49.854  0.00  0.00    +0.000 Br
ATOM      2 CL   UNL     1      20.435   1.307  55.009  0.00  0.00    +0.000 Cl
ATOM      3 CL   UNL     1      20.852  -1.786  53.645  0.00  0.00    +0.000 Cl
ATOM      4  C   UNL     1      17.385   1.405  52.664  0.00  0.00    +0.000 C 
ATOM      5  C   UNL     1      18.080   1.106  53.921  0.00  0.00    +0.000 C 
ATOM      6  C   UNL     1      19.077   0.249  54.557  0.00  0.00    +0.000 C 
ATOM      7  C   UNL     1      17.930   0.348  51.671  0.00  0.00    +0.000 C 
ATOM      8  C   UNL     1      19.498  -0.755  53.475  0.00  0.00    +0.000 C 
ATOM      9  C   UNL     1      18.889  -0.565  52.200  0.00  0.00    +0.000 C 
ATOM     10  C   UNL     1      15.863   1.206  52.839  0.00  0.00    +0.000 C 
ATOM     11  C   UNL     1      18.551  -0.447  55.817  0.00  0.00    +0.000 C 
ENDROOT
BRANCH   4  13
ATOM     12 CL   UNL     1      18.407   5.469  51.251  0.00  0.00    +0.000 Cl
ATOM     13  C   UNL     1      17.720   2.760  52.199  0.00  0.00    +0.000 C 
ATOM     14  C   UNL     1      17.996   3.864  51.817  0.00  0.00    +0.000 C 
ENDBRANCH   4  13
TORSDOF 1
ENDMDL
MODEL 4
REMARK VINA RESULT:      -2.9     12.758     13.854
REMARK  Name = 21574552_Mertensene.pdbqt.pdb
REMARK  1 active torsions:
REMARK  status: ('A' for Active; 'I' for Inactive)
REMARK    1  A    between atoms: C_4  and  C_13
REMARK                            x       y       z     vdW  Elec       q    Type
REMARK                         _______ _______ _______ _____ _____    ______ ____
ROOT
ATOM      1 BR   UNL     1      20.451  -2.096  53.657  0.00  0.00    +0.000 Br
ATOM      2 CL   UNL     1      15.109   0.505  53.409  0.00  0.00    +0.000 Cl
ATOM      3 CL   UNL     1      16.374  -0.499  50.410  0.00  0.00    +0.000 Cl
ATOM      4  C   UNL     1      18.788   0.237  54.507  0.00  0.00    +0.000 C 
ATOM      5  C   UNL     1      17.619   0.927  53.951  0.00  0.00    +0.000 C 
ATOM      6  C   UNL     1      16.711   1.001  52.810  0.00  0.00    +0.000 C 
ATOM      7  C   UNL     1      19.201  -0.763  53.398  0.00  0.00    +0.000 C 
ATOM      8  C   UNL     1      17.255  -0.010  51.791  0.00  0.00    +0.000 C 
ATOM      9  C   UNL     1      18.396  -0.750  52.221  0.00  0.00    +0.000 C 
ATOM     10  C   UNL     1      19.937   1.244  54.741  0.00  0.00    +0.000 C 
ATOM     11  C   UNL     1      16.603   2.412  52.221  0.00  0.00    +0.000 C 
ENDROOT
BRANCH   4  13
ATOM     12 CL   UNL     1      17.681  -1.923  58.204  0.00  0.00    +0.000 Cl
ATOM     13  C   UNL     1      18.424  -0.487  55.735  0.00  0.00    +0.000 C 
ATOM     14  C   UNL     1      18.124  -1.075  56.737  0.00  0.00    +0.000 C 
ENDBRANCH   4  13
TORSDOF 1
ENDMDL
MODEL 5
REMARK VINA RESULT:      -2.8     13.587     14.659
REMARK  Name = 21574552_Mertensene.pdbqt.pdb
REMARK  1 active torsions:
REMARK  status: ('A' for Active; 'I' for Inactive)
REMARK    1  A    between atoms: C_4  and  C_13
REMARK                            x       y       z     vdW  Elec       q    Type
REMARK                         _______ _______ _______ _____ _____    ______ ____
ROOT
ATOM      1 BR   UNL     1      15.708   3.954  68.821  0.00  0.00    +0.000 Br
ATOM      2 CL   UNL     1      13.198   8.811  71.159  0.00  0.00    +0.000 Cl
ATOM      3 CL   UNL     1      13.835   8.974  67.817  0.00  0.00    +0.000 Cl
ATOM      4  C   UNL     1      15.789   5.968  71.027  0.00  0.00    +0.000 C 
ATOM      5  C   UNL     1      15.361   7.364  71.164  0.00  0.00    +0.000 C 
ATOM      6  C   UNL     1      14.807   8.515  70.457  0.00  0.00    +0.000 C 
ATOM      7  C   UNL     1      15.590   5.657  69.522  0.00  0.00    +0.000 C 
ATOM      8  C   UNL     1      14.695   8.075  68.990  0.00  0.00    +0.000 C 
ATOM      9  C   UNL     1      15.081   6.728  68.730  0.00  0.00    +0.000 C 
ATOM     10  C   UNL     1      17.286   5.834  71.383  0.00  0.00    +0.000 C 
ATOM     11  C   UNL     1      15.656   9.781  70.617  0.00  0.00    +0.000 C 
ENDROOT
BRANCH   4  13
ATOM     12 CL   UNL     1      13.222   3.330  73.480  0.00  0.00    +0.000 Cl
ATOM     13  C   UNL     1      14.941   5.086  71.845  0.00  0.00    +0.000 C 
ATOM     14  C   UNL     1      14.246   4.369  72.511  0.00  0.00    +0.000 C 
ENDBRANCH   4  13
TORSDOF 1
ENDMDL
MODEL 6
REMARK VINA RESULT:      -2.8     14.666     16.008
REMARK  Name = 21574552_Mertensene.pdbqt.pdb
REMARK  1 active torsions:
REMARK  status: ('A' for Active; 'I' for Inactive)
REMARK    1  A    between atoms: C_4  and  C_13
REMARK                            x       y       z     vdW  Elec       q    Type
REMARK                         _______ _______ _______ _____ _____    ______ ____
ROOT
ATOM      1 BR   UNL     1      14.487   3.200  70.595  0.00  0.00    +0.000 Br
ATOM      2 CL   UNL     1      10.830   2.350  75.206  0.00  0.00    +0.000 Cl
ATOM      3 CL   UNL     1      12.330   5.406  75.090  0.00  0.00    +0.000 Cl
ATOM      4  C   UNL     1      13.701   1.382  72.833  0.00  0.00    +0.000 C 
ATOM      5  C   UNL     1      13.077   1.575  74.147  0.00  0.00    +0.000 C 
ATOM      6  C   UNL     1      12.594   2.568  75.102  0.00  0.00    +0.000 C 
ATOM      7  C   UNL     1      13.963   2.822  72.324  0.00  0.00    +0.000 C 
ATOM      8  C   UNL     1      12.945   3.929  74.485  0.00  0.00    +0.000 C 
ATOM      9  C   UNL     1      13.558   3.873  73.199  0.00  0.00    +0.000 C 
ATOM     10  C   UNL     1      15.049   0.643  72.990  0.00  0.00    +0.000 C 
ATOM     11  C   UNL     1      13.197   2.396  76.500  0.00  0.00    +0.000 C 
ENDROOT
BRANCH   4  13
ATOM     12 CL   UNL     1      10.932  -0.738  70.114  0.00  0.00    +0.000 Cl
ATOM     13  C   UNL     1      12.783   0.681  71.923  0.00  0.00    +0.000 C 
ATOM     14  C   UNL     1      12.032   0.106  71.183  0.00  0.00    +0.000 C 
ENDBRANCH   4  13
TORSDOF 1
ENDMDL
MODEL 7
REMARK VINA RESULT:      -2.7     10.125     11.968
REMARK  Name = 21574552_Mertensene.pdbqt.pdb
REMARK  1 active torsions:
REMARK  status: ('A' for Active; 'I' for Inactive)
REMARK    1  A    between atoms: C_4  and  C_13
REMARK                            x       y       z     vdW  Elec       q    Type
REMARK                         _______ _______ _______ _____ _____    ______ ____
ROOT
ATOM      1 BR   UNL     1      -0.845   9.882  70.658  0.00  0.00    +0.000 Br
ATOM      2 CL   UNL     1       1.581   7.503  65.779  0.00  0.00    +0.000 Cl
ATOM      3 CL   UNL     1      -1.224   5.939  66.913  0.00  0.00    +0.000 Cl
ATOM      4  C   UNL     1       1.666   8.910  69.360  0.00  0.00    +0.000 C 
ATOM      5  C   UNL     1       1.972   7.925  68.317  0.00  0.00    +0.000 C 
ATOM      6  C   UNL     1       1.407   6.899  67.444  0.00  0.00    +0.000 C 
ATOM      7  C   UNL     1       0.152   8.718  69.629  0.00  0.00    +0.000 C 
ATOM      8  C   UNL     1      -0.073   6.798  67.841  0.00  0.00    +0.000 C 
ATOM      9  C   UNL     1      -0.494   7.713  68.850  0.00  0.00    +0.000 C 
ATOM     10  C   UNL     1       2.458   8.586  70.646  0.00  0.00    +0.000 C 
ATOM     11  C   UNL     1       2.129   5.552  67.561  0.00  0.00    +0.000 C 
ENDROOT
BRANCH   4  13
ATOM     12 CL   UNL     1       2.464  13.003  67.885  0.00  0.00    +0.000 Cl
ATOM     13  C   UNL     1       1.926  10.274  68.874  0.00  0.00    +0.000 C 
ATOM     14  C   UNL     1       2.141  11.386  68.475  0.00  0.00    +0.000 C 
ENDBRANCH   4  13
TORSDOF 1
ENDMDL
MODEL 8
REMARK VINA RESULT:      -2.6     11.891     13.723
REMARK  Name = 21574552_Mertensene.pdbqt.pdb
REMARK  1 active torsions:
REMARK  status: ('A' for Active; 'I' for Inactive)
REMARK    1  A    between atoms: C_4  and  C_13
REMARK                            x       y       z     vdW  Elec       q    Type
REMARK                         _______ _______ _______ _____ _____    ______ ____
ROOT
ATOM      1 BR   UNL     1      20.706  11.484  60.472  0.00  0.00    +0.000 Br
ATOM      2 CL   UNL     1      15.181  12.344  58.448  0.00  0.00    +0.000 Cl
ATOM      3 CL   UNL     1      16.374  14.793  60.494  0.00  0.00    +0.000 Cl
ATOM      4  C   UNL     1      17.999  10.283  60.068  0.00  0.00    +0.000 C 
ATOM      5  C   UNL     1      16.637  10.820  59.974  0.00  0.00    +0.000 C 
ATOM      6  C   UNL     1      15.823  12.027  60.078  0.00  0.00    +0.000 C 
ATOM      7  C   UNL     1      18.860  11.505  60.475  0.00  0.00    +0.000 C 
ATOM      8  C   UNL     1      16.793  13.135  60.513  0.00  0.00    +0.000 C 
ATOM      9  C   UNL     1      18.155  12.734  60.637  0.00  0.00    +0.000 C 
ATOM     10  C   UNL     1      18.073   9.213  61.180  0.00  0.00    +0.000 C 
ATOM     11  C   UNL     1      14.648  11.874  61.051  0.00  0.00    +0.000 C 
ENDROOT
BRANCH   4  13
ATOM     12 CL   UNL     1      19.338   8.706  56.159  0.00  0.00    +0.000 Cl
ATOM     13  C   UNL     1      18.440   9.763  58.764  0.00  0.00    +0.000 C 
ATOM     14  C   UNL     1      18.801   9.336  57.702  0.00  0.00    +0.000 C 
ENDBRANCH   4  13
TORSDOF 1
ENDMDL
MODEL 9
REMARK VINA RESULT:      -2.6      3.726      4.682
REMARK  Name = 21574552_Mertensene.pdbqt.pdb
REMARK  1 active torsions:
REMARK  status: ('A' for Active; 'I' for Inactive)
REMARK    1  A    between atoms: C_4  and  C_13
REMARK                            x       y       z     vdW  Elec       q    Type
REMARK                         _______ _______ _______ _____ _____    ______ ____
ROOT
ATOM      1 BR   UNL     1       6.250   3.792  59.512  0.00  0.00    +0.000 Br
ATOM      2 CL   UNL     1       5.556   7.977  55.346  0.00  0.00    +0.000 Cl
ATOM      3 CL   UNL     1       4.282   4.919  54.555  0.00  0.00    +0.000 Cl
ATOM      4  C   UNL     1       7.575   5.940  57.912  0.00  0.00    +0.000 C 
ATOM      5  C   UNL     1       7.332   6.545  56.598  0.00  0.00    +0.000 C 
ATOM      6  C   UNL     1       6.517   6.479  55.388  0.00  0.00    +0.000 C 
ATOM      7  C   UNL     1       6.582   4.752  57.971  0.00  0.00    +0.000 C 
ATOM      8  C   UNL     1       5.614   5.251  55.574  0.00  0.00    +0.000 C 
ATOM      9  C   UNL     1       5.757   4.576  56.821  0.00  0.00    +0.000 C 
ATOM     10  C   UNL     1       9.022   5.402  57.989  0.00  0.00    +0.000 C 
ATOM     11  C   UNL     1       7.354   6.391  54.107  0.00  0.00    +0.000 C 
ENDROOT
BRANCH   4  13
ATOM     12 CL   UNL     1       6.708   8.824  61.151  0.00  0.00    +0.000 Cl
ATOM     13  C   UNL     1       7.281   6.902  58.986  0.00  0.00    +0.000 C 
ATOM     14  C   UNL     1       7.044   7.686  59.863  0.00  0.00    +0.000 C 
ENDBRANCH   4  13
TORSDOF 1
ENDMDL
