MODEL 1
REMARK VINA RESULT:      -5.9      0.000      0.000
REMARK  Name = 222284_BetaSitosterol.pdbqt.pdb
REMARK  5 active torsions:
REMARK  status: ('A' for Active; 'I' for Inactive)
REMARK    1  A    between atoms: C_5  and  C_22
REMARK    2  A    between atoms: C_19  and  O_20
REMARK    3  A    between atoms: C_22  and  C_24
REMARK    4  A    between atoms: C_25  and  C_26
REMARK    5  A    between atoms: C_26  and  C_30
REMARK                            x       y       z     vdW  Elec       q    Type
REMARK                         _______ _______ _______ _____ _____    ______ ____
ROOT
ATOM      1  C   UNL     1      11.458  13.506  60.008  0.00  0.00    +0.000 C 
ATOM      2  C   UNL     1      12.489  13.443  58.770  0.00  0.00    +0.000 C 
ATOM      3  C   UNL     1      13.904  13.057  58.947  0.00  0.00    +0.000 C 
ATOM      4  C   UNL     1      14.498  12.412  60.174  0.00  0.00    +0.000 C 
ATOM      5  C   UNL     1      10.193  12.869  59.455  0.00  0.00    +0.000 C 
ATOM      6  C   UNL     1      12.094  12.727  61.073  0.00  0.00    +0.000 C 
ATOM      7  C   UNL     1      16.011  12.097  60.336  0.00  0.00    +0.000 C 
ATOM      8  C   UNL     1      11.757  12.967  57.637  0.00  0.00    +0.000 C 
ATOM      9  C   UNL     1      13.513  12.227  61.182  0.00  0.00    +0.000 C 
ATOM     10  C   UNL     1      10.369  12.579  58.071  0.00  0.00    +0.000 C 
ATOM     11  C   UNL     1      14.827  13.150  57.877  0.00  0.00    +0.000 C 
ATOM     12  C   UNL     1      11.231  14.995  60.373  0.00  0.00    +0.000 C 
ATOM     13  C   UNL     1      16.854  12.107  58.915  0.00  0.00    +0.000 C 
ATOM     14  C   UNL     1      16.197  10.711  60.854  0.00  0.00    +0.000 C 
ATOM     15  C   UNL     1      16.247  12.672  57.916  0.00  0.00    +0.000 C 
ATOM     16  C   UNL     1      16.656  13.170  61.260  0.00  0.00    +0.000 C 
ATOM     17  C   UNL     1      17.625  10.915  58.645  0.00  0.00    +0.000 C 
ATOM     18  C   UNL     1      17.027   9.497  60.401  0.00  0.00    +0.000 C 
ATOM     19  C   UNL     1      17.818   9.620  59.221  0.00  0.00    +0.000 C 
ENDROOT
BRANCH  19  20
ATOM     20  O   UNL     1      18.984   8.927  59.072  0.00  0.00    +0.000 OA
ATOM     21  H   UNL     1      19.292   8.562  59.919  0.00  0.00    +0.000 HD
ENDBRANCH  19  20
BRANCH   5  22
ATOM     22  C   UNL     1       9.031  12.556  60.227  0.00  0.00    +0.000 C 
ATOM     23  C   UNL     1       8.286  13.597  61.023  0.00  0.00    +0.000 C 
BRANCH  22  24
ATOM     24  C   UNL     1       8.487  11.244  60.279  0.00  0.00    +0.000 C 
ATOM     25  C   UNL     1       7.880   9.836  60.355  0.00  0.00    +0.000 C 
BRANCH  25  26
ATOM     26  C   UNL     1       7.314   8.527  60.445  0.00  0.00    +0.000 C 
ATOM     27  C   UNL     1       6.400   8.192  61.515  0.00  0.00    +0.000 C 
ATOM     28  C   UNL     1       5.983   9.197  62.573  0.00  0.00    +0.000 C 
ATOM     29  C   UNL     1       5.799   6.817  61.702  0.00  0.00    +0.000 C 
BRANCH  26  30
ATOM     30  C   UNL     1       7.642   7.545  59.473  0.00  0.00    +0.000 C 
ATOM     31  C   UNL     1       7.963   6.450  58.449  0.00  0.00    +0.000 C 
ENDBRANCH  26  30
ENDBRANCH  25  26
ENDBRANCH  22  24
ENDBRANCH   5  22
TORSDOF 5
ENDMDL
MODEL 2
REMARK VINA RESULT:      -5.8      7.378     11.102
REMARK  Name = 222284_BetaSitosterol.pdbqt.pdb
REMARK  5 active torsions:
REMARK  status: ('A' for Active; 'I' for Inactive)
REMARK    1  A    between atoms: C_5  and  C_22
REMARK    2  A    between atoms: C_19  and  O_20
REMARK    3  A    between atoms: C_22  and  C_24
REMARK    4  A    between atoms: C_25  and  C_26
REMARK    5  A    between atoms: C_26  and  C_30
REMARK                            x       y       z     vdW  Elec       q    Type
REMARK                         _______ _______ _______ _____ _____    ______ ____
ROOT
ATOM      1  C   UNL     1       4.152   2.462  61.401  0.00  0.00    +0.000 C 
ATOM      2  C   UNL     1       5.618   1.803  61.273  0.00  0.00    +0.000 C 
ATOM      3  C   UNL     1       6.564   2.195  60.209  0.00  0.00    +0.000 C 
ATOM      4  C   UNL     1       6.440   3.404  59.316  0.00  0.00    +0.000 C 
ATOM      5  C   UNL     1       3.996   2.706  62.894  0.00  0.00    +0.000 C 
ATOM      6  C   UNL     1       4.217   3.691  60.607  0.00  0.00    +0.000 C 
ATOM      7  C   UNL     1       7.424   3.726  58.159  0.00  0.00    +0.000 C 
ATOM      8  C   UNL     1       6.095   1.579  62.604  0.00  0.00    +0.000 C 
ATOM      9  C   UNL     1       5.259   4.139  59.612  0.00  0.00    +0.000 C 
ATOM     10  C   UNL     1       5.120   2.170  63.586  0.00  0.00    +0.000 C 
ATOM     11  C   UNL     1       7.786   1.502  60.024  0.00  0.00    +0.000 C 
ATOM     12  C   UNL     1       3.113   1.435  60.881  0.00  0.00    +0.000 C 
ATOM     13  C   UNL     1       8.857   2.909  58.250  0.00  0.00    +0.000 C 
ATOM     14  C   UNL     1       7.827   5.162  58.208  0.00  0.00    +0.000 C 
ATOM     15  C   UNL     1       8.864   1.894  59.059  0.00  0.00    +0.000 C 
ATOM     16  C   UNL     1       6.761   3.341  56.805  0.00  0.00    +0.000 C 
ATOM     17  C   UNL     1      10.044   3.731  58.195  0.00  0.00    +0.000 C 
ATOM     18  C   UNL     1       9.177   5.900  58.212  0.00  0.00    +0.000 C 
ATOM     19  C   UNL     1      10.373   5.124  58.178  0.00  0.00    +0.000 C 
ENDROOT
BRANCH  19  20
ATOM     20  O   UNL     1      11.508   5.593  57.583  0.00  0.00    +0.000 OA
ATOM     21  H   UNL     1      12.195   4.907  57.538  0.00  0.00    +0.000 HD
ENDBRANCH  19  20
BRANCH   5  22
ATOM     22  C   UNL     1       2.912   3.418  63.496  0.00  0.00    +0.000 C 
ATOM     23  C   UNL     1       1.694   2.722  64.047  0.00  0.00    +0.000 C 
BRANCH  22  24
ATOM     24  C   UNL     1       2.920   4.833  63.635  0.00  0.00    +0.000 C 
ATOM     25  C   UNL     1       2.932   6.364  63.756  0.00  0.00    +0.000 C 
BRANCH  25  26
ATOM     26  C   UNL     1       2.958   7.788  63.857  0.00  0.00    +0.000 C 
ATOM     27  C   UNL     1       3.956   8.558  63.146  0.00  0.00    +0.000 C 
ATOM     28  C   UNL     1       5.000   7.911  62.254  0.00  0.00    +0.000 C 
ATOM     29  C   UNL     1       4.075  10.063  63.241  0.00  0.00    +0.000 C 
BRANCH  26  30
ATOM     30  C   UNL     1       1.994   8.460  64.654  0.00  0.00    +0.000 C 
ATOM     31  C   UNL     1       0.919   9.145  65.505  0.00  0.00    +0.000 C 
ENDBRANCH  26  30
ENDBRANCH  25  26
ENDBRANCH  22  24
ENDBRANCH   5  22
TORSDOF 5
ENDMDL
MODEL 3
REMARK VINA RESULT:      -5.7     15.014     17.613
REMARK  Name = 222284_BetaSitosterol.pdbqt.pdb
REMARK  5 active torsions:
REMARK  status: ('A' for Active; 'I' for Inactive)
REMARK    1  A    between atoms: C_5  and  C_22
REMARK    2  A    between atoms: C_19  and  O_20
REMARK    3  A    between atoms: C_22  and  C_24
REMARK    4  A    between atoms: C_25  and  C_26
REMARK    5  A    between atoms: C_26  and  C_30
REMARK                            x       y       z     vdW  Elec       q    Type
REMARK                         _______ _______ _______ _____ _____    ______ ____
ROOT
ATOM      1  C   UNL     1      13.417   1.266  73.570  0.00  0.00    +0.000 C 
ATOM      2  C   UNL     1      13.734   1.133  71.995  0.00  0.00    +0.000 C 
ATOM      3  C   UNL     1      12.972   0.223  71.116  0.00  0.00    +0.000 C 
ATOM      4  C   UNL     1      11.670  -0.457  71.460  0.00  0.00    +0.000 C 
ATOM      5  C   UNL     1      13.486   2.763  73.827  0.00  0.00    +0.000 C 
ATOM      6  C   UNL     1      12.077   0.700  73.738  0.00  0.00    +0.000 C 
ATOM      7  C   UNL     1      10.952  -1.467  70.526  0.00  0.00    +0.000 C 
ATOM      8  C   UNL     1      14.096   2.437  71.528  0.00  0.00    +0.000 C 
ATOM      9  C   UNL     1      11.254  -0.125  72.779  0.00  0.00    +0.000 C 
ATOM     10  C   UNL     1      13.903   3.432  72.640  0.00  0.00    +0.000 C 
ATOM     11  C   UNL     1      13.360   0.011  69.770  0.00  0.00    +0.000 C 
ATOM     12  C   UNL     1      14.519   0.504  74.351  0.00  0.00    +0.000 C 
ATOM     13  C   UNL     1      11.467  -1.414  68.957  0.00  0.00    +0.000 C 
ATOM     14  C   UNL     1       9.497  -1.144  70.436  0.00  0.00    +0.000 C 
ATOM     15  C   UNL     1      12.590  -0.792  68.765  0.00  0.00    +0.000 C 
ATOM     16  C   UNL     1      11.209  -2.911  71.045  0.00  0.00    +0.000 C 
ATOM     17  C   UNL     1      10.427  -1.241  67.969  0.00  0.00    +0.000 C 
ATOM     18  C   UNL     1       8.517  -0.917  69.273  0.00  0.00    +0.000 C 
ATOM     19  C   UNL     1       9.018  -0.996  67.940  0.00  0.00    +0.000 C 
ENDROOT
BRANCH  19  20
ATOM     20  O   UNL     1       8.230  -1.418  66.909  0.00  0.00    +0.000 OA
ATOM     21  H   UNL     1       7.609  -0.725  66.628  0.00  0.00    +0.000 HD
ENDBRANCH  19  20
BRANCH   5  22
ATOM     22  C   UNL     1      13.128   3.399  75.056  0.00  0.00    +0.000 C 
ATOM     23  C   UNL     1      14.123   4.170  75.887  0.00  0.00    +0.000 C 
BRANCH  22  24
ATOM     24  C   UNL     1      11.803   3.364  75.569  0.00  0.00    +0.000 C 
ATOM     25  C   UNL     1      10.379   3.305  76.141  0.00  0.00    +0.000 C 
BRANCH  25  26
ATOM     26  C   UNL     1       9.056   3.230  76.672  0.00  0.00    +0.000 C 
ATOM     27  C   UNL     1       8.309   1.992  76.618  0.00  0.00    +0.000 C 
ATOM     28  C   UNL     1       8.885   0.721  76.023  0.00  0.00    +0.000 C 
ATOM     29  C   UNL     1       6.888   1.850  77.117  0.00  0.00    +0.000 C 
BRANCH  26  30
ATOM     30  C   UNL     1       8.465   4.377  77.267  0.00  0.00    +0.000 C 
ATOM     31  C   UNL     1       7.793   5.618  77.866  0.00  0.00    +0.000 C 
ENDBRANCH  26  30
ENDBRANCH  25  26
ENDBRANCH  22  24
ENDBRANCH   5  22
TORSDOF 5
ENDMDL
MODEL 4
REMARK VINA RESULT:      -5.7     14.831     18.609
REMARK  Name = 222284_BetaSitosterol.pdbqt.pdb
REMARK  5 active torsions:
REMARK  status: ('A' for Active; 'I' for Inactive)
REMARK    1  A    between atoms: C_5  and  C_22
REMARK    2  A    between atoms: C_19  and  O_20
REMARK    3  A    between atoms: C_22  and  C_24
REMARK    4  A    between atoms: C_25  and  C_26
REMARK    5  A    between atoms: C_26  and  C_30
REMARK                            x       y       z     vdW  Elec       q    Type
REMARK                         _______ _______ _______ _____ _____    ______ ____
ROOT
ATOM      1  C   UNL     1      12.553   4.145  76.204  0.00  0.00    +0.000 C 
ATOM      2  C   UNL     1      11.449   2.977  76.065  0.00  0.00    +0.000 C 
ATOM      3  C   UNL     1      10.060   3.151  76.536  0.00  0.00    +0.000 C 
ATOM      4  C   UNL     1       9.413   4.458  76.920  0.00  0.00    +0.000 C 
ATOM      5  C   UNL     1      13.277   4.116  74.868  0.00  0.00    +0.000 C 
ATOM      6  C   UNL     1      11.784   5.370  76.432  0.00  0.00    +0.000 C 
ATOM      7  C   UNL     1       7.970   4.573  77.484  0.00  0.00    +0.000 C 
ATOM      8  C   UNL     1      11.703   2.305  74.828  0.00  0.00    +0.000 C 
ATOM      9  C   UNL     1      10.327   5.539  76.790  0.00  0.00    +0.000 C 
ATOM     10  C   UNL     1      12.792   3.031  74.084  0.00  0.00    +0.000 C 
ATOM     11  C   UNL     1       9.148   2.067  76.540  0.00  0.00    +0.000 C 
ATOM     12  C   UNL     1      13.502   3.776  77.373  0.00  0.00    +0.000 C 
ATOM     13  C   UNL     1       7.039   3.234  77.222  0.00  0.00    +0.000 C 
ATOM     14  C   UNL     1       7.230   5.667  76.789  0.00  0.00    +0.000 C 
ATOM     15  C   UNL     1       7.691   2.165  76.880  0.00  0.00    +0.000 C 
ATOM     16  C   UNL     1       8.043   4.788  79.023  0.00  0.00    +0.000 C 
ATOM     17  C   UNL     1       5.769   3.479  76.578  0.00  0.00    +0.000 C 
ATOM     18  C   UNL     1       5.872   5.756  76.071  0.00  0.00    +0.000 C 
ATOM     19  C   UNL     1       5.074   4.578  75.981  0.00  0.00    +0.000 C 
ENDROOT
BRANCH  19  20
ATOM     20  O   UNL     1       3.711   4.645  75.953  0.00  0.00    +0.000 OA
ATOM     21  H   UNL     1       3.338   4.025  75.305  0.00  0.00    +0.000 HD
ENDBRANCH  19  20
BRANCH   5  22
ATOM     22  C   UNL     1      14.253   5.073  74.446  0.00  0.00    +0.000 C 
ATOM     23  C   UNL     1      15.717   4.935  74.779  0.00  0.00    +0.000 C 
BRANCH  22  24
ATOM     24  C   UNL     1      13.910   6.211  73.667  0.00  0.00    +0.000 C 
ATOM     25  C   UNL     1      13.513   7.430  72.821  0.00  0.00    +0.000 C 
BRANCH  25  26
ATOM     26  C   UNL     1      13.136   8.552  72.022  0.00  0.00    +0.000 C 
ATOM     27  C   UNL     1      13.897   8.905  70.843  0.00  0.00    +0.000 C 
ATOM     28  C   UNL     1      15.106   8.109  70.387  0.00  0.00    +0.000 C 
ATOM     29  C   UNL     1      13.587  10.104  69.975  0.00  0.00    +0.000 C 
BRANCH  26  30
ATOM     30  C   UNL     1      11.999   9.325  72.377  0.00  0.00    +0.000 C 
ATOM     31  C   UNL     1      10.746  10.140  72.718  0.00  0.00    +0.000 C 
ENDBRANCH  26  30
ENDBRANCH  25  26
ENDBRANCH  22  24
ENDBRANCH   5  22
TORSDOF 5
ENDMDL
MODEL 5
REMARK VINA RESULT:      -5.7     15.193     19.318
REMARK  Name = 222284_BetaSitosterol.pdbqt.pdb
REMARK  5 active torsions:
REMARK  status: ('A' for Active; 'I' for Inactive)
REMARK    1  A    between atoms: C_5  and  C_22
REMARK    2  A    between atoms: C_19  and  O_20
REMARK    3  A    between atoms: C_22  and  C_24
REMARK    4  A    between atoms: C_25  and  C_26
REMARK    5  A    between atoms: C_26  and  C_30
REMARK                            x       y       z     vdW  Elec       q    Type
REMARK                         _______ _______ _______ _____ _____    ______ ____
ROOT
ATOM      1  C   UNL     1      11.222  -0.541  74.011  0.00  0.00    +0.000 C 
ATOM      2  C   UNL     1       9.707  -0.775  74.512  0.00  0.00    +0.000 C 
ATOM      3  C   UNL     1       9.084   0.074  75.548  0.00  0.00    +0.000 C 
ATOM      4  C   UNL     1       9.618   1.391  76.052  0.00  0.00    +0.000 C 
ATOM      5  C   UNL     1      11.130  -0.700  72.501  0.00  0.00    +0.000 C 
ATOM      6  C   UNL     1      11.559   0.818  74.441  0.00  0.00    +0.000 C 
ATOM      7  C   UNL     1       8.962   2.205  77.200  0.00  0.00    +0.000 C 
ATOM      8  C   UNL     1       8.946  -1.182  73.372  0.00  0.00    +0.000 C 
ATOM      9  C   UNL     1      10.841   1.727  75.408  0.00  0.00    +0.000 C 
ATOM     10  C   UNL     1       9.809  -1.094  72.142  0.00  0.00    +0.000 C 
ATOM     11  C   UNL     1       7.809  -0.238  76.080  0.00  0.00    +0.000 C 
ATOM     12  C   UNL     1      12.116  -1.638  74.644  0.00  0.00    +0.000 C 
ATOM     13  C   UNL     1       7.405   1.763  77.532  0.00  0.00    +0.000 C 
ATOM     14  C   UNL     1       8.852   3.643  76.816  0.00  0.00    +0.000 C 
ATOM     15  C   UNL     1       7.039   0.619  77.039  0.00  0.00    +0.000 C 
ATOM     16  C   UNL     1       9.786   1.999  78.504  0.00  0.00    +0.000 C 
ATOM     17  C   UNL     1       6.440   2.838  77.521  0.00  0.00    +0.000 C 
ATOM     18  C   UNL     1       7.701   4.664  76.796  0.00  0.00    +0.000 C 
ATOM     19  C   UNL     1       6.405   4.232  77.202  0.00  0.00    +0.000 C 
ENDROOT
BRANCH  19  20
ATOM     20  O   UNL     1       5.524   5.089  77.795  0.00  0.00    +0.000 OA
ATOM     21  H   UNL     1       5.882   5.991  77.843  0.00  0.00    +0.000 HD
ENDBRANCH  19  20
BRANCH   5  22
ATOM     22  C   UNL     1      12.195  -0.435  71.586  0.00  0.00    +0.000 C 
ATOM     23  C   UNL     1      12.698  -1.468  70.609  0.00  0.00    +0.000 C 
BRANCH  22  24
ATOM     24  C   UNL     1      12.839   0.831  71.520  0.00  0.00    +0.000 C 
ATOM     25  C   UNL     1      13.529   2.199  71.421  0.00  0.00    +0.000 C 
BRANCH  25  26
ATOM     26  C   UNL     1      14.179   3.466  71.313  0.00  0.00    +0.000 C 
ATOM     27  C   UNL     1      14.151   4.404  72.413  0.00  0.00    +0.000 C 
ATOM     28  C   UNL     1      13.458   4.096  73.728  0.00  0.00    +0.000 C 
ATOM     29  C   UNL     1      14.775   5.781  72.355  0.00  0.00    +0.000 C 
BRANCH  26  30
ATOM     30  C   UNL     1      14.868   3.810  70.119  0.00  0.00    +0.000 C 
ATOM     31  C   UNL     1      15.598   4.132  68.810  0.00  0.00    +0.000 C 
ENDBRANCH  26  30
ENDBRANCH  25  26
ENDBRANCH  22  24
ENDBRANCH   5  22
TORSDOF 5
ENDMDL
MODEL 6
REMARK VINA RESULT:      -5.7     14.742     18.001
REMARK  Name = 222284_BetaSitosterol.pdbqt.pdb
REMARK  5 active torsions:
REMARK  status: ('A' for Active; 'I' for Inactive)
REMARK    1  A    between atoms: C_5  and  C_22
REMARK    2  A    between atoms: C_19  and  O_20
REMARK    3  A    between atoms: C_22  and  C_24
REMARK    4  A    between atoms: C_25  and  C_26
REMARK    5  A    between atoms: C_26  and  C_30
REMARK                            x       y       z     vdW  Elec       q    Type
REMARK                         _______ _______ _______ _____ _____    ______ ____
ROOT
ATOM      1  C   UNL     1       9.946   0.566  76.218  0.00  0.00    +0.000 C 
ATOM      2  C   UNL     1       9.736   2.068  76.767  0.00  0.00    +0.000 C 
ATOM      3  C   UNL     1      10.710   3.145  76.495  0.00  0.00    +0.000 C 
ATOM      4  C   UNL     1      11.824   3.096  75.480  0.00  0.00    +0.000 C 
ATOM      5  C   UNL     1       8.564   0.167  75.725  0.00  0.00    +0.000 C 
ATOM      6  C   UNL     1      10.941   0.687  75.151  0.00  0.00    +0.000 C 
ATOM      7  C   UNL     1      12.868   4.230  75.290  0.00  0.00    +0.000 C 
ATOM      8  C   UNL     1       8.333   2.344  76.709  0.00  0.00    +0.000 C 
ATOM      9  C   UNL     1      11.843   1.846  74.803  0.00  0.00    +0.000 C 
ATOM     10  C   UNL     1       7.630   1.197  76.035  0.00  0.00    +0.000 C 
ATOM     11  C   UNL     1      10.584   4.416  77.107  0.00  0.00    +0.000 C 
ATOM     12  C   UNL     1      10.405  -0.322  77.403  0.00  0.00    +0.000 C 
ATOM     13  C   UNL     1      12.420   5.673  75.957  0.00  0.00    +0.000 C 
ATOM     14  C   UNL     1      13.034   4.541  73.840  0.00  0.00    +0.000 C 
ATOM     15  C   UNL     1      11.441   5.609  76.807  0.00  0.00    +0.000 C 
ATOM     16  C   UNL     1      14.205   3.806  75.964  0.00  0.00    +0.000 C 
ATOM     17  C   UNL     1      12.459   6.807  75.063  0.00  0.00    +0.000 C 
ATOM     18  C   UNL     1      12.978   5.832  73.006  0.00  0.00    +0.000 C 
ATOM     19  C   UNL     1      12.692   7.059  73.674  0.00  0.00    +0.000 C 
ENDROOT
BRANCH  19  20
ATOM     20  O   UNL     1      13.197   8.245  73.227  0.00  0.00    +0.000 OA
ATOM     21  H   UNL     1      13.022   8.966  73.855  0.00  0.00    +0.000 HD
ENDBRANCH  19  20
BRANCH   5  22
ATOM     22  C   UNL     1       8.268  -1.034  75.008  0.00  0.00    +0.000 C 
ATOM     23  C   UNL     1       7.995  -2.344  75.703  0.00  0.00    +0.000 C 
BRANCH  22  24
ATOM     24  C   UNL     1       8.192  -1.070  73.589  0.00  0.00    +0.000 C 
ATOM     25  C   UNL     1       8.086  -1.124  72.058  0.00  0.00    +0.000 C 
BRANCH  25  26
ATOM     26  C   UNL     1       7.984  -1.193  70.635  0.00  0.00    +0.000 C 
ATOM     27  C   UNL     1       9.114  -0.855  69.799  0.00  0.00    +0.000 C 
ATOM     28  C   UNL     1      10.454  -0.433  70.373  0.00  0.00    +0.000 C 
ATOM     29  C   UNL     1       9.067  -0.860  68.287  0.00  0.00    +0.000 C 
BRANCH  26  30
ATOM     30  C   UNL     1       6.766  -1.605  70.032  0.00  0.00    +0.000 C 
ATOM     31  C   UNL     1       5.462  -2.017  69.338  0.00  0.00    +0.000 C 
ENDBRANCH  26  30
ENDBRANCH  25  26
ENDBRANCH  22  24
ENDBRANCH   5  22
TORSDOF 5
ENDMDL
MODEL 7
REMARK VINA RESULT:      -5.4     14.268     16.979
REMARK  Name = 222284_BetaSitosterol.pdbqt.pdb
REMARK  5 active torsions:
REMARK  status: ('A' for Active; 'I' for Inactive)
REMARK    1  A    between atoms: C_5  and  C_22
REMARK    2  A    between atoms: C_19  and  O_20
REMARK    3  A    between atoms: C_22  and  C_24
REMARK    4  A    between atoms: C_25  and  C_26
REMARK    5  A    between atoms: C_26  and  C_30
REMARK                            x       y       z     vdW  Elec       q    Type
REMARK                         _______ _______ _______ _____ _____    ______ ____
ROOT
ATOM      1  C   UNL     1      12.645   3.062  75.314  0.00  0.00    +0.000 C 
ATOM      2  C   UNL     1      11.709   4.067  76.159  0.00  0.00    +0.000 C 
ATOM      3  C   UNL     1      11.790   5.533  76.002  0.00  0.00    +0.000 C 
ATOM      4  C   UNL     1      12.495   6.266  74.887  0.00  0.00    +0.000 C 
ATOM      5  C   UNL     1      11.695   1.950  74.898  0.00  0.00    +0.000 C 
ATOM      6  C   UNL     1      13.146   3.860  74.194  0.00  0.00    +0.000 C 
ATOM      7  C   UNL     1      12.614   7.812  74.813  0.00  0.00    +0.000 C 
ATOM      8  C   UNL     1      10.433   3.434  76.299  0.00  0.00    +0.000 C 
ATOM      9  C   UNL     1      13.109   5.355  73.985  0.00  0.00    +0.000 C 
ATOM     10  C   UNL     1      10.419   2.164  75.492  0.00  0.00    +0.000 C 
ATOM     11  C   UNL     1      11.067   6.402  76.855  0.00  0.00    +0.000 C 
ATOM     12  C   UNL     1      13.760   2.534  76.254  0.00  0.00    +0.000 C 
ATOM     13  C   UNL     1      11.549   8.616  75.787  0.00  0.00    +0.000 C 
ATOM     14  C   UNL     1      12.277   8.291  73.440  0.00  0.00    +0.000 C 
ATOM     15  C   UNL     1      10.984   7.891  76.704  0.00  0.00    +0.000 C 
ATOM     16  C   UNL     1      14.046   8.232  75.254  0.00  0.00    +0.000 C 
ATOM     17  C   UNL     1      10.739   9.614  75.128  0.00  0.00    +0.000 C 
ATOM     18  C   UNL     1      11.312   9.349  72.879  0.00  0.00    +0.000 C 
ATOM     19  C   UNL     1      10.501  10.081  73.796  0.00  0.00    +0.000 C 
ENDROOT
BRANCH  19  20
ATOM     20  O   UNL     1      10.115  11.363  73.536  0.00  0.00    +0.000 OA
ATOM     21  H   UNL     1       9.917  11.849  74.355  0.00  0.00    +0.000 HD
ENDBRANCH  19  20
BRANCH   5  22
ATOM     22  C   UNL     1      12.025   0.889  73.997  0.00  0.00    +0.000 C 
ATOM     23  C   UNL     1      11.568  -0.531  74.220  0.00  0.00    +0.000 C 
BRANCH  22  24
ATOM     24  C   UNL     1      12.789   1.106  72.819  0.00  0.00    +0.000 C 
ATOM     25  C   UNL     1      13.632   1.317  71.553  0.00  0.00    +0.000 C 
BRANCH  25  26
ATOM     26  C   UNL     1      14.431   1.511  70.385  0.00  0.00    +0.000 C 
ATOM     27  C   UNL     1      14.999   2.808  70.088  0.00  0.00    +0.000 C 
ATOM     28  C   UNL     1      14.797   4.010  70.992  0.00  0.00    +0.000 C 
ATOM     29  C   UNL     1      15.815   3.100  68.849  0.00  0.00    +0.000 C 
BRANCH  26  30
ATOM     30  C   UNL     1      14.681   0.422  69.509  0.00  0.00    +0.000 C 
ATOM     31  C   UNL     1      14.923  -0.786  68.596  0.00  0.00    +0.000 C 
ENDBRANCH  26  30
ENDBRANCH  25  26
ENDBRANCH  22  24
ENDBRANCH   5  22
TORSDOF 5
ENDMDL
MODEL 8
REMARK VINA RESULT:      -5.4     15.230     18.330
REMARK  Name = 222284_BetaSitosterol.pdbqt.pdb
REMARK  5 active torsions:
REMARK  status: ('A' for Active; 'I' for Inactive)
REMARK    1  A    between atoms: C_5  and  C_22
REMARK    2  A    between atoms: C_19  and  O_20
REMARK    3  A    between atoms: C_22  and  C_24
REMARK    4  A    between atoms: C_25  and  C_26
REMARK    5  A    between atoms: C_26  and  C_30
REMARK                            x       y       z     vdW  Elec       q    Type
REMARK                         _______ _______ _______ _____ _____    ______ ____
ROOT
ATOM      1  C   UNL     1       9.291   2.215  77.243  0.00  0.00    +0.000 C 
ATOM      2  C   UNL     1       9.105   3.809  77.403  0.00  0.00    +0.000 C 
ATOM      3  C   UNL     1      10.142   4.767  76.967  0.00  0.00    +0.000 C 
ATOM      4  C   UNL     1      11.326   4.450  76.088  0.00  0.00    +0.000 C 
ATOM      5  C   UNL     1       7.934   1.743  76.745  0.00  0.00    +0.000 C 
ATOM      6  C   UNL     1      10.368   2.054  76.264  0.00  0.00    +0.000 C 
ATOM      7  C   UNL     1      12.429   5.481  75.723  0.00  0.00    +0.000 C 
ATOM      8  C   UNL     1       7.724   4.097  77.166  0.00  0.00    +0.000 C 
ATOM      9  C   UNL     1      11.342   3.075  75.729  0.00  0.00    +0.000 C 
ATOM     10  C   UNL     1       7.025   2.839  76.724  0.00  0.00    +0.000 C 
ATOM     11  C   UNL     1      10.025   6.150  77.249  0.00  0.00    +0.000 C 
ATOM     12  C   UNL     1       9.621   1.625  78.638  0.00  0.00    +0.000 C 
ATOM     13  C   UNL     1      11.995   7.052  75.992  0.00  0.00    +0.000 C 
ATOM     14  C   UNL     1      12.717   5.433  74.260  0.00  0.00    +0.000 C 
ATOM     15  C   UNL     1      10.953   7.216  76.749  0.00  0.00    +0.000 C 
ATOM     16  C   UNL     1      13.692   5.199  76.587  0.00  0.00    +0.000 C 
ATOM     17  C   UNL     1      12.150   7.939  74.862  0.00  0.00    +0.000 C 
ATOM     18  C   UNL     1      12.778   6.489  73.143  0.00  0.00    +0.000 C 
ATOM     19  C   UNL     1      12.497   7.847  73.477  0.00  0.00    +0.000 C 
ENDROOT
BRANCH  19  20
ATOM     20  O   UNL     1      13.084   8.880  72.807  0.00  0.00    +0.000 OA
ATOM     21  H   UNL     1      13.672   8.559  72.102  0.00  0.00    +0.000 HD
ENDBRANCH  19  20
BRANCH   5  22
ATOM     22  C   UNL     1       7.641   0.413  76.309  0.00  0.00    +0.000 C 
ATOM     23  C   UNL     1       6.595  -0.444  76.975  0.00  0.00    +0.000 C 
BRANCH  22  24
ATOM     24  C   UNL     1       8.305  -0.185  75.204  0.00  0.00    +0.000 C 
ATOM     25  C   UNL     1       9.044  -0.839  74.027  0.00  0.00    +0.000 C 
BRANCH  25  26
ATOM     26  C   UNL     1       9.747  -1.439  72.939  0.00  0.00    +0.000 C 
ATOM     27  C   UNL     1      11.065  -0.971  72.566  0.00  0.00    +0.000 C 
ATOM     28  C   UNL     1      11.769   0.150  73.307  0.00  0.00    +0.000 C 
ATOM     29  C   UNL     1      11.850  -1.525  71.398  0.00  0.00    +0.000 C 
BRANCH  26  30
ATOM     30  C   UNL     1       9.157  -2.510  72.218  0.00  0.00    +0.000 C 
ATOM     31  C   UNL     1       8.521  -3.636  71.394  0.00  0.00    +0.000 C 
ENDBRANCH  26  30
ENDBRANCH  25  26
ENDBRANCH  22  24
ENDBRANCH   5  22
TORSDOF 5
ENDMDL
MODEL 9
REMARK VINA RESULT:      -5.3      7.368     10.426
REMARK  Name = 222284_BetaSitosterol.pdbqt.pdb
REMARK  5 active torsions:
REMARK  status: ('A' for Active; 'I' for Inactive)
REMARK    1  A    between atoms: C_5  and  C_22
REMARK    2  A    between atoms: C_19  and  O_20
REMARK    3  A    between atoms: C_22  and  C_24
REMARK    4  A    between atoms: C_25  and  C_26
REMARK    5  A    between atoms: C_26  and  C_30
REMARK                            x       y       z     vdW  Elec       q    Type
REMARK                         _______ _______ _______ _____ _____    ______ ____
ROOT
ATOM      1  C   UNL     1       6.650   4.083  58.575  0.00  0.00    +0.000 C 
ATOM      2  C   UNL     1       7.150   5.558  58.157  0.00  0.00    +0.000 C 
ATOM      3  C   UNL     1       6.574   6.779  58.755  0.00  0.00    +0.000 C 
ATOM      4  C   UNL     1       5.702   6.836  59.984  0.00  0.00    +0.000 C 
ATOM      5  C   UNL     1       7.941   3.287  58.698  0.00  0.00    +0.000 C 
ATOM      6  C   UNL     1       5.947   4.265  59.846  0.00  0.00    +0.000 C 
ATOM      7  C   UNL     1       5.058   8.142  60.525  0.00  0.00    +0.000 C 
ATOM      8  C   UNL     1       8.560   5.474  57.926  0.00  0.00    +0.000 C 
ATOM      9  C   UNL     1       5.474   5.535  60.510  0.00  0.00    +0.000 C 
ATOM     10  C   UNL     1       9.042   4.098  58.298  0.00  0.00    +0.000 C 
ATOM     11  C   UNL     1       6.919   8.064  58.270  0.00  0.00    +0.000 C 
ATOM     12  C   UNL     1       5.753   3.535  57.436  0.00  0.00    +0.000 C 
ATOM     13  C   UNL     1       5.743   9.524  59.932  0.00  0.00    +0.000 C 
ATOM     14  C   UNL     1       5.260   8.245  62.000  0.00  0.00    +0.000 C 
ATOM     15  C   UNL     1       6.489   9.364  58.881  0.00  0.00    +0.000 C 
ATOM     16  C   UNL     1       3.554   8.169  60.128  0.00  0.00    +0.000 C 
ATOM     17  C   UNL     1       6.182  10.473  60.928  0.00  0.00    +0.000 C 
ATOM     18  C   UNL     1       5.821   9.332  62.933  0.00  0.00    +0.000 C 
ATOM     19  C   UNL     1       6.294  10.546  62.353  0.00  0.00    +0.000 C 
ENDROOT
BRANCH  19  20
ATOM     20  O   UNL     1       6.223  11.730  63.026  0.00  0.00    +0.000 OA
ATOM     21  H   UNL     1       7.062  12.217  62.980  0.00  0.00    +0.000 HD
ENDBRANCH  19  20
BRANCH   5  22
ATOM     22  C   UNL     1       8.032   1.951  59.197  0.00  0.00    +0.000 C 
ATOM     23  C   UNL     1       8.716   0.847  58.431  0.00  0.00    +0.000 C 
BRANCH  22  24
ATOM     24  C   UNL     1       7.501   1.576  60.461  0.00  0.00    +0.000 C 
ATOM     25  C   UNL     1       6.904   1.189  61.822  0.00  0.00    +0.000 C 
BRANCH  25  26
ATOM     26  C   UNL     1       6.344   0.847  63.090  0.00  0.00    +0.000 C 
ATOM     27  C   UNL     1       5.169   1.531  63.585  0.00  0.00    +0.000 C 
ATOM     28  C   UNL     1       4.467   2.618  62.793  0.00  0.00    +0.000 C 
ATOM     29  C   UNL     1       4.548   1.257  64.937  0.00  0.00    +0.000 C 
BRANCH  26  30
ATOM     30  C   UNL     1       6.936  -0.179  63.873  0.00  0.00    +0.000 C 
ATOM     31  C   UNL     1       7.620  -1.284  64.686  0.00  0.00    +0.000 C 
ENDBRANCH  26  30
ENDBRANCH  25  26
ENDBRANCH  22  24
ENDBRANCH   5  22
TORSDOF 5
ENDMDL
