MODEL 1
REMARK VINA RESULT:      -4.1      0.000      0.000
REMARK  Name = 25023738_BI-D-1870.pdbqt.pdb
REMARK  4 active torsions:
REMARK  status: ('A' for Active; 'I' for Inactive)
REMARK    1  A    between atoms: N_2  and  C_26
REMARK    2  A    between atoms: N_14  and  C_16
REMARK    3  A    between atoms: C_20  and  O_24
REMARK    4  A    between atoms: C_27  and  C_28
REMARK                            x       y       z     vdW  Elec       q    Type
REMARK                         _______ _______ _______ _____ _____    ______ ____
ROOT
ATOM      1  O   UNL     1       2.029   8.936  64.443  0.00  0.00    +0.000 OA
ATOM      2  N   UNL     1       4.057   6.664  62.491  0.00  0.00    +0.000 N 
ATOM      3  N   UNL     1       3.403   9.402  62.621  0.00  0.00    +0.000 N 
ATOM      4  N   UNL     1       5.477   7.090  60.622  0.00  0.00    +0.000 NA
ATOM      5  N   UNL     1       5.752   9.245  59.742  0.00  0.00    +0.000 NA
ATOM      6  C   UNL     1       3.183   7.085  63.470  0.00  0.00    +0.000 C 
ATOM      7  C   UNL     1       4.625   7.560  61.562  0.00  0.00    +0.000 A 
ATOM      8  C   UNL     1       2.809   8.544  63.571  0.00  0.00    +0.000 C 
ATOM      9  C   UNL     1       4.296   8.895  61.637  0.00  0.00    +0.000 A 
ATOM     10  C   UNL     1       2.594   6.078  64.452  0.00  0.00    +0.000 C 
ATOM     11  C   UNL     1       3.163  10.840  62.561  0.00  0.00    +0.000 C 
ATOM     12  C   UNL     1       4.903   9.687  60.687  0.00  0.00    +0.000 A 
ATOM     13  C   UNL     1       6.018   7.940  59.737  0.00  0.00    +0.000 A 
ATOM     14  N   UNL     1       6.897   7.497  58.758  0.00  0.00    +0.000 N 
ATOM     15  H   UNL     1       7.210   8.265  58.177  0.00  0.00    +0.000 HD
ENDROOT
BRANCH  14  16
ATOM     16  C   UNL     1       7.393   6.222  58.465  0.00  0.00    +0.000 A 
ATOM     17  C   UNL     1       8.779   6.025  58.402  0.00  0.00    +0.000 A 
ATOM     18  C   UNL     1       9.309   4.769  58.114  0.00  0.00    +0.000 A 
ATOM     19  F   UNL     1      10.641   4.622  58.063  0.00  0.00    +0.000 F 
ATOM     20  C   UNL     1       8.471   3.687  57.881  0.00  0.00    +0.000 A 
ATOM     21  C   UNL     1       7.097   3.874  57.940  0.00  0.00    +0.000 A 
ATOM     22  F   UNL     1       6.277   2.836  57.718  0.00  0.00    +0.000 F 
ATOM     23  C   UNL     1       6.560   5.125  58.229  0.00  0.00    +0.000 A 
BRANCH  20  24
ATOM     24  O   UNL     1       8.998   2.459  57.597  0.00  0.00    +0.000 OA
ATOM     25  H   UNL     1       9.950   2.482  57.813  0.00  0.00    +0.000 HD
ENDBRANCH  20  24
ENDBRANCH  14  16
BRANCH   2  26
ATOM     26  C   UNL     1       4.420   5.253  62.388  0.00  0.00    +0.000 C 
ATOM     27  C   UNL     1       4.804   3.771  62.285  0.00  0.00    +0.000 C 
BRANCH  27  28
ATOM     28  C   UNL     1       5.155   2.407  62.186  0.00  0.00    +0.000 C 
ATOM     29  C   UNL     1       4.878   1.480  63.330  0.00  0.00    +0.000 C 
ATOM     30  C   UNL     1       5.848   1.902  60.958  0.00  0.00    +0.000 C 
ENDBRANCH  27  28
ENDBRANCH   2  26
TORSDOF 4
ENDMDL
MODEL 2
REMARK VINA RESULT:      -4.1     14.054     14.953
REMARK  Name = 25023738_BI-D-1870.pdbqt.pdb
REMARK  4 active torsions:
REMARK  status: ('A' for Active; 'I' for Inactive)
REMARK    1  A    between atoms: N_2  and  C_26
REMARK    2  A    between atoms: N_14  and  C_16
REMARK    3  A    between atoms: C_20  and  O_24
REMARK    4  A    between atoms: C_27  and  C_28
REMARK                            x       y       z     vdW  Elec       q    Type
REMARK                         _______ _______ _______ _____ _____    ______ ____
ROOT
ATOM      1  O   UNL     1      10.832   4.703  77.622  0.00  0.00    +0.000 OA
ATOM      2  N   UNL     1      12.599   5.204  74.505  0.00  0.00    +0.000 N 
ATOM      3  N   UNL     1      11.603   6.690  76.682  0.00  0.00    +0.000 N 
ATOM      4  N   UNL     1      13.406   7.213  73.502  0.00  0.00    +0.000 NA
ATOM      5  N   UNL     1      13.123   9.306  74.518  0.00  0.00    +0.000 NA
ATOM      6  C   UNL     1      11.956   4.531  75.521  0.00  0.00    +0.000 C 
ATOM      7  C   UNL     1      12.767   6.604  74.528  0.00  0.00    +0.000 A 
ATOM      8  C   UNL     1      11.410   5.293  76.704  0.00  0.00    +0.000 C 
ATOM      9  C   UNL     1      12.276   7.317  75.598  0.00  0.00    +0.000 A 
ATOM     10  C   UNL     1      11.797   3.016  75.451  0.00  0.00    +0.000 C 
ATOM     11  C   UNL     1      11.146   7.591  77.735  0.00  0.00    +0.000 C 
ATOM     12  C   UNL     1      12.491   8.677  75.526  0.00  0.00    +0.000 A 
ATOM     13  C   UNL     1      13.568   8.544  73.521  0.00  0.00    +0.000 A 
ATOM     14  N   UNL     1      14.219   9.205  72.488  0.00  0.00    +0.000 N 
ATOM     15  H   UNL     1      14.254  10.202  72.661  0.00  0.00    +0.000 HD
ENDROOT
BRANCH  14  16
ATOM     16  C   UNL     1      14.804   8.733  71.308  0.00  0.00    +0.000 A 
ATOM     17  C   UNL     1      14.046   8.711  70.130  0.00  0.00    +0.000 A 
ATOM     18  C   UNL     1      14.596   8.248  68.936  0.00  0.00    +0.000 A 
ATOM     19  F   UNL     1      13.837   8.243  67.830  0.00  0.00    +0.000 F 
ATOM     20  C   UNL     1      15.908   7.797  68.893  0.00  0.00    +0.000 A 
ATOM     21  C   UNL     1      16.665   7.814  70.055  0.00  0.00    +0.000 A 
ATOM     22  F   UNL     1      17.935   7.382  70.026  0.00  0.00    +0.000 F 
ATOM     23  C   UNL     1      16.124   8.277  71.251  0.00  0.00    +0.000 A 
BRANCH  20  24
ATOM     24  O   UNL     1      16.440   7.344  67.718  0.00  0.00    +0.000 OA
ATOM     25  H   UNL     1      15.987   6.511  67.484  0.00  0.00    +0.000 HD
ENDBRANCH  20  24
ENDBRANCH  14  16
BRANCH   2  26
ATOM     26  C   UNL     1      13.128   4.471  73.357  0.00  0.00    +0.000 C 
ATOM     27  C   UNL     1      13.682   3.697  72.155  0.00  0.00    +0.000 C 
BRANCH  27  28
ATOM     28  C   UNL     1      14.193   2.989  71.045  0.00  0.00    +0.000 C 
ATOM     29  C   UNL     1      14.070   1.497  70.991  0.00  0.00    +0.000 C 
ATOM     30  C   UNL     1      14.901   3.727  69.951  0.00  0.00    +0.000 C 
ENDBRANCH  27  28
ENDBRANCH   2  26
TORSDOF 4
ENDMDL
MODEL 3
REMARK VINA RESULT:      -4.0     14.649     15.884
REMARK  Name = 25023738_BI-D-1870.pdbqt.pdb
REMARK  4 active torsions:
REMARK  status: ('A' for Active; 'I' for Inactive)
REMARK    1  A    between atoms: N_2  and  C_26
REMARK    2  A    between atoms: N_14  and  C_16
REMARK    3  A    between atoms: C_20  and  O_24
REMARK    4  A    between atoms: C_27  and  C_28
REMARK                            x       y       z     vdW  Elec       q    Type
REMARK                         _______ _______ _______ _____ _____    ______ ____
ROOT
ATOM      1  O   UNL     1      12.190   0.275  49.878  0.00  0.00    +0.000 OA
ATOM      2  N   UNL     1      15.281   1.706  51.098  0.00  0.00    +0.000 N 
ATOM      3  N   UNL     1      13.264   2.228  49.200  0.00  0.00    +0.000 N 
ATOM      4  N   UNL     1      16.418   3.696  50.439  0.00  0.00    +0.000 NA
ATOM      5  N   UNL     1      15.586   5.099  48.755  0.00  0.00    +0.000 NA
ATOM      6  C   UNL     1      14.233   0.817  50.991  0.00  0.00    +0.000 C 
ATOM      7  C   UNL     1      15.367   2.858  50.290  0.00  0.00    +0.000 A 
ATOM      8  C   UNL     1      13.135   1.062  49.985  0.00  0.00    +0.000 C 
ATOM      9  C   UNL     1      14.374   3.100  49.366  0.00  0.00    +0.000 A 
ATOM     10  C   UNL     1      14.184  -0.416  51.887  0.00  0.00    +0.000 C 
ATOM     11  C   UNL     1      12.304   2.631  48.179  0.00  0.00    +0.000 C 
ATOM     12  C   UNL     1      14.550   4.250  48.627  0.00  0.00    +0.000 A 
ATOM     13  C   UNL     1      16.503   4.793  49.671  0.00  0.00    +0.000 A 
ATOM     14  N   UNL     1      17.566   5.678  49.794  0.00  0.00    +0.000 N 
ATOM     15  H   UNL     1      17.474   6.447  49.142  0.00  0.00    +0.000 HD
ENDROOT
BRANCH  14  16
ATOM     16  C   UNL     1      18.684   5.673  50.635  0.00  0.00    +0.000 A 
ATOM     17  C   UNL     1      19.692   4.723  50.425  0.00  0.00    +0.000 A 
ATOM     18  C   UNL     1      20.821   4.688  51.242  0.00  0.00    +0.000 A 
ATOM     19  F   UNL     1      21.764   3.763  51.009  0.00  0.00    +0.000 F 
ATOM     20  C   UNL     1      20.966   5.595  52.283  0.00  0.00    +0.000 A 
ATOM     21  C   UNL     1      19.971   6.538  52.498  0.00  0.00    +0.000 A 
ATOM     22  F   UNL     1      20.100   7.422  53.499  0.00  0.00    +0.000 F 
ATOM     23  C   UNL     1      18.842   6.581  51.685  0.00  0.00    +0.000 A 
BRANCH  20  24
ATOM     24  O   UNL     1      22.074   5.554  53.081  0.00  0.00    +0.000 OA
ATOM     25  H   UNL     1      22.461   6.451  53.105  0.00  0.00    +0.000 HD
ENDBRANCH  20  24
ENDBRANCH  14  16
BRANCH   2  26
ATOM     26  C   UNL     1      16.347   1.471  52.068  0.00  0.00    +0.000 C 
ATOM     27  C   UNL     1      17.470   1.228  53.084  0.00  0.00    +0.000 C 
BRANCH  27  28
ATOM     28  C   UNL     1      18.501   1.001  54.023  0.00  0.00    +0.000 C 
ATOM     29  C   UNL     1      18.309  -0.010  55.112  0.00  0.00    +0.000 C 
ATOM     30  C   UNL     1      19.761   1.808  53.957  0.00  0.00    +0.000 C 
ENDBRANCH  27  28
ENDBRANCH   2  26
TORSDOF 4
ENDMDL
MODEL 4
REMARK VINA RESULT:      -4.0     15.068     16.386
REMARK  Name = 25023738_BI-D-1870.pdbqt.pdb
REMARK  4 active torsions:
REMARK  status: ('A' for Active; 'I' for Inactive)
REMARK    1  A    between atoms: N_2  and  C_26
REMARK    2  A    between atoms: N_14  and  C_16
REMARK    3  A    between atoms: C_20  and  O_24
REMARK    4  A    between atoms: C_27  and  C_28
REMARK                            x       y       z     vdW  Elec       q    Type
REMARK                         _______ _______ _______ _____ _____    ______ ____
ROOT
ATOM      1  O   UNL     1      14.266  -1.022  51.698  0.00  0.00    +0.000 OA
ATOM      2  N   UNL     1      17.065   1.097  52.571  0.00  0.00    +0.000 N 
ATOM      3  N   UNL     1      14.842   1.066  50.840  0.00  0.00    +0.000 N 
ATOM      4  N   UNL     1      17.697   3.236  51.724  0.00  0.00    +0.000 NA
ATOM      5  N   UNL     1      16.455   4.325  50.061  0.00  0.00    +0.000 NA
ATOM      6  C   UNL     1      16.227   0.003  52.597  0.00  0.00    +0.000 C 
ATOM      7  C   UNL     1      16.840   2.188  51.707  0.00  0.00    +0.000 A 
ATOM      8  C   UNL     1      15.026  -0.049  51.685  0.00  0.00    +0.000 C 
ATOM      9  C   UNL     1      15.750   2.160  50.866  0.00  0.00    +0.000 A 
ATOM     10  C   UNL     1      16.512  -1.154  53.548  0.00  0.00    +0.000 C 
ATOM     11  C   UNL     1      13.740   1.195  49.892  0.00  0.00    +0.000 C 
ATOM     12  C   UNL     1      15.618   3.272  50.064  0.00  0.00    +0.000 A 
ATOM     13  C   UNL     1      17.485   4.275  50.903  0.00  0.00    +0.000 A 
ATOM     14  N   UNL     1      18.341   5.369  50.891  0.00  0.00    +0.000 N 
ATOM     15  H   UNL     1      18.036   6.060  50.216  0.00  0.00    +0.000 HD
ENDROOT
BRANCH  14  16
ATOM     16  C   UNL     1      19.497   5.650  51.628  0.00  0.00    +0.000 A 
ATOM     17  C   UNL     1      19.579   6.857  52.335  0.00  0.00    +0.000 A 
ATOM     18  C   UNL     1      20.714   7.171  53.081  0.00  0.00    +0.000 A 
ATOM     19  F   UNL     1      20.754   8.336  53.744  0.00  0.00    +0.000 F 
ATOM     20  C   UNL     1      21.787   6.292  53.134  0.00  0.00    +0.000 A 
ATOM     21  C   UNL     1      21.714   5.096  52.435  0.00  0.00    +0.000 A 
ATOM     22  F   UNL     1      22.744   4.238  52.480  0.00  0.00    +0.000 F 
ATOM     23  C   UNL     1      20.583   4.774  51.690  0.00  0.00    +0.000 A 
BRANCH  20  24
ATOM     24  O   UNL     1      22.897   6.607  53.866  0.00  0.00    +0.000 OA
ATOM     25  H   UNL     1      22.707   7.424  54.366  0.00  0.00    +0.000 HD
ENDBRANCH  20  24
ENDBRANCH  14  16
BRANCH   2  26
ATOM     26  C   UNL     1      18.230   1.151  53.451  0.00  0.00    +0.000 C 
ATOM     27  C   UNL     1      19.452   1.213  54.375  0.00  0.00    +0.000 C 
BRANCH  27  28
ATOM     28  C   UNL     1      20.578   1.264  55.226  0.00  0.00    +0.000 C 
ATOM     29  C   UNL     1      20.606   0.441  56.477  0.00  0.00    +0.000 C 
ATOM     30  C   UNL     1      21.717   2.181  54.902  0.00  0.00    +0.000 C 
ENDBRANCH  27  28
ENDBRANCH   2  26
TORSDOF 4
ENDMDL
MODEL 5
REMARK VINA RESULT:      -3.8     11.368     15.156
REMARK  Name = 25023738_BI-D-1870.pdbqt.pdb
REMARK  4 active torsions:
REMARK  status: ('A' for Active; 'I' for Inactive)
REMARK    1  A    between atoms: N_2  and  C_26
REMARK    2  A    between atoms: N_14  and  C_16
REMARK    3  A    between atoms: C_20  and  O_24
REMARK    4  A    between atoms: C_27  and  C_28
REMARK                            x       y       z     vdW  Elec       q    Type
REMARK                         _______ _______ _______ _____ _____    ______ ____
ROOT
ATOM      1  O   UNL     1      22.914   7.590  57.023  0.00  0.00    +0.000 OA
ATOM      2  N   UNL     1      19.724   9.295  56.949  0.00  0.00    +0.000 N 
ATOM      3  N   UNL     1      21.693   8.484  58.794  0.00  0.00    +0.000 N 
ATOM      4  N   UNL     1      18.437  10.226  58.729  0.00  0.00    +0.000 NA
ATOM      5  N   UNL     1      19.159  10.137  60.958  0.00  0.00    +0.000 NA
ATOM      6  C   UNL     1      20.836   8.633  56.475  0.00  0.00    +0.000 C 
ATOM      7  C   UNL     1      19.549   9.573  58.320  0.00  0.00    +0.000 A 
ATOM      8  C   UNL     1      21.912   8.183  57.433  0.00  0.00    +0.000 C 
ATOM      9  C   UNL     1      20.520   9.170  59.211  0.00  0.00    +0.000 A 
ATOM     10  C   UNL     1      20.980   8.355  54.983  0.00  0.00    +0.000 C 
ATOM     11  C   UNL     1      22.619   8.130  59.865  0.00  0.00    +0.000 C 
ATOM     12  C   UNL     1      20.256   9.489  60.526  0.00  0.00    +0.000 A 
ATOM     13  C   UNL     1      18.269  10.492  60.033  0.00  0.00    +0.000 A 
ATOM     14  N   UNL     1      17.142  11.160  60.492  0.00  0.00    +0.000 N 
ATOM     15  H   UNL     1      17.174  11.278  61.497  0.00  0.00    +0.000 HD
ENDROOT
BRANCH  14  16
ATOM     16  C   UNL     1      16.028  11.672  59.817  0.00  0.00    +0.000 A 
ATOM     17  C   UNL     1      16.214  12.338  58.598  0.00  0.00    +0.000 A 
ATOM     18  C   UNL     1      15.129  12.860  57.897  0.00  0.00    +0.000 A 
ATOM     19  F   UNL     1      15.349  13.491  56.734  0.00  0.00    +0.000 F 
ATOM     20  C   UNL     1      13.840  12.730  58.396  0.00  0.00    +0.000 A 
ATOM     21  C   UNL     1      13.647  12.073  59.603  0.00  0.00    +0.000 A 
ATOM     22  F   UNL     1      12.406  11.940  60.094  0.00  0.00    +0.000 F 
ATOM     23  C   UNL     1      14.726  11.547  60.308  0.00  0.00    +0.000 A 
BRANCH  20  24
ATOM     24  O   UNL     1      12.780  13.246  57.703  0.00  0.00    +0.000 OA
ATOM     25  H   UNL     1      11.960  12.907  58.111  0.00  0.00    +0.000 HD
ENDBRANCH  20  24
ENDBRANCH  14  16
BRANCH   2  26
ATOM     26  C   UNL     1      18.679   9.731  56.026  0.00  0.00    +0.000 C 
ATOM     27  C   UNL     1      17.580  10.190  55.060  0.00  0.00    +0.000 C 
BRANCH  27  28
ATOM     28  C   UNL     1      16.570  10.611  54.167  0.00  0.00    +0.000 C 
ATOM     29  C   UNL     1      16.893  10.818  52.719  0.00  0.00    +0.000 C 
ATOM     30  C   UNL     1      15.193  10.900  54.680  0.00  0.00    +0.000 C 
ENDBRANCH  27  28
ENDBRANCH   2  26
TORSDOF 4
ENDMDL
MODEL 6
REMARK VINA RESULT:      -3.8     13.420     16.314
REMARK  Name = 25023738_BI-D-1870.pdbqt.pdb
REMARK  4 active torsions:
REMARK  status: ('A' for Active; 'I' for Inactive)
REMARK    1  A    between atoms: N_2  and  C_26
REMARK    2  A    between atoms: N_14  and  C_16
REMARK    3  A    between atoms: C_20  and  O_24
REMARK    4  A    between atoms: C_27  and  C_28
REMARK                            x       y       z     vdW  Elec       q    Type
REMARK                         _______ _______ _______ _____ _____    ______ ____
ROOT
ATOM      1  O   UNL     1       4.243  -4.294  73.809  0.00  0.00    +0.000 OA
ATOM      2  N   UNL     1       7.121  -2.158  73.319  0.00  0.00    +0.000 N 
ATOM      3  N   UNL     1       5.459  -3.095  75.393  0.00  0.00    +0.000 N 
ATOM      4  N   UNL     1       8.398  -0.912  74.904  0.00  0.00    +0.000 NA
ATOM      5  N   UNL     1       7.887  -0.925  77.191  0.00  0.00    +0.000 NA
ATOM      6  C   UNL     1       6.086  -3.008  72.998  0.00  0.00    +0.000 C 
ATOM      7  C   UNL     1       7.366  -1.749  74.646  0.00  0.00    +0.000 A 
ATOM      8  C   UNL     1       5.174  -3.531  74.081  0.00  0.00    +0.000 C 
ATOM      9  C   UNL     1       6.546  -2.214  75.650  0.00  0.00    +0.000 A 
ATOM     10  C   UNL     1       5.860  -3.421  71.548  0.00  0.00    +0.000 C 
ATOM     11  C   UNL     1       4.690  -3.492  76.568  0.00  0.00    +0.000 C 
ATOM     12  C   UNL     1       6.868  -1.758  76.909  0.00  0.00    +0.000 A 
ATOM     13  C   UNL     1       8.633  -0.521  76.165  0.00  0.00    +0.000 A 
ATOM     14  N   UNL     1       9.682   0.336  76.470  0.00  0.00    +0.000 N 
ATOM     15  H   UNL     1       9.716   0.528  77.463  0.00  0.00    +0.000 HD
ENDROOT
BRANCH  14  16
ATOM     16  C   UNL     1      10.648   0.943  75.660  0.00  0.00    +0.000 A 
ATOM     17  C   UNL     1      10.829   2.331  75.736  0.00  0.00    +0.000 A 
ATOM     18  C   UNL     1      11.783   2.970  74.946  0.00  0.00    +0.000 A 
ATOM     19  F   UNL     1      11.926   4.300  75.048  0.00  0.00    +0.000 F 
ATOM     20  C   UNL     1      12.571   2.242  74.065  0.00  0.00    +0.000 A 
ATOM     21  C   UNL     1      12.397   0.868  73.983  0.00  0.00    +0.000 A 
ATOM     22  F   UNL     1      13.153   0.153  73.137  0.00  0.00    +0.000 F 
ATOM     23  C   UNL     1      11.448   0.222  74.770  0.00  0.00    +0.000 A 
BRANCH  20  24
ATOM     24  O   UNL     1      13.503   2.876  73.293  0.00  0.00    +0.000 OA
ATOM     25  H   UNL     1      13.031   3.371  72.596  0.00  0.00    +0.000 HD
ENDBRANCH  20  24
ENDBRANCH  14  16
BRANCH   2  26
ATOM     26  C   UNL     1       8.005  -1.648  72.273  0.00  0.00    +0.000 C 
ATOM     27  C   UNL     1       8.934  -1.117  71.175  0.00  0.00    +0.000 C 
BRANCH  27  28
ATOM     28  C   UNL     1       9.788  -0.623  70.163  0.00  0.00    +0.000 C 
ATOM     29  C   UNL     1       9.220  -0.235  68.832  0.00  0.00    +0.000 C 
ATOM     30  C   UNL     1      11.263  -0.539  70.407  0.00  0.00    +0.000 C 
ENDBRANCH  27  28
ENDBRANCH   2  26
TORSDOF 4
ENDMDL
MODEL 7
REMARK VINA RESULT:      -3.8      4.794      8.112
REMARK  Name = 25023738_BI-D-1870.pdbqt.pdb
REMARK  4 active torsions:
REMARK  status: ('A' for Active; 'I' for Inactive)
REMARK    1  A    between atoms: N_2  and  C_26
REMARK    2  A    between atoms: N_14  and  C_16
REMARK    3  A    between atoms: C_20  and  O_24
REMARK    4  A    between atoms: C_27  and  C_28
REMARK                            x       y       z     vdW  Elec       q    Type
REMARK                         _______ _______ _______ _____ _____    ______ ____
ROOT
ATOM      1  O   UNL     1       4.537  -1.726  67.663  0.00  0.00    +0.000 OA
ATOM      2  N   UNL     1       3.651   1.561  66.439  0.00  0.00    +0.000 N 
ATOM      3  N   UNL     1       5.025  -0.753  65.603  0.00  0.00    +0.000 N 
ATOM      4  N   UNL     1       4.126   2.600  64.344  0.00  0.00    +0.000 NA
ATOM      5  N   UNL     1       5.343   1.507  62.666  0.00  0.00    +0.000 NA
ATOM      6  C   UNL     1       3.730   0.494  67.308  0.00  0.00    +0.000 C 
ATOM      7  C   UNL     1       4.235   1.523  65.156  0.00  0.00    +0.000 A 
ATOM      8  C   UNL     1       4.458  -0.762  66.896  0.00  0.00    +0.000 C 
ATOM      9  C   UNL     1       4.904   0.386  64.761  0.00  0.00    +0.000 A 
ATOM     10  C   UNL     1       3.083   0.583  68.685  0.00  0.00    +0.000 C 
ATOM     11  C   UNL     1       5.764  -1.874  65.031  0.00  0.00    +0.000 C 
ATOM     12  C   UNL     1       5.438   0.448  63.492  0.00  0.00    +0.000 A 
ATOM     13  C   UNL     1       4.680   2.567  63.124  0.00  0.00    +0.000 A 
ATOM     14  N   UNL     1       4.590   3.652  62.262  0.00  0.00    +0.000 N 
ATOM     15  H   UNL     1       5.061   3.459  61.386  0.00  0.00    +0.000 HD
ENDROOT
BRANCH  14  16
ATOM     16  C   UNL     1       3.980   4.902  62.406  0.00  0.00    +0.000 A 
ATOM     17  C   UNL     1       4.763   6.007  62.766  0.00  0.00    +0.000 A 
ATOM     18  C   UNL     1       4.191   7.269  62.918  0.00  0.00    +0.000 A 
ATOM     19  F   UNL     1       4.975   8.301  63.263  0.00  0.00    +0.000 F 
ATOM     20  C   UNL     1       2.829   7.453  62.718  0.00  0.00    +0.000 A 
ATOM     21  C   UNL     1       2.046   6.364  62.363  0.00  0.00    +0.000 A 
ATOM     22  F   UNL     1       0.730   6.530  62.166  0.00  0.00    +0.000 F 
ATOM     23  C   UNL     1       2.611   5.101  62.207  0.00  0.00    +0.000 A 
BRANCH  20  24
ATOM     24  O   UNL     1       2.274   8.693  62.870  0.00  0.00    +0.000 OA
ATOM     25  H   UNL     1       2.006   8.790  63.804  0.00  0.00    +0.000 HD
ENDBRANCH  20  24
ENDBRANCH  14  16
BRANCH   2  26
ATOM     26  C   UNL     1       2.949   2.780  66.834  0.00  0.00    +0.000 C 
ATOM     27  C   UNL     1       2.217   4.062  67.249  0.00  0.00    +0.000 C 
BRANCH  27  28
ATOM     28  C   UNL     1       1.539   5.241  67.630  0.00  0.00    +0.000 C 
ATOM     29  C   UNL     1       0.041   5.262  67.663  0.00  0.00    +0.000 C 
ATOM     30  C   UNL     1       2.317   6.479  67.951  0.00  0.00    +0.000 C 
ENDBRANCH  27  28
ENDBRANCH   2  26
TORSDOF 4
ENDMDL
MODEL 8
REMARK VINA RESULT:      -3.7     10.719     13.418
REMARK  Name = 25023738_BI-D-1870.pdbqt.pdb
REMARK  4 active torsions:
REMARK  status: ('A' for Active; 'I' for Inactive)
REMARK    1  A    between atoms: N_2  and  C_26
REMARK    2  A    between atoms: N_14  and  C_16
REMARK    3  A    between atoms: C_20  and  O_24
REMARK    4  A    between atoms: C_27  and  C_28
REMARK                            x       y       z     vdW  Elec       q    Type
REMARK                         _______ _______ _______ _____ _____    ______ ____
ROOT
ATOM      1  O   UNL     1       5.001  -1.213  66.088  0.00  0.00    +0.000 OA
ATOM      2  N   UNL     1       7.321  -1.313  68.863  0.00  0.00    +0.000 N 
ATOM      3  N   UNL     1       7.322  -1.009  66.061  0.00  0.00    +0.000 N 
ATOM      4  N   UNL     1       9.698  -1.110  68.886  0.00  0.00    +0.000 NA
ATOM      5  N   UNL     1      10.934  -0.791  66.920  0.00  0.00    +0.000 NA
ATOM      6  C   UNL     1       6.114  -1.345  68.198  0.00  0.00    +0.000 C 
ATOM      7  C   UNL     1       8.543  -1.134  68.182  0.00  0.00    +0.000 A 
ATOM      8  C   UNL     1       6.075  -1.186  66.698  0.00  0.00    +0.000 C 
ATOM      9  C   UNL     1       8.528  -0.987  66.813  0.00  0.00    +0.000 A 
ATOM     10  C   UNL     1       4.819  -1.542  68.978  0.00  0.00    +0.000 C 
ATOM     11  C   UNL     1       7.483  -0.840  64.621  0.00  0.00    +0.000 C 
ATOM     12  C   UNL     1       9.771  -0.818  66.243  0.00  0.00    +0.000 A 
ATOM     13  C   UNL     1      10.862  -0.940  68.241  0.00  0.00    +0.000 A 
ATOM     14  N   UNL     1      12.068  -0.910  68.928  0.00  0.00    +0.000 N 
ATOM     15  H   UNL     1      12.844  -0.774  68.292  0.00  0.00    +0.000 HD
ENDROOT
BRANCH  14  16
ATOM     16  C   UNL     1      12.362  -1.029  70.291  0.00  0.00    +0.000 A 
ATOM     17  C   UNL     1      11.823  -0.099  71.190  0.00  0.00    +0.000 A 
ATOM     18  C   UNL     1      12.094  -0.187  72.555  0.00  0.00    +0.000 A 
ATOM     19  F   UNL     1      11.559   0.723  73.383  0.00  0.00    +0.000 F 
ATOM     20  C   UNL     1      12.906  -1.198  73.048  0.00  0.00    +0.000 A 
ATOM     21  C   UNL     1      13.445  -2.122  72.164  0.00  0.00    +0.000 A 
ATOM     22  F   UNL     1      14.230  -3.105  72.629  0.00  0.00    +0.000 F 
ATOM     23  C   UNL     1      13.178  -2.043  70.800  0.00  0.00    +0.000 A 
BRANCH  20  24
ATOM     24  O   UNL     1      13.168  -1.277  74.387  0.00  0.00    +0.000 OA
ATOM     25  H   UNL     1      12.321  -1.191  74.866  0.00  0.00    +0.000 HD
ENDBRANCH  20  24
ENDBRANCH  14  16
BRANCH   2  26
ATOM     26  C   UNL     1       7.365  -1.468  70.315  0.00  0.00    +0.000 C 
ATOM     27  C   UNL     1       7.415  -1.630  71.839  0.00  0.00    +0.000 C 
BRANCH  27  28
ATOM     28  C   UNL     1       7.457  -1.780  73.243  0.00  0.00    +0.000 C 
ATOM     29  C   UNL     1       6.411  -2.597  73.937  0.00  0.00    +0.000 C 
ATOM     30  C   UNL     1       8.515  -1.078  74.037  0.00  0.00    +0.000 C 
ENDBRANCH  27  28
ENDBRANCH   2  26
TORSDOF 4
ENDMDL
MODEL 9
REMARK VINA RESULT:      -3.6     11.801     13.596
REMARK  Name = 25023738_BI-D-1870.pdbqt.pdb
REMARK  4 active torsions:
REMARK  status: ('A' for Active; 'I' for Inactive)
REMARK    1  A    between atoms: N_2  and  C_26
REMARK    2  A    between atoms: N_14  and  C_16
REMARK    3  A    between atoms: C_20  and  O_24
REMARK    4  A    between atoms: C_27  and  C_28
REMARK                            x       y       z     vdW  Elec       q    Type
REMARK                         _______ _______ _______ _____ _____    ______ ____
ROOT
ATOM      1  O   UNL     1      13.186  -3.736  60.626  0.00  0.00    +0.000 OA
ATOM      2  N   UNL     1      13.715  -1.821  63.650  0.00  0.00    +0.000 N 
ATOM      3  N   UNL     1      14.887  -2.221  61.119  0.00  0.00    +0.000 N 
ATOM      4  N   UNL     1      15.435  -0.262  64.201  0.00  0.00    +0.000 NA
ATOM      5  N   UNL     1      17.157   0.264  62.701  0.00  0.00    +0.000 NA
ATOM      6  C   UNL     1      13.115  -2.706  62.780  0.00  0.00    +0.000 C 
ATOM      7  C   UNL     1      14.889  -1.119  63.307  0.00  0.00    +0.000 A 
ATOM      8  C   UNL     1      13.713  -2.946  61.416  0.00  0.00    +0.000 C 
ATOM      9  C   UNL     1      15.451  -1.325  62.067  0.00  0.00    +0.000 A 
ATOM     10  C   UNL     1      11.846  -3.442  63.196  0.00  0.00    +0.000 C 
ATOM     11  C   UNL     1      15.607  -2.322  59.853  0.00  0.00    +0.000 C 
ATOM     12  C   UNL     1      16.594  -0.593  61.829  0.00  0.00    +0.000 A 
ATOM     13  C   UNL     1      16.552   0.406  63.878  0.00  0.00    +0.000 A 
ATOM     14  N   UNL     1      17.142   1.294  64.767  0.00  0.00    +0.000 N 
ATOM     15  H   UNL     1      17.973   1.711  64.366  0.00  0.00    +0.000 HD
ENDROOT
BRANCH  14  16
ATOM     16  C   UNL     1      16.785   1.684  66.063  0.00  0.00    +0.000 A 
ATOM     17  C   UNL     1      16.656   3.049  66.354  0.00  0.00    +0.000 A 
ATOM     18  C   UNL     1      16.301   3.475  67.633  0.00  0.00    +0.000 A 
ATOM     19  F   UNL     1      16.187   4.789  67.872  0.00  0.00    +0.000 F 
ATOM     20  C   UNL     1      16.071   2.551  68.645  0.00  0.00    +0.000 A 
ATOM     21  C   UNL     1      16.199   1.198  68.364  0.00  0.00    +0.000 A 
ATOM     22  F   UNL     1      15.978   0.297  69.332  0.00  0.00    +0.000 F 
ATOM     23  C   UNL     1      16.551   0.765  67.089  0.00  0.00    +0.000 A 
BRANCH  20  24
ATOM     24  O   UNL     1      15.725   2.976  69.896  0.00  0.00    +0.000 OA
ATOM     25  H   UNL     1      15.896   2.246  70.521  0.00  0.00    +0.000 HD
ENDBRANCH  20  24
ENDBRANCH  14  16
BRANCH   2  26
ATOM     26  C   UNL     1      13.140  -1.586  64.972  0.00  0.00    +0.000 C 
ATOM     27  C   UNL     1      12.537  -1.345  66.362  0.00  0.00    +0.000 C 
BRANCH  27  28
ATOM     28  C   UNL     1      11.982  -1.117  67.640  0.00  0.00    +0.000 C 
ATOM     29  C   UNL     1      10.520  -0.819  67.777  0.00  0.00    +0.000 C 
ATOM     30  C   UNL     1      12.866  -1.123  68.849  0.00  0.00    +0.000 C 
ENDBRANCH  27  28
ENDBRANCH   2  26
TORSDOF 4
ENDMDL
