MODEL 1
REMARK VINA RESULT:      -3.4      0.000      0.000
REMARK  Name = 26879_Levamisole.pdbqt.pdb
REMARK  1 active torsions:
REMARK  status: ('A' for Active; 'I' for Inactive)
REMARK    1  A    between atoms: C_5  and  C_9
REMARK                            x       y       z     vdW  Elec       q    Type
REMARK                         _______ _______ _______ _____ _____    ______ ____
ROOT
ATOM      1  S   UNL     1      15.773  -0.424  49.658  0.00  0.00    +0.000 S 
ATOM      2  N   UNL     1      15.094   1.165  51.880  0.00  0.00    +0.000 NA
ATOM      3  N   UNL     1      17.039  -0.297  52.033  0.00  0.00    +0.000 NA
ATOM      4  C   UNL     1      16.136   1.618  52.749  0.00  0.00    +0.000 C 
ATOM      5  C   UNL     1      17.199   0.716  52.922  0.00  0.00    +0.000 C 
ATOM      6  C   UNL     1      14.944   1.873  50.635  0.00  0.00    +0.000 C 
ATOM      7  C   UNL     1      15.862  -0.031  51.391  0.00  0.00    +0.000 C 
ATOM      8  C   UNL     1      15.201   1.133  49.359  0.00  0.00    +0.000 C 
ENDROOT
BRANCH   5   9
ATOM      9  C   UNL     1      18.333   0.828  53.826  0.00  0.00    +0.000 A 
ATOM     10  C   UNL     1      18.409   0.072  55.000  0.00  0.00    +0.000 A 
ATOM     11  C   UNL     1      19.377   1.710  53.534  0.00  0.00    +0.000 A 
ATOM     12  C   UNL     1      19.500   0.191  55.859  0.00  0.00    +0.000 A 
ATOM     13  C   UNL     1      20.471   1.833  54.389  0.00  0.00    +0.000 A 
ATOM     14  C   UNL     1      20.532   1.073  55.552  0.00  0.00    +0.000 A 
ENDBRANCH   5   9
TORSDOF 1
ENDMDL
MODEL 2
REMARK VINA RESULT:      -3.3      4.851      7.497
REMARK  Name = 26879_Levamisole.pdbqt.pdb
REMARK  1 active torsions:
REMARK  status: ('A' for Active; 'I' for Inactive)
REMARK    1  A    between atoms: C_5  and  C_9
REMARK                            x       y       z     vdW  Elec       q    Type
REMARK                         _______ _______ _______ _____ _____    ______ ____
ROOT
ATOM      1  S   UNL     1      22.823   1.890  59.455  0.00  0.00    +0.000 S 
ATOM      2  N   UNL     1      23.606   1.339  56.808  0.00  0.00    +0.000 NA
ATOM      3  N   UNL     1      21.289   0.945  57.452  0.00  0.00    +0.000 NA
ATOM      4  C   UNL     1      22.645   1.483  55.759  0.00  0.00    +0.000 C 
ATOM      5  C   UNL     1      21.328   1.140  56.109  0.00  0.00    +0.000 C 
ATOM      6  C   UNL     1      24.194   2.554  57.310  0.00  0.00    +0.000 C 
ATOM      7  C   UNL     1      22.578   1.103  57.878  0.00  0.00    +0.000 C 
ATOM      8  C   UNL     1      23.925   2.941  58.732  0.00  0.00    +0.000 C 
ENDROOT
BRANCH   5   9
ATOM      9  C   UNL     1      20.161   1.061  55.245  0.00  0.00    +0.000 A 
ATOM     10  C   UNL     1      19.104   0.189  55.523  0.00  0.00    +0.000 A 
ATOM     11  C   UNL     1      20.078   1.864  54.104  0.00  0.00    +0.000 A 
ATOM     12  C   UNL     1      17.992   0.121  54.685  0.00  0.00    +0.000 A 
ATOM     13  C   UNL     1      18.970   1.801  53.262  0.00  0.00    +0.000 A 
ATOM     14  C   UNL     1      17.926   0.928  53.554  0.00  0.00    +0.000 A 
ENDBRANCH   5   9
TORSDOF 1
ENDMDL
MODEL 3
REMARK VINA RESULT:      -3.2      3.367      4.398
REMARK  Name = 26879_Levamisole.pdbqt.pdb
REMARK  1 active torsions:
REMARK  status: ('A' for Active; 'I' for Inactive)
REMARK    1  A    between atoms: C_5  and  C_9
REMARK                            x       y       z     vdW  Elec       q    Type
REMARK                         _______ _______ _______ _____ _____    ______ ____
ROOT
ATOM      1  S   UNL     1      14.532  -3.496  54.494  0.00  0.00    +0.000 S 
ATOM      2  N   UNL     1      15.758  -2.503  56.825  0.00  0.00    +0.000 NA
ATOM      3  N   UNL     1      16.873  -2.176  54.682  0.00  0.00    +0.000 NA
ATOM      4  C   UNL     1      16.576  -1.334  56.731  0.00  0.00    +0.000 C 
ATOM      5  C   UNL     1      17.305  -1.214  55.537  0.00  0.00    +0.000 C 
ATOM      6  C   UNL     1      14.333  -2.292  56.824  0.00  0.00    +0.000 C 
ATOM      7  C   UNL     1      15.949  -2.896  55.387  0.00  0.00    +0.000 C 
ATOM      8  C   UNL     1      13.534  -2.831  55.679  0.00  0.00    +0.000 C 
ENDROOT
BRANCH   5   9
ATOM      9  C   UNL     1      18.308  -0.217  55.193  0.00  0.00    +0.000 A 
ATOM     10  C   UNL     1      19.455  -0.036  55.971  0.00  0.00    +0.000 A 
ATOM     11  C   UNL     1      18.135   0.589  54.065  0.00  0.00    +0.000 A 
ATOM     12  C   UNL     1      20.406   0.925  55.632  0.00  0.00    +0.000 A 
ATOM     13  C   UNL     1      19.082   1.552  53.721  0.00  0.00    +0.000 A 
ATOM     14  C   UNL     1      20.218   1.719  54.505  0.00  0.00    +0.000 A 
ENDBRANCH   5   9
TORSDOF 1
ENDMDL
MODEL 4
REMARK VINA RESULT:      -3.1     23.616     24.860
REMARK  Name = 26879_Levamisole.pdbqt.pdb
REMARK  1 active torsions:
REMARK  status: ('A' for Active; 'I' for Inactive)
REMARK    1  A    between atoms: C_5  and  C_9
REMARK                            x       y       z     vdW  Elec       q    Type
REMARK                         _______ _______ _______ _____ _____    ______ ____
ROOT
ATOM      1  S   UNL     1       6.374  -1.541  76.689  0.00  0.00    +0.000 S 
ATOM      2  N   UNL     1       8.969  -1.932  75.669  0.00  0.00    +0.000 NA
ATOM      3  N   UNL     1       8.065   0.331  75.742  0.00  0.00    +0.000 NA
ATOM      4  C   UNL     1       9.935  -0.890  75.822  0.00  0.00    +0.000 C 
ATOM      5  C   UNL     1       9.420   0.414  75.746  0.00  0.00    +0.000 C 
ATOM      6  C   UNL     1       8.710  -2.744  76.831  0.00  0.00    +0.000 C 
ATOM      7  C   UNL     1       7.787  -1.007  75.747  0.00  0.00    +0.000 C 
ATOM      8  C   UNL     1       7.344  -2.695  77.443  0.00  0.00    +0.000 C 
ENDROOT
BRANCH   5   9
ATOM      9  C   UNL     1      10.153   1.671  75.739  0.00  0.00    +0.000 A 
ATOM     10  C   UNL     1      11.356   1.811  75.039  0.00  0.00    +0.000 A 
ATOM     11  C   UNL     1       9.662   2.772  76.446  0.00  0.00    +0.000 A 
ATOM     12  C   UNL     1      12.050   3.020  75.043  0.00  0.00    +0.000 A 
ATOM     13  C   UNL     1      10.351   3.983  76.454  0.00  0.00    +0.000 A 
ATOM     14  C   UNL     1      11.546   4.106  75.752  0.00  0.00    +0.000 A 
ENDBRANCH   5   9
TORSDOF 1
ENDMDL
MODEL 5
REMARK VINA RESULT:      -3.0     11.811     13.527
REMARK  Name = 26879_Levamisole.pdbqt.pdb
REMARK  1 active torsions:
REMARK  status: ('A' for Active; 'I' for Inactive)
REMARK    1  A    between atoms: C_5  and  C_9
REMARK                            x       y       z     vdW  Elec       q    Type
REMARK                         _______ _______ _______ _____ _____    ______ ____
ROOT
ATOM      1  S   UNL     1      19.385   5.532  64.950  0.00  0.00    +0.000 S 
ATOM      2  N   UNL     1      19.866   8.306  64.924  0.00  0.00    +0.000 NA
ATOM      3  N   UNL     1      19.531   7.152  62.802  0.00  0.00    +0.000 NA
ATOM      4  C   UNL     1      19.292   9.096  63.879  0.00  0.00    +0.000 C 
ATOM      5  C   UNL     1      19.211   8.460  62.630  0.00  0.00    +0.000 C 
ATOM      6  C   UNL     1      18.981   7.914  65.992  0.00  0.00    +0.000 C 
ATOM      7  C   UNL     1      19.862   7.034  64.123  0.00  0.00    +0.000 C 
ATOM      8  C   UNL     1      18.689   6.457  66.175  0.00  0.00    +0.000 C 
ENDROOT
BRANCH   5   9
ATOM      9  C   UNL     1      18.797   9.030  61.357  0.00  0.00    +0.000 A 
ATOM     10  C   UNL     1      19.698   9.185  60.299  0.00  0.00    +0.000 A 
ATOM     11  C   UNL     1      17.475   9.443  61.171  0.00  0.00    +0.000 A 
ATOM     12  C   UNL     1      19.290   9.736  59.085  0.00  0.00    +0.000 A 
ATOM     13  C   UNL     1      17.061   9.994  59.960  0.00  0.00    +0.000 A 
ATOM     14  C   UNL     1      17.969  10.141  58.917  0.00  0.00    +0.000 A 
ENDBRANCH   5   9
TORSDOF 1
ENDMDL
MODEL 6
REMARK VINA RESULT:      -2.9     19.514     20.599
REMARK  Name = 26879_Levamisole.pdbqt.pdb
REMARK  1 active torsions:
REMARK  status: ('A' for Active; 'I' for Inactive)
REMARK    1  A    between atoms: C_5  and  C_9
REMARK                            x       y       z     vdW  Elec       q    Type
REMARK                         _______ _______ _______ _____ _____    ______ ____
ROOT
ATOM      1  S   UNL     1       5.352  -3.133  72.940  0.00  0.00    +0.000 S 
ATOM      2  N   UNL     1       4.385  -2.582  70.354  0.00  0.00    +0.000 NA
ATOM      3  N   UNL     1       6.542  -1.662  71.021  0.00  0.00    +0.000 NA
ATOM      4  C   UNL     1       5.324  -2.386  69.293  0.00  0.00    +0.000 C 
ATOM      5  C   UNL     1       6.518  -1.749  69.667  0.00  0.00    +0.000 C 
ATOM      6  C   UNL     1       4.140  -3.945  70.750  0.00  0.00    +0.000 C 
ATOM      7  C   UNL     1       5.347  -2.181  71.436  0.00  0.00    +0.000 C 
ATOM      8  C   UNL     1       4.536  -4.367  72.131  0.00  0.00    +0.000 C 
ENDROOT
BRANCH   5   9
ATOM      9  C   UNL     1       7.604  -1.301  68.808  0.00  0.00    +0.000 A 
ATOM     10  C   UNL     1       7.535  -1.428  67.417  0.00  0.00    +0.000 A 
ATOM     11  C   UNL     1       8.751  -0.733  69.369  0.00  0.00    +0.000 A 
ATOM     12  C   UNL     1       8.584  -0.997  66.606  0.00  0.00    +0.000 A 
ATOM     13  C   UNL     1       9.803  -0.300  68.563  0.00  0.00    +0.000 A 
ATOM     14  C   UNL     1       9.718  -0.433  67.181  0.00  0.00    +0.000 A 
ENDBRANCH   5   9
TORSDOF 1
ENDMDL
MODEL 7
REMARK VINA RESULT:      -2.8     22.587     24.294
REMARK  Name = 26879_Levamisole.pdbqt.pdb
REMARK  1 active torsions:
REMARK  status: ('A' for Active; 'I' for Inactive)
REMARK    1  A    between atoms: C_5  and  C_9
REMARK                            x       y       z     vdW  Elec       q    Type
REMARK                         _______ _______ _______ _____ _____    ______ ____
ROOT
ATOM      1  S   UNL     1      14.915   2.764  74.256  0.00  0.00    +0.000 S 
ATOM      2  N   UNL     1      13.241   4.736  75.367  0.00  0.00    +0.000 NA
ATOM      3  N   UNL     1      12.247   2.641  74.616  0.00  0.00    +0.000 NA
ATOM      4  C   UNL     1      12.065   4.328  76.070  0.00  0.00    +0.000 C 
ATOM      5  C   UNL     1      11.434   3.183  75.557  0.00  0.00    +0.000 C 
ATOM      6  C   UNL     1      14.489   4.615  76.077  0.00  0.00    +0.000 C 
ATOM      7  C   UNL     1      13.314   3.491  74.528  0.00  0.00    +0.000 C 
ATOM      8  C   UNL     1      15.512   3.653  75.558  0.00  0.00    +0.000 C 
ENDROOT
BRANCH   5   9
ATOM      9  C   UNL     1      10.167   2.596  75.967  0.00  0.00    +0.000 A 
ATOM     10  C   UNL     1       9.203   3.343  76.651  0.00  0.00    +0.000 A 
ATOM     11  C   UNL     1       9.892   1.255  75.683  0.00  0.00    +0.000 A 
ATOM     12  C   UNL     1       7.995   2.767  77.041  0.00  0.00    +0.000 A 
ATOM     13  C   UNL     1       8.686   0.674  76.070  0.00  0.00    +0.000 A 
ATOM     14  C   UNL     1       7.738   1.432  76.750  0.00  0.00    +0.000 A 
ENDBRANCH   5   9
TORSDOF 1
ENDMDL
MODEL 8
REMARK VINA RESULT:      -2.8      4.368      5.814
REMARK  Name = 26879_Levamisole.pdbqt.pdb
REMARK  1 active torsions:
REMARK  status: ('A' for Active; 'I' for Inactive)
REMARK    1  A    between atoms: C_5  and  C_9
REMARK                            x       y       z     vdW  Elec       q    Type
REMARK                         _______ _______ _______ _____ _____    ______ ____
ROOT
ATOM      1  S   UNL     1      23.649   4.129  50.285  0.00  0.00    +0.000 S 
ATOM      2  N   UNL     1      21.349   5.293  51.416  0.00  0.00    +0.000 NA
ATOM      3  N   UNL     1      21.566   2.865  51.436  0.00  0.00    +0.000 NA
ATOM      4  C   UNL     1      20.702   4.627  52.504  0.00  0.00    +0.000 C 
ATOM      5  C   UNL     1      20.733   3.224  52.444  0.00  0.00    +0.000 C 
ATOM      6  C   UNL     1      22.546   6.028  51.734  0.00  0.00    +0.000 C 
ATOM      7  C   UNL     1      21.969   4.040  50.865  0.00  0.00    +0.000 C 
ATOM      8  C   UNL     1      23.842   5.567  51.142  0.00  0.00    +0.000 C 
ENDROOT
BRANCH   5   9
ATOM      9  C   UNL     1      20.067   2.273  53.322  0.00  0.00    +0.000 A 
ATOM     10  C   UNL     1      20.707   1.746  54.448  0.00  0.00    +0.000 A 
ATOM     11  C   UNL     1      18.760   1.862  53.046  0.00  0.00    +0.000 A 
ATOM     12  C   UNL     1      20.059   0.833  55.278  0.00  0.00    +0.000 A 
ATOM     13  C   UNL     1      18.107   0.950  53.873  0.00  0.00    +0.000 A 
ATOM     14  C   UNL     1      18.757   0.436  54.989  0.00  0.00    +0.000 A 
ENDBRANCH   5   9
TORSDOF 1
ENDMDL
MODEL 9
REMARK VINA RESULT:      -2.8     11.009     12.167
REMARK  Name = 26879_Levamisole.pdbqt.pdb
REMARK  1 active torsions:
REMARK  status: ('A' for Active; 'I' for Inactive)
REMARK    1  A    between atoms: C_5  and  C_9
REMARK                            x       y       z     vdW  Elec       q    Type
REMARK                         _______ _______ _______ _____ _____    ______ ____
ROOT
ATOM      1  S   UNL     1       3.945   0.932  56.154  0.00  0.00    +0.000 S 
ATOM      2  N   UNL     1       5.606   0.475  58.381  0.00  0.00    +0.000 NA
ATOM      3  N   UNL     1       6.356   2.026  56.656  0.00  0.00    +0.000 NA
ATOM      4  C   UNL     1       6.461   1.528  58.832  0.00  0.00    +0.000 C 
ATOM      5  C   UNL     1       6.982   2.346  57.817  0.00  0.00    +0.000 C 
ATOM      6  C   UNL     1       4.216   0.575  58.746  0.00  0.00    +0.000 C 
ATOM      7  C   UNL     1       5.526   0.986  56.970  0.00  0.00    +0.000 C 
ATOM      8  C   UNL     1       3.204   0.748  57.656  0.00  0.00    +0.000 C 
ENDROOT
BRANCH   5   9
ATOM      9  C   UNL     1       7.967   3.411  57.938  0.00  0.00    +0.000 A 
ATOM     10  C   UNL     1       9.289   3.144  58.306  0.00  0.00    +0.000 A 
ATOM     11  C   UNL     1       7.599   4.736  57.691  0.00  0.00    +0.000 A 
ATOM     12  C   UNL     1      10.222   4.174  58.421  0.00  0.00    +0.000 A 
ATOM     13  C   UNL     1       8.527   5.770  57.805  0.00  0.00    +0.000 A 
ATOM     14  C   UNL     1       9.839   5.487  58.170  0.00  0.00    +0.000 A 
ENDBRANCH   5   9
TORSDOF 1
ENDMDL
