MODEL 1
REMARK VINA RESULT:      -3.5      0.000      0.000
REMARK  Name = 27924_Phorbol.pdbqt.pdb
REMARK  26 active torsions:
REMARK  status: ('A' for Active; 'I' for Inactive)
REMARK    1  A    between atoms: O_1  and  C_10
REMARK    2  A    between atoms: O_1  and  C_26
REMARK    3  A    between atoms: O_2  and  C_13
REMARK    4  A    between atoms: O_2  and  C_28
REMARK    5  A    between atoms: O_3  and  C_14
REMARK    6  A    between atoms: O_4  and  C_20
REMARK    7  A    between atoms: O_7  and  C_29
REMARK    8  A    between atoms: C_11  and  C_16
REMARK    9  A    between atoms: C_11  and  C_17
REMARK   10  A    between atoms: C_15  and  C_21
REMARK   11  A    between atoms: C_22  and  C_29
REMARK   12  A    between atoms: C_26  and  C_30
REMARK   13  A    between atoms: C_27  and  C_31
REMARK   14  A    between atoms: C_28  and  C_32
REMARK   15  A    between atoms: C_32  and  C_33
REMARK   16  A    between atoms: C_33  and  C_34
REMARK   17  A    between atoms: C_34  and  C_35
REMARK   18  A    between atoms: C_35  and  C_36
REMARK   19  A    between atoms: C_36  and  C_37
REMARK   20  A    between atoms: C_37  and  C_38
REMARK   21  A    between atoms: C_38  and  C_39
REMARK   22  A    between atoms: C_39  and  C_40
REMARK   23  A    between atoms: C_40  and  C_41
REMARK   24  A    between atoms: C_41  and  C_42
REMARK   25  A    between atoms: C_42  and  C_43
REMARK   26  A    between atoms: C_43  and  C_44
REMARK                            x       y       z     vdW  Elec       q    Type
REMARK                         _______ _______ _______ _____ _____    ______ ____
ROOT
ATOM      1  O   UNL     1       6.567  11.049  60.487  0.00  0.00    +0.000 OA
ATOM      2  C   UNL     1       1.310   8.113  64.240  0.00  0.00    +0.000 C 
ATOM      3  C   UNL     1       1.111   6.609  64.214  0.00  0.00    +0.000 C 
ATOM      4  C   UNL     1       0.122   7.559  63.479  0.00  0.00    +0.000 C 
ATOM      5  C   UNL     1       2.587   8.729  63.754  0.00  0.00    +0.000 C 
ATOM      6  C   UNL     1       2.191   5.772  63.503  0.00  0.00    +0.000 C 
ATOM      7  C   UNL     1       3.559   7.837  62.853  0.00  0.00    +0.000 C 
ATOM      8  C   UNL     1       3.603   6.448  63.604  0.00  0.00    +0.000 C 
ATOM      9  C   UNL     1      -1.225   7.876  64.107  0.00  0.00    +0.000 C 
ATOM     10  C   UNL     1       0.057   7.639  61.974  0.00  0.00    +0.000 C 
ATOM     11  C   UNL     1       4.938   8.641  62.629  0.00  0.00    +0.000 C 
ATOM     12  C   UNL     1       2.416  10.143  63.232  0.00  0.00    +0.000 C 
ATOM     13  C   UNL     1       4.805   9.982  61.780  0.00  0.00    +0.000 C 
ATOM     14  C   UNL     1       4.691   5.475  63.148  0.00  0.00    +0.000 C 
ATOM     15  C   UNL     1       3.373  11.029  63.584  0.00  0.00    +0.000 C 
ATOM     16  C   UNL     1       4.477  11.269  62.570  0.00  0.00    +0.000 C 
ATOM     17  C   UNL     1       6.090   7.974  61.887  0.00  0.00    +0.000 C 
ATOM     18  C   UNL     1       6.147  10.071  61.086  0.00  0.00    +0.000 C 
ATOM     19  C   UNL     1       6.815   8.764  61.086  0.00  0.00    +0.000 C 
ATOM     20  C   UNL     1       8.033   8.481  60.296  0.00  0.00    +0.000 C 
ENDROOT
BRANCH   7  21
ATOM     21  O   UNL     1       3.003   7.572  61.558  0.00  0.00    +0.000 OA
ATOM     22  H   UNL     1       3.133   6.617  61.364  0.00  0.00    +0.000 HD
ENDBRANCH   7  21
BRANCH  13  23
ATOM     23  O   UNL     1       3.871   9.826  60.684  0.00  0.00    +0.000 OA
ATOM     24  H   UNL     1       3.551  10.727  60.470  0.00  0.00    +0.000 HD
ENDBRANCH  13  23
BRANCH   3  25
ATOM     25  O   UNL     1       0.769   6.139  65.543  0.00  0.00    +0.000 OA
BRANCH  25  27
ATOM     26  O   UNL     1       2.445   6.433  67.008  0.00  0.00    +0.000 OA
ATOM     27  C   UNL     1       1.273   6.640  66.699  0.00  0.00    +0.000 C 
ATOM     28  C   UNL     1       0.402   7.517  67.546  0.00  0.00    +0.000 C 
ENDBRANCH  25  27
ENDBRANCH   3  25
BRANCH  15  29
ATOM     29  C   UNL     1       3.743  11.327  65.014  0.00  0.00    +0.000 C 
BRANCH  29  30
ATOM     30  O   UNL     1       3.596  12.720  65.228  0.00  0.00    +0.000 OA
ATOM     31  H   UNL     1       3.601  12.857  66.193  0.00  0.00    +0.000 HD
ENDBRANCH  29  30
ENDBRANCH  15  29
BRANCH   6  32
ATOM     32  O   UNL     1       2.224   4.460  64.131  0.00  0.00    +0.000 OA
BRANCH  32  34
ATOM     33  O   UNL     1       0.712   2.825  63.929  0.00  0.00    +0.000 OA
ATOM     34  C   UNL     1       1.782   3.311  63.572  0.00  0.00    +0.000 C 
BRANCH  34  35
ATOM     35  C   UNL     1       2.614   2.636  62.510  0.00  0.00    +0.000 C 
BRANCH  35  36
ATOM     36  C   UNL     1       2.173   3.039  61.108  0.00  0.00    +0.000 C 
BRANCH  36  37
ATOM     37  C   UNL     1       3.213   3.856  60.332  0.00  0.00    +0.000 C 
BRANCH  37  38
ATOM     38  C   UNL     1       4.547   3.131  60.105  0.00  0.00    +0.000 C 
BRANCH  38  39
ATOM     39  C   UNL     1       5.693   4.099  59.791  0.00  0.00    +0.000 C 
BRANCH  39  40
ATOM     40  C   UNL     1       5.222   5.518  59.462  0.00  0.00    +0.000 C 
BRANCH  40  41
ATOM     41  C   UNL     1       5.639   5.980  58.063  0.00  0.00    +0.000 C 
BRANCH  41  42
ATOM     42  C   UNL     1       6.724   5.102  57.434  0.00  0.00    +0.000 C 
BRANCH  42  43
ATOM     43  C   UNL     1       8.115   5.734  57.329  0.00  0.00    +0.000 C 
BRANCH  43  44
ATOM     44  C   UNL     1       9.064   5.441  58.495  0.00  0.00    +0.000 C 
BRANCH  44  45
ATOM     45  C   UNL     1      10.064   4.303  58.264  0.00  0.00    +0.000 C 
BRANCH  45  46
ATOM     46  C   UNL     1       9.459   2.906  58.118  0.00  0.00    +0.000 C 
ATOM     47  C   UNL     1       8.894   2.351  59.416  0.00  0.00    +0.000 C 
ENDBRANCH  45  46
ENDBRANCH  44  45
ENDBRANCH  43  44
ENDBRANCH  42  43
ENDBRANCH  41  42
ENDBRANCH  40  41
ENDBRANCH  39  40
ENDBRANCH  38  39
ENDBRANCH  37  38
ENDBRANCH  36  37
ENDBRANCH  35  36
ENDBRANCH  34  35
ENDBRANCH  32  34
ENDBRANCH   6  32
TORSDOF 20
ENDMDL
MODEL 2
REMARK VINA RESULT:      -3.1     12.562     15.554
REMARK  Name = 27924_Phorbol.pdbqt.pdb
REMARK  26 active torsions:
REMARK  status: ('A' for Active; 'I' for Inactive)
REMARK    1  A    between atoms: O_1  and  C_10
REMARK    2  A    between atoms: O_1  and  C_26
REMARK    3  A    between atoms: O_2  and  C_13
REMARK    4  A    between atoms: O_2  and  C_28
REMARK    5  A    between atoms: O_3  and  C_14
REMARK    6  A    between atoms: O_4  and  C_20
REMARK    7  A    between atoms: O_7  and  C_29
REMARK    8  A    between atoms: C_11  and  C_16
REMARK    9  A    between atoms: C_11  and  C_17
REMARK   10  A    between atoms: C_15  and  C_21
REMARK   11  A    between atoms: C_22  and  C_29
REMARK   12  A    between atoms: C_26  and  C_30
REMARK   13  A    between atoms: C_27  and  C_31
REMARK   14  A    between atoms: C_28  and  C_32
REMARK   15  A    between atoms: C_32  and  C_33
REMARK   16  A    between atoms: C_33  and  C_34
REMARK   17  A    between atoms: C_34  and  C_35
REMARK   18  A    between atoms: C_35  and  C_36
REMARK   19  A    between atoms: C_36  and  C_37
REMARK   20  A    between atoms: C_37  and  C_38
REMARK   21  A    between atoms: C_38  and  C_39
REMARK   22  A    between atoms: C_39  and  C_40
REMARK   23  A    between atoms: C_40  and  C_41
REMARK   24  A    between atoms: C_41  and  C_42
REMARK   25  A    between atoms: C_42  and  C_43
REMARK   26  A    between atoms: C_43  and  C_44
REMARK                            x       y       z     vdW  Elec       q    Type
REMARK                         _______ _______ _______ _____ _____    ______ ____
ROOT
ATOM      1  O   UNL     1      12.964  15.721  62.108  0.00  0.00    +0.000 OA
ATOM      2  C   UNL     1      18.526  11.462  60.972  0.00  0.00    +0.000 C 
ATOM      3  C   UNL     1      18.856  11.011  59.562  0.00  0.00    +0.000 C 
ATOM      4  C   UNL     1      18.247  10.021  60.595  0.00  0.00    +0.000 C 
ATOM      5  C   UNL     1      17.594  12.612  61.213  0.00  0.00    +0.000 C 
ATOM      6  C   UNL     1      18.059  11.657  58.414  0.00  0.00    +0.000 C 
ATOM      7  C   UNL     1      16.658  13.089  60.010  0.00  0.00    +0.000 C 
ATOM      8  C   UNL     1      17.631  13.126  58.766  0.00  0.00    +0.000 C 
ATOM      9  C   UNL     1      19.143   9.010  61.290  0.00  0.00    +0.000 C 
ATOM     10  C   UNL     1      16.832   9.508  60.476  0.00  0.00    +0.000 C 
ATOM     11  C   UNL     1      15.908  14.448  60.447  0.00  0.00    +0.000 C 
ATOM     12  C   UNL     1      16.868  12.532  62.543  0.00  0.00    +0.000 C 
ATOM     13  C   UNL     1      14.878  14.290  61.652  0.00  0.00    +0.000 C 
ATOM     14  C   UNL     1      17.097  13.835  57.521  0.00  0.00    +0.000 C 
ATOM     15  C   UNL     1      16.759  13.688  63.234  0.00  0.00    +0.000 C 
ATOM     16  C   UNL     1      15.454  14.447  63.077  0.00  0.00    +0.000 C 
ATOM     17  C   UNL     1      15.027  15.181  59.443  0.00  0.00    +0.000 C 
ATOM     18  C   UNL     1      13.839  15.346  61.341  0.00  0.00    +0.000 C 
ATOM     19  C   UNL     1      13.916  15.747  59.932  0.00  0.00    +0.000 C 
ATOM     20  C   UNL     1      12.896  16.593  59.277  0.00  0.00    +0.000 C 
ENDROOT
BRANCH   7  21
ATOM     21  O   UNL     1      15.646  12.123  59.697  0.00  0.00    +0.000 OA
ATOM     22  H   UNL     1      15.302  12.327  58.799  0.00  0.00    +0.000 HD
ENDBRANCH   7  21
BRANCH  13  23
ATOM     23  O   UNL     1      14.135  13.051  61.556  0.00  0.00    +0.000 OA
ATOM     24  H   UNL     1      13.471  13.186  60.848  0.00  0.00    +0.000 HD
ENDBRANCH  13  23
BRANCH   3  25
ATOM     25  O   UNL     1      20.294  11.022  59.370  0.00  0.00    +0.000 OA
BRANCH  25  27
ATOM     26  O   UNL     1      21.090  13.120  59.448  0.00  0.00    +0.000 OA
ATOM     27  C   UNL     1      21.137  11.964  59.864  0.00  0.00    +0.000 C 
ATOM     28  C   UNL     1      22.064  11.589  60.981  0.00  0.00    +0.000 C 
ENDBRANCH  25  27
ENDBRANCH   3  25
BRANCH  15  29
ATOM     29  C   UNL     1      17.942  14.527  63.639  0.00  0.00    +0.000 C 
BRANCH  29  30
ATOM     30  O   UNL     1      17.728  15.849  63.174  0.00  0.00    +0.000 OA
ATOM     31  H   UNL     1      17.781  15.816  62.202  0.00  0.00    +0.000 HD
ENDBRANCH  29  30
ENDBRANCH  15  29
BRANCH   6  32
ATOM     32  O   UNL     1      18.902  11.658  57.229  0.00  0.00    +0.000 OA
BRANCH  32  34
ATOM     33  O   UNL     1      19.674  10.754  55.335  0.00  0.00    +0.000 OA
ATOM     34  C   UNL     1      18.786  10.810  56.182  0.00  0.00    +0.000 C 
BRANCH  34  35
ATOM     35  C   UNL     1      17.559   9.939  56.067  0.00  0.00    +0.000 C 
BRANCH  35  36
ATOM     36  C   UNL     1      16.726  10.298  54.842  0.00  0.00    +0.000 C 
BRANCH  36  37
ATOM     37  C   UNL     1      15.716  11.425  55.078  0.00  0.00    +0.000 C 
BRANCH  37  38
ATOM     38  C   UNL     1      14.342  11.190  54.437  0.00  0.00    +0.000 C 
BRANCH  38  39
ATOM     39  C   UNL     1      13.187  11.609  55.354  0.00  0.00    +0.000 C 
BRANCH  39  40
ATOM     40  C   UNL     1      13.649  12.144  56.712  0.00  0.00    +0.000 C 
BRANCH  40  41
ATOM     41  C   UNL     1      12.825  13.340  57.197  0.00  0.00    +0.000 C 
BRANCH  41  42
ATOM     42  C   UNL     1      12.706  14.456  56.156  0.00  0.00    +0.000 C 
BRANCH  42  43
ATOM     43  C   UNL     1      13.991  15.238  55.868  0.00  0.00    +0.000 C 
BRANCH  43  44
ATOM     44  C   UNL     1      14.629  14.981  54.499  0.00  0.00    +0.000 C 
BRANCH  44  45
ATOM     45  C   UNL     1      16.076  15.458  54.343  0.00  0.00    +0.000 C 
BRANCH  45  46
ATOM     46  C   UNL     1      17.048  14.447  53.731  0.00  0.00    +0.000 C 
ATOM     47  C   UNL     1      16.752  14.127  52.274  0.00  0.00    +0.000 C 
ENDBRANCH  45  46
ENDBRANCH  44  45
ENDBRANCH  43  44
ENDBRANCH  42  43
ENDBRANCH  41  42
ENDBRANCH  40  41
ENDBRANCH  39  40
ENDBRANCH  38  39
ENDBRANCH  37  38
ENDBRANCH  36  37
ENDBRANCH  35  36
ENDBRANCH  34  35
ENDBRANCH  32  34
ENDBRANCH   6  32
TORSDOF 20
ENDMDL
MODEL 3
REMARK VINA RESULT:      -3.1     12.740     15.537
REMARK  Name = 27924_Phorbol.pdbqt.pdb
REMARK  26 active torsions:
REMARK  status: ('A' for Active; 'I' for Inactive)
REMARK    1  A    between atoms: O_1  and  C_10
REMARK    2  A    between atoms: O_1  and  C_26
REMARK    3  A    between atoms: O_2  and  C_13
REMARK    4  A    between atoms: O_2  and  C_28
REMARK    5  A    between atoms: O_3  and  C_14
REMARK    6  A    between atoms: O_4  and  C_20
REMARK    7  A    between atoms: O_7  and  C_29
REMARK    8  A    between atoms: C_11  and  C_16
REMARK    9  A    between atoms: C_11  and  C_17
REMARK   10  A    between atoms: C_15  and  C_21
REMARK   11  A    between atoms: C_22  and  C_29
REMARK   12  A    between atoms: C_26  and  C_30
REMARK   13  A    between atoms: C_27  and  C_31
REMARK   14  A    between atoms: C_28  and  C_32
REMARK   15  A    between atoms: C_32  and  C_33
REMARK   16  A    between atoms: C_33  and  C_34
REMARK   17  A    between atoms: C_34  and  C_35
REMARK   18  A    between atoms: C_35  and  C_36
REMARK   19  A    between atoms: C_36  and  C_37
REMARK   20  A    between atoms: C_37  and  C_38
REMARK   21  A    between atoms: C_38  and  C_39
REMARK   22  A    between atoms: C_39  and  C_40
REMARK   23  A    between atoms: C_40  and  C_41
REMARK   24  A    between atoms: C_41  and  C_42
REMARK   25  A    between atoms: C_42  and  C_43
REMARK   26  A    between atoms: C_43  and  C_44
REMARK                            x       y       z     vdW  Elec       q    Type
REMARK                         _______ _______ _______ _____ _____    ______ ____
ROOT
ATOM      1  O   UNL     1      14.620   1.634  74.331  0.00  0.00    +0.000 OA
ATOM      2  C   UNL     1      15.878   7.637  70.760  0.00  0.00    +0.000 C 
ATOM      3  C   UNL     1      16.641   7.590  69.450  0.00  0.00    +0.000 C 
ATOM      4  C   UNL     1      17.300   8.161  70.738  0.00  0.00    +0.000 C 
ATOM      5  C   UNL     1      15.300   6.389  71.358  0.00  0.00    +0.000 C 
ATOM      6  C   UNL     1      16.951   6.198  68.868  0.00  0.00    +0.000 C 
ATOM      7  C   UNL     1      15.830   4.980  70.823  0.00  0.00    +0.000 C 
ATOM      8  C   UNL     1      15.845   5.154  69.253  0.00  0.00    +0.000 C 
ATOM      9  C   UNL     1      17.413   9.665  70.924  0.00  0.00    +0.000 C 
ATOM     10  C   UNL     1      18.408   7.435  71.462  0.00  0.00    +0.000 C 
ATOM     11  C   UNL     1      14.926   3.810  71.465  0.00  0.00    +0.000 C 
ATOM     12  C   UNL     1      15.173   6.446  72.869  0.00  0.00    +0.000 C 
ATOM     13  C   UNL     1      15.051   3.654  73.045  0.00  0.00    +0.000 C 
ATOM     14  C   UNL     1      16.021   3.871  68.440  0.00  0.00    +0.000 C 
ATOM     15  C   UNL     1      14.033   5.944  73.391  0.00  0.00    +0.000 C 
ATOM     16  C   UNL     1      14.096   4.515  73.901  0.00  0.00    +0.000 C 
ATOM     17  C   UNL     1      15.149   2.364  71.039  0.00  0.00    +0.000 C 
ATOM     18  C   UNL     1      14.816   2.173  73.252  0.00  0.00    +0.000 C 
ATOM     19  C   UNL     1      15.020   1.438  71.998  0.00  0.00    +0.000 C 
ATOM     20  C   UNL     1      15.080  -0.037  71.929  0.00  0.00    +0.000 C 
ENDROOT
BRANCH   7  21
ATOM     21  O   UNL     1      17.189   4.732  71.208  0.00  0.00    +0.000 OA
ATOM     22  H   UNL     1      17.768   5.309  70.662  0.00  0.00    +0.000 HD
ENDBRANCH   7  21
BRANCH  13  23
ATOM     23  O   UNL     1      16.416   3.842  73.491  0.00  0.00    +0.000 OA
ATOM     24  H   UNL     1      16.950   3.168  73.021  0.00  0.00    +0.000 HD
ENDBRANCH  13  23
BRANCH   3  25
ATOM     25  O   UNL     1      16.043   8.514  68.504  0.00  0.00    +0.000 OA
BRANCH  25  27
ATOM     26  O   UNL     1      14.010   7.849  67.822  0.00  0.00    +0.000 OA
ATOM     27  C   UNL     1      14.710   8.712  68.348  0.00  0.00    +0.000 C 
ATOM     28  C   UNL     1      14.096   9.962  68.902  0.00  0.00    +0.000 C 
ENDBRANCH  25  27
ENDBRANCH   3  25
BRANCH  15  29
ATOM     29  C   UNL     1      12.660   6.424  73.001  0.00  0.00    +0.000 C 
BRANCH  29  30
ATOM     30  O   UNL     1      12.670   7.841  72.997  0.00  0.00    +0.000 OA
ATOM     31  H   UNL     1      12.522   8.125  73.916  0.00  0.00    +0.000 HD
ENDBRANCH  29  30
ENDBRANCH  15  29
BRANCH   6  32
ATOM     32  O   UNL     1      17.030   6.327  67.422  0.00  0.00    +0.000 OA
BRANCH  32  34
ATOM     33  O   UNL     1      18.294   7.462  65.968  0.00  0.00    +0.000 OA
ATOM     34  C   UNL     1      18.167   6.490  66.708  0.00  0.00    +0.000 C 
BRANCH  34  35
ATOM     35  C   UNL     1      19.271   5.469  66.830  0.00  0.00    +0.000 C 
BRANCH  35  36
ATOM     36  C   UNL     1      19.478   4.704  65.529  0.00  0.00    +0.000 C 
BRANCH  36  37
ATOM     37  C   UNL     1      18.238   3.944  65.043  0.00  0.00    +0.000 C 
BRANCH  37  38
ATOM     38  C   UNL     1      18.428   2.425  64.932  0.00  0.00    +0.000 C 
BRANCH  38  39
ATOM     39  C   UNL     1      17.503   1.648  65.874  0.00  0.00    +0.000 C 
BRANCH  39  40
ATOM     40  C   UNL     1      16.747   0.509  65.186  0.00  0.00    +0.000 C 
BRANCH  40  41
ATOM     41  C   UNL     1      15.594  -0.043  66.029  0.00  0.00    +0.000 C 
BRANCH  41  42
ATOM     42  C   UNL     1      16.012  -0.418  67.454  0.00  0.00    +0.000 C 
BRANCH  42  43
ATOM     43  C   UNL     1      14.887  -0.447  68.493  0.00  0.00    +0.000 C 
BRANCH  43  44
ATOM     44  C   UNL     1      13.721  -1.390  68.179  0.00  0.00    +0.000 C 
BRANCH  44  45
ATOM     45  C   UNL     1      12.337  -0.894  68.606  0.00  0.00    +0.000 C 
BRANCH  45  46
ATOM     46  C   UNL     1      11.878  -1.321  70.002  0.00  0.00    +0.000 C 
ATOM     47  C   UNL     1      11.592  -0.151  70.930  0.00  0.00    +0.000 C 
ENDBRANCH  45  46
ENDBRANCH  44  45
ENDBRANCH  43  44
ENDBRANCH  42  43
ENDBRANCH  41  42
ENDBRANCH  40  41
ENDBRANCH  39  40
ENDBRANCH  38  39
ENDBRANCH  37  38
ENDBRANCH  36  37
ENDBRANCH  35  36
ENDBRANCH  34  35
ENDBRANCH  32  34
ENDBRANCH   6  32
TORSDOF 20
ENDMDL
MODEL 4
REMARK VINA RESULT:      -3.0     11.520     17.125
REMARK  Name = 27924_Phorbol.pdbqt.pdb
REMARK  26 active torsions:
REMARK  status: ('A' for Active; 'I' for Inactive)
REMARK    1  A    between atoms: O_1  and  C_10
REMARK    2  A    between atoms: O_1  and  C_26
REMARK    3  A    between atoms: O_2  and  C_13
REMARK    4  A    between atoms: O_2  and  C_28
REMARK    5  A    between atoms: O_3  and  C_14
REMARK    6  A    between atoms: O_4  and  C_20
REMARK    7  A    between atoms: O_7  and  C_29
REMARK    8  A    between atoms: C_11  and  C_16
REMARK    9  A    between atoms: C_11  and  C_17
REMARK   10  A    between atoms: C_15  and  C_21
REMARK   11  A    between atoms: C_22  and  C_29
REMARK   12  A    between atoms: C_26  and  C_30
REMARK   13  A    between atoms: C_27  and  C_31
REMARK   14  A    between atoms: C_28  and  C_32
REMARK   15  A    between atoms: C_32  and  C_33
REMARK   16  A    between atoms: C_33  and  C_34
REMARK   17  A    between atoms: C_34  and  C_35
REMARK   18  A    between atoms: C_35  and  C_36
REMARK   19  A    between atoms: C_36  and  C_37
REMARK   20  A    between atoms: C_37  and  C_38
REMARK   21  A    between atoms: C_38  and  C_39
REMARK   22  A    between atoms: C_39  and  C_40
REMARK   23  A    between atoms: C_40  and  C_41
REMARK   24  A    between atoms: C_41  and  C_42
REMARK   25  A    between atoms: C_42  and  C_43
REMARK   26  A    between atoms: C_43  and  C_44
REMARK                            x       y       z     vdW  Elec       q    Type
REMARK                         _______ _______ _______ _____ _____    ______ ____
ROOT
ATOM      1  O   UNL     1      21.140   8.453  54.283  0.00  0.00    +0.000 OA
ATOM      2  C   UNL     1      21.589   9.133  61.332  0.00  0.00    +0.000 C 
ATOM      3  C   UNL     1      20.517   9.897  62.087  0.00  0.00    +0.000 C 
ATOM      4  C   UNL     1      21.938  10.499  61.889  0.00  0.00    +0.000 C 
ATOM      5  C   UNL     1      21.360   8.677  59.922  0.00  0.00    +0.000 C 
ATOM      6  C   UNL     1      19.276  10.337  61.289  0.00  0.00    +0.000 C 
ATOM      7  C   UNL     1      20.159   9.338  59.102  0.00  0.00    +0.000 C 
ATOM      8  C   UNL     1      18.955   9.334  60.125  0.00  0.00    +0.000 C 
ATOM      9  C   UNL     1      22.936  10.469  63.035  0.00  0.00    +0.000 C 
ATOM     10  C   UNL     1      22.191  11.671  60.974  0.00  0.00    +0.000 C 
ATOM     11  C   UNL     1      19.992   8.549  57.705  0.00  0.00    +0.000 C 
ATOM     12  C   UNL     1      22.637   8.546  59.114  0.00  0.00    +0.000 C 
ATOM     13  C   UNL     1      21.221   8.689  56.702  0.00  0.00    +0.000 C 
ATOM     14  C   UNL     1      17.576   9.631  59.535  0.00  0.00    +0.000 C 
ATOM     15  C   UNL     1      22.731   7.459  58.318  0.00  0.00    +0.000 C 
ATOM     16  C   UNL     1      22.361   7.658  56.859  0.00  0.00    +0.000 C 
ATOM     17  C   UNL     1      18.846   8.908  56.768  0.00  0.00    +0.000 C 
ATOM     18  C   UNL     1      20.556   8.596  55.346  0.00  0.00    +0.000 C 
ATOM     19  C   UNL     1      19.118   8.868  55.457  0.00  0.00    +0.000 C 
ATOM     20  C   UNL     1      18.242   9.067  54.284  0.00  0.00    +0.000 C 
ENDROOT
BRANCH   7  21
ATOM     21  O   UNL     1      20.412  10.714  58.789  0.00  0.00    +0.000 OA
ATOM     22  H   UNL     1      19.552  11.191  58.808  0.00  0.00    +0.000 HD
ENDBRANCH   7  21
BRANCH  13  23
ATOM     23  O   UNL     1      21.767  10.031  56.716  0.00  0.00    +0.000 OA
ATOM     24  H   UNL     1      21.766  10.334  55.784  0.00  0.00    +0.000 HD
ENDBRANCH  13  23
BRANCH   3  25
ATOM     25  O   UNL     1      20.217   9.213  63.331  0.00  0.00    +0.000 OA
BRANCH  25  27
ATOM     26  O   UNL     1      19.409   7.170  62.869  0.00  0.00    +0.000 OA
ATOM     27  C   UNL     1      20.206   7.866  63.495  0.00  0.00    +0.000 C 
ATOM     28  C   UNL     1      21.235   7.239  64.387  0.00  0.00    +0.000 C 
ENDBRANCH  25  27
ENDBRANCH   3  25
BRANCH  15  29
ATOM     29  C   UNL     1      22.603   6.046  58.824  0.00  0.00    +0.000 C 
BRANCH  29  30
ATOM     30  O   UNL     1      23.032   5.168  57.798  0.00  0.00    +0.000 OA
ATOM     31  H   UNL     1      23.849   4.743  58.116  0.00  0.00    +0.000 HD
ENDBRANCH  29  30
ENDBRANCH  15  29
BRANCH   6  32
ATOM     32  O   UNL     1      18.153  10.402  62.210  0.00  0.00    +0.000 OA
BRANCH  32  34
ATOM     33  O   UNL     1      17.319  11.488  63.978  0.00  0.00    +0.000 OA
ATOM     34  C   UNL     1      17.690  11.523  62.807  0.00  0.00    +0.000 C 
BRANCH  34  35
ATOM     35  C   UNL     1      17.636  12.811  62.023  0.00  0.00    +0.000 C 
BRANCH  35  36
ATOM     36  C   UNL     1      16.296  13.517  62.191  0.00  0.00    +0.000 C 
BRANCH  36  37
ATOM     37  C   UNL     1      15.613  13.891  60.871  0.00  0.00    +0.000 C 
BRANCH  37  38
ATOM     38  C   UNL     1      15.710  12.816  59.781  0.00  0.00    +0.000 C 
BRANCH  38  39
ATOM     39  C   UNL     1      14.335  12.385  59.259  0.00  0.00    +0.000 C 
BRANCH  39  40
ATOM     40  C   UNL     1      13.308  12.143  60.368  0.00  0.00    +0.000 C 
BRANCH  40  41
ATOM     41  C   UNL     1      11.864  12.357  59.906  0.00  0.00    +0.000 C 
BRANCH  41  42
ATOM     42  C   UNL     1      10.860  12.406  61.061  0.00  0.00    +0.000 C 
BRANCH  42  43
ATOM     43  C   UNL     1      11.311  13.178  62.304  0.00  0.00    +0.000 C 
BRANCH  43  44
ATOM     44  C   UNL     1      10.763  14.603  62.432  0.00  0.00    +0.000 C 
BRANCH  44  45
ATOM     45  C   UNL     1      11.808  15.721  62.374  0.00  0.00    +0.000 C 
BRANCH  45  46
ATOM     46  C   UNL     1      12.588  15.836  61.062  0.00  0.00    +0.000 C 
ATOM     47  C   UNL     1      11.702  16.089  59.852  0.00  0.00    +0.000 C 
ENDBRANCH  45  46
ENDBRANCH  44  45
ENDBRANCH  43  44
ENDBRANCH  42  43
ENDBRANCH  41  42
ENDBRANCH  40  41
ENDBRANCH  39  40
ENDBRANCH  38  39
ENDBRANCH  37  38
ENDBRANCH  36  37
ENDBRANCH  35  36
ENDBRANCH  34  35
ENDBRANCH  32  34
ENDBRANCH   6  32
TORSDOF 20
ENDMDL
MODEL 5
REMARK VINA RESULT:      -2.8     12.811     15.657
REMARK  Name = 27924_Phorbol.pdbqt.pdb
REMARK  26 active torsions:
REMARK  status: ('A' for Active; 'I' for Inactive)
REMARK    1  A    between atoms: O_1  and  C_10
REMARK    2  A    between atoms: O_1  and  C_26
REMARK    3  A    between atoms: O_2  and  C_13
REMARK    4  A    between atoms: O_2  and  C_28
REMARK    5  A    between atoms: O_3  and  C_14
REMARK    6  A    between atoms: O_4  and  C_20
REMARK    7  A    between atoms: O_7  and  C_29
REMARK    8  A    between atoms: C_11  and  C_16
REMARK    9  A    between atoms: C_11  and  C_17
REMARK   10  A    between atoms: C_15  and  C_21
REMARK   11  A    between atoms: C_22  and  C_29
REMARK   12  A    between atoms: C_26  and  C_30
REMARK   13  A    between atoms: C_27  and  C_31
REMARK   14  A    between atoms: C_28  and  C_32
REMARK   15  A    between atoms: C_32  and  C_33
REMARK   16  A    between atoms: C_33  and  C_34
REMARK   17  A    between atoms: C_34  and  C_35
REMARK   18  A    between atoms: C_35  and  C_36
REMARK   19  A    between atoms: C_36  and  C_37
REMARK   20  A    between atoms: C_37  and  C_38
REMARK   21  A    between atoms: C_38  and  C_39
REMARK   22  A    between atoms: C_39  and  C_40
REMARK   23  A    between atoms: C_40  and  C_41
REMARK   24  A    between atoms: C_41  and  C_42
REMARK   25  A    between atoms: C_42  and  C_43
REMARK   26  A    between atoms: C_43  and  C_44
REMARK                            x       y       z     vdW  Elec       q    Type
REMARK                         _______ _______ _______ _____ _____    ______ ____
ROOT
ATOM      1  O   UNL     1      13.937   2.004  73.799  0.00  0.00    +0.000 OA
ATOM      2  C   UNL     1      16.006   8.211  71.051  0.00  0.00    +0.000 C 
ATOM      3  C   UNL     1      16.774   8.239  69.743  0.00  0.00    +0.000 C 
ATOM      4  C   UNL     1      17.484   8.545  71.093  0.00  0.00    +0.000 C 
ATOM      5  C   UNL     1      15.264   6.981  71.481  0.00  0.00    +0.000 C 
ATOM      6  C   UNL     1      16.909   6.909  68.980  0.00  0.00    +0.000 C 
ATOM      7  C   UNL     1      15.615   5.599  70.761  0.00  0.00    +0.000 C 
ATOM      8  C   UNL     1      15.672   5.975  69.227  0.00  0.00    +0.000 C 
ATOM      9  C   UNL     1      17.788   9.984  71.476  0.00  0.00    +0.000 C 
ATOM     10  C   UNL     1      18.479   7.592  71.708  0.00  0.00    +0.000 C 
ATOM     11  C   UNL     1      14.559   4.481  71.246  0.00  0.00    +0.000 C 
ATOM     12  C   UNL     1      15.126   6.854  72.986  0.00  0.00    +0.000 C 
ATOM     13  C   UNL     1      14.642   4.103  72.791  0.00  0.00    +0.000 C 
ATOM     14  C   UNL     1      15.691   4.799  68.251  0.00  0.00    +0.000 C 
ATOM     15  C   UNL     1      13.924   6.440  73.443  0.00  0.00    +0.000 C 
ATOM     16  C   UNL     1      13.795   4.960  73.757  0.00  0.00    +0.000 C 
ATOM     17  C   UNL     1      14.598   3.088  70.631  0.00  0.00    +0.000 C 
ATOM     18  C   UNL     1      14.215   2.651  72.800  0.00  0.00    +0.000 C 
ATOM     19  C   UNL     1      14.339   2.068  71.459  0.00  0.00    +0.000 C 
ATOM     20  C   UNL     1      14.208   0.620  71.194  0.00  0.00    +0.000 C 
ENDROOT
BRANCH   7  21
ATOM     21  O   UNL     1      16.925   5.128  71.104  0.00  0.00    +0.000 OA
ATOM     22  H   UNL     1      17.570   5.831  70.868  0.00  0.00    +0.000 HD
ENDBRANCH   7  21
BRANCH  13  23
ATOM     23  O   UNL     1      16.014   4.052  73.251  0.00  0.00    +0.000 OA
ATOM     24  H   UNL     1      16.462   3.382  72.694  0.00  0.00    +0.000 HD
ENDBRANCH  13  23
BRANCH   3  25
ATOM     25  O   UNL     1      16.313   9.350  68.930  0.00  0.00    +0.000 OA
BRANCH  25  27
ATOM     26  O   UNL     1      14.700  10.826  69.444  0.00  0.00    +0.000 OA
ATOM     27  C   UNL     1      15.030   9.789  68.871  0.00  0.00    +0.000 C 
ATOM     28  C   UNL     1      14.047   9.034  68.028  0.00  0.00    +0.000 C 
ENDBRANCH  25  27
ENDBRANCH   3  25
BRANCH  15  29
ATOM     29  C   UNL     1      12.630   7.141  73.126  0.00  0.00    +0.000 C 
BRANCH  29  30
ATOM     30  O   UNL     1      12.239   7.889  74.265  0.00  0.00    +0.000 OA
ATOM     31  H   UNL     1      13.059   8.175  74.706  0.00  0.00    +0.000 HD
ENDBRANCH  29  30
ENDBRANCH  15  29
BRANCH   6  32
ATOM     32  O   UNL     1      17.022   7.216  67.563  0.00  0.00    +0.000 OA
BRANCH  32  34
ATOM     33  O   UNL     1      18.287   8.043  65.915  0.00  0.00    +0.000 OA
ATOM     34  C   UNL     1      18.176   7.265  66.860  0.00  0.00    +0.000 C 
BRANCH  34  35
ATOM     35  C   UNL     1      19.318   6.358  67.246  0.00  0.00    +0.000 C 
BRANCH  35  36
ATOM     36  C   UNL     1      19.736   5.455  66.093  0.00  0.00    +0.000 C 
BRANCH  36  37
ATOM     37  C   UNL     1      21.233   5.503  65.768  0.00  0.00    +0.000 C 
BRANCH  37  38
ATOM     38  C   UNL     1      21.799   6.918  65.591  0.00  0.00    +0.000 C 
BRANCH  38  39
ATOM     39  C   UNL     1      22.448   7.123  64.218  0.00  0.00    +0.000 C 
BRANCH  39  40
ATOM     40  C   UNL     1      21.638   6.526  63.064  0.00  0.00    +0.000 C 
BRANCH  40  41
ATOM     41  C   UNL     1      20.887   7.583  62.248  0.00  0.00    +0.000 C 
BRANCH  41  42
ATOM     42  C   UNL     1      19.435   7.774  62.696  0.00  0.00    +0.000 C 
BRANCH  42  43
ATOM     43  C   UNL     1      18.810   9.132  62.365  0.00  0.00    +0.000 C 
BRANCH  43  44
ATOM     44  C   UNL     1      18.565   9.403  60.877  0.00  0.00    +0.000 C 
BRANCH  44  45
ATOM     45  C   UNL     1      17.098   9.420  60.440  0.00  0.00    +0.000 C 
BRANCH  45  46
ATOM     46  C   UNL     1      16.483  10.805  60.227  0.00  0.00    +0.000 C 
ATOM     47  C   UNL     1      15.797  11.360  61.466  0.00  0.00    +0.000 C 
ENDBRANCH  45  46
ENDBRANCH  44  45
ENDBRANCH  43  44
ENDBRANCH  42  43
ENDBRANCH  41  42
ENDBRANCH  40  41
ENDBRANCH  39  40
ENDBRANCH  38  39
ENDBRANCH  37  38
ENDBRANCH  36  37
ENDBRANCH  35  36
ENDBRANCH  34  35
ENDBRANCH  32  34
ENDBRANCH   6  32
TORSDOF 20
ENDMDL
MODEL 6
REMARK VINA RESULT:      -2.8     11.909     17.219
REMARK  Name = 27924_Phorbol.pdbqt.pdb
REMARK  26 active torsions:
REMARK  status: ('A' for Active; 'I' for Inactive)
REMARK    1  A    between atoms: O_1  and  C_10
REMARK    2  A    between atoms: O_1  and  C_26
REMARK    3  A    between atoms: O_2  and  C_13
REMARK    4  A    between atoms: O_2  and  C_28
REMARK    5  A    between atoms: O_3  and  C_14
REMARK    6  A    between atoms: O_4  and  C_20
REMARK    7  A    between atoms: O_7  and  C_29
REMARK    8  A    between atoms: C_11  and  C_16
REMARK    9  A    between atoms: C_11  and  C_17
REMARK   10  A    between atoms: C_15  and  C_21
REMARK   11  A    between atoms: C_22  and  C_29
REMARK   12  A    between atoms: C_26  and  C_30
REMARK   13  A    between atoms: C_27  and  C_31
REMARK   14  A    between atoms: C_28  and  C_32
REMARK   15  A    between atoms: C_32  and  C_33
REMARK   16  A    between atoms: C_33  and  C_34
REMARK   17  A    between atoms: C_34  and  C_35
REMARK   18  A    between atoms: C_35  and  C_36
REMARK   19  A    between atoms: C_36  and  C_37
REMARK   20  A    between atoms: C_37  and  C_38
REMARK   21  A    between atoms: C_38  and  C_39
REMARK   22  A    between atoms: C_39  and  C_40
REMARK   23  A    between atoms: C_40  and  C_41
REMARK   24  A    between atoms: C_41  and  C_42
REMARK   25  A    between atoms: C_42  and  C_43
REMARK   26  A    between atoms: C_43  and  C_44
REMARK                            x       y       z     vdW  Elec       q    Type
REMARK                         _______ _______ _______ _____ _____    ______ ____
ROOT
ATOM      1  O   UNL     1      14.448  11.968  61.239  0.00  0.00    +0.000 OA
ATOM      2  C   UNL     1      20.215  11.226  57.170  0.00  0.00    +0.000 C 
ATOM      3  C   UNL     1      20.061  10.927  55.690  0.00  0.00    +0.000 C 
ATOM      4  C   UNL     1      20.558   9.833  56.678  0.00  0.00    +0.000 C 
ATOM      5  C   UNL     1      19.054  11.723  57.978  0.00  0.00    +0.000 C 
ATOM      6  C   UNL     1      18.637  10.980  55.107  0.00  0.00    +0.000 C 
ATOM      7  C   UNL     1      17.586  11.556  57.371  0.00  0.00    +0.000 C 
ATOM      8  C   UNL     1      17.742  12.020  55.869  0.00  0.00    +0.000 C 
ATOM      9  C   UNL     1      22.038   9.495  56.747  0.00  0.00    +0.000 C 
ATOM     10  C   UNL     1      19.707   8.645  57.052  0.00  0.00    +0.000 C 
ATOM     11  C   UNL     1      16.543  12.338  58.320  0.00  0.00    +0.000 C 
ATOM     12  C   UNL     1      19.140  11.357  59.448  0.00  0.00    +0.000 C 
ATOM     13  C   UNL     1      16.387  11.738  59.787  0.00  0.00    +0.000 C 
ATOM     14  C   UNL     1      16.440  12.260  55.105  0.00  0.00    +0.000 C 
ATOM     15  C   UNL     1      18.789  12.323  60.325  0.00  0.00    +0.000 C 
ATOM     16  C   UNL     1      17.368  12.266  60.857  0.00  0.00    +0.000 C 
ATOM     17  C   UNL     1      15.077  12.430  57.916  0.00  0.00    +0.000 C 
ATOM     18  C   UNL     1      14.948  12.064  60.128  0.00  0.00    +0.000 C 
ATOM     19  C   UNL     1      14.183  12.354  58.910  0.00  0.00    +0.000 C 
ATOM     20  C   UNL     1      12.711  12.490  58.897  0.00  0.00    +0.000 C 
ENDROOT
BRANCH   7  21
ATOM     21  O   UNL     1      17.174  10.183  57.323  0.00  0.00    +0.000 OA
ATOM     22  H   UNL     1      17.374   9.840  56.424  0.00  0.00    +0.000 HD
ENDBRANCH   7  21
BRANCH  13  23
ATOM     23  O   UNL     1      16.408  10.290  59.773  0.00  0.00    +0.000 OA
ATOM     24  H   UNL     1      16.325  10.027  58.833  0.00  0.00    +0.000 HD
ENDBRANCH  13  23
BRANCH   3  25
ATOM     25  O   UNL     1      21.044  11.684  54.936  0.00  0.00    +0.000 OA
BRANCH  25  27
ATOM     26  O   UNL     1      20.615  13.885  55.055  0.00  0.00    +0.000 OA
ATOM     27  C   UNL     1      21.414  12.961  55.204  0.00  0.00    +0.000 C 
ATOM     28  C   UNL     1      22.782  13.215  55.762  0.00  0.00    +0.000 C 
ENDBRANCH  25  27
ENDBRANCH   3  25
BRANCH  15  29
ATOM     29  C   UNL     1      19.432  13.684  60.362  0.00  0.00    +0.000 C 
BRANCH  29  30
ATOM     30  O   UNL     1      18.588  14.553  61.098  0.00  0.00    +0.000 OA
ATOM     31  H   UNL     1      18.723  14.344  62.039  0.00  0.00    +0.000 HD
ENDBRANCH  29  30
ENDBRANCH  15  29
BRANCH   6  32
ATOM     32  O   UNL     1      18.741  11.350  53.705  0.00  0.00    +0.000 OA
BRANCH  32  34
ATOM     33  O   UNL     1      17.621  10.791  51.852  0.00  0.00    +0.000 OA
ATOM     34  C   UNL     1      18.511  10.527  52.657  0.00  0.00    +0.000 C 
BRANCH  34  35
ATOM     35  C   UNL     1      19.356   9.289  52.488  0.00  0.00    +0.000 C 
BRANCH  35  36
ATOM     36  C   UNL     1      18.637   8.043  52.993  0.00  0.00    +0.000 C 
BRANCH  36  37
ATOM     37  C   UNL     1      18.476   6.941  51.940  0.00  0.00    +0.000 C 
BRANCH  37  38
ATOM     38  C   UNL     1      19.797   6.318  51.468  0.00  0.00    +0.000 C 
BRANCH  38  39
ATOM     39  C   UNL     1      19.895   4.827  51.806  0.00  0.00    +0.000 C 
BRANCH  39  40
ATOM     40  C   UNL     1      21.110   4.475  52.669  0.00  0.00    +0.000 C 
BRANCH  40  41
ATOM     41  C   UNL     1      21.838   3.214  52.195  0.00  0.00    +0.000 C 
BRANCH  41  42
ATOM     42  C   UNL     1      21.722   2.043  53.175  0.00  0.00    +0.000 C 
BRANCH  42  43
ATOM     43  C   UNL     1      20.549   2.110  54.158  0.00  0.00    +0.000 C 
BRANCH  43  44
ATOM     44  C   UNL     1      19.297   1.328  53.748  0.00  0.00    +0.000 C 
BRANCH  44  45
ATOM     45  C   UNL     1      18.618   0.533  54.867  0.00  0.00    +0.000 C 
BRANCH  45  46
ATOM     46  C   UNL     1      19.533   0.067  56.002  0.00  0.00    +0.000 C 
ATOM     47  C   UNL     1      20.248  -1.241  55.705  0.00  0.00    +0.000 C 
ENDBRANCH  45  46
ENDBRANCH  44  45
ENDBRANCH  43  44
ENDBRANCH  42  43
ENDBRANCH  41  42
ENDBRANCH  40  41
ENDBRANCH  39  40
ENDBRANCH  38  39
ENDBRANCH  37  38
ENDBRANCH  36  37
ENDBRANCH  35  36
ENDBRANCH  34  35
ENDBRANCH  32  34
ENDBRANCH   6  32
TORSDOF 20
ENDMDL
MODEL 7
REMARK VINA RESULT:      -2.7     11.166     15.149
REMARK  Name = 27924_Phorbol.pdbqt.pdb
REMARK  26 active torsions:
REMARK  status: ('A' for Active; 'I' for Inactive)
REMARK    1  A    between atoms: O_1  and  C_10
REMARK    2  A    between atoms: O_1  and  C_26
REMARK    3  A    between atoms: O_2  and  C_13
REMARK    4  A    between atoms: O_2  and  C_28
REMARK    5  A    between atoms: O_3  and  C_14
REMARK    6  A    between atoms: O_4  and  C_20
REMARK    7  A    between atoms: O_7  and  C_29
REMARK    8  A    between atoms: C_11  and  C_16
REMARK    9  A    between atoms: C_11  and  C_17
REMARK   10  A    between atoms: C_15  and  C_21
REMARK   11  A    between atoms: C_22  and  C_29
REMARK   12  A    between atoms: C_26  and  C_30
REMARK   13  A    between atoms: C_27  and  C_31
REMARK   14  A    between atoms: C_28  and  C_32
REMARK   15  A    between atoms: C_32  and  C_33
REMARK   16  A    between atoms: C_33  and  C_34
REMARK   17  A    between atoms: C_34  and  C_35
REMARK   18  A    between atoms: C_35  and  C_36
REMARK   19  A    between atoms: C_36  and  C_37
REMARK   20  A    between atoms: C_37  and  C_38
REMARK   21  A    between atoms: C_38  and  C_39
REMARK   22  A    between atoms: C_39  and  C_40
REMARK   23  A    between atoms: C_40  and  C_41
REMARK   24  A    between atoms: C_41  and  C_42
REMARK   25  A    between atoms: C_42  and  C_43
REMARK   26  A    between atoms: C_43  and  C_44
REMARK                            x       y       z     vdW  Elec       q    Type
REMARK                         _______ _______ _______ _____ _____    ______ ____
ROOT
ATOM      1  O   UNL     1      19.958  14.530  54.609  0.00  0.00    +0.000 OA
ATOM      2  C   UNL     1      12.893  14.000  54.213  0.00  0.00    +0.000 C 
ATOM      3  C   UNL     1      12.075  13.845  55.481  0.00  0.00    +0.000 C 
ATOM      4  C   UNL     1      12.268  12.650  54.504  0.00  0.00    +0.000 C 
ATOM      5  C   UNL     1      14.320  14.454  54.270  0.00  0.00    +0.000 C 
ATOM      6  C   UNL     1      12.821  13.993  56.820  0.00  0.00    +0.000 C 
ATOM      7  C   UNL     1      15.078  14.387  55.674  0.00  0.00    +0.000 C 
ATOM      8  C   UNL     1      14.032  14.984  56.697  0.00  0.00    +0.000 C 
ATOM      9  C   UNL     1      11.147  12.263  53.555  0.00  0.00    +0.000 C 
ATOM     10  C   UNL     1      13.123  11.457  54.856  0.00  0.00    +0.000 C 
ATOM     11  C   UNL     1      16.512  15.108  55.523  0.00  0.00    +0.000 C 
ATOM     12  C   UNL     1      15.161  13.951  53.111  0.00  0.00    +0.000 C 
ATOM     13  C   UNL     1      17.531  14.379  54.539  0.00  0.00    +0.000 C 
ATOM     14  C   UNL     1      14.576  15.331  58.083  0.00  0.00    +0.000 C 
ATOM     15  C   UNL     1      16.018  14.841  52.565  0.00  0.00    +0.000 C 
ATOM     16  C   UNL     1      17.456  14.777  53.049  0.00  0.00    +0.000 C 
ATOM     17  C   UNL     1      17.404  15.280  56.746  0.00  0.00    +0.000 C 
ATOM     18  C   UNL     1      18.876  14.714  55.147  0.00  0.00    +0.000 C 
ATOM     19  C   UNL     1      18.721  15.138  56.543  0.00  0.00    +0.000 C 
ATOM     20  C   UNL     1      19.863  15.317  57.464  0.00  0.00    +0.000 C 
ENDROOT
BRANCH   7  21
ATOM     21  O   UNL     1      15.320  13.037  56.094  0.00  0.00    +0.000 OA
ATOM     22  H   UNL     1      16.118  13.038  56.667  0.00  0.00    +0.000 HD
ENDBRANCH   7  21
BRANCH  13  23
ATOM     23  O   UNL     1      17.454  12.938  54.668  0.00  0.00    +0.000 OA
ATOM     24  H   UNL     1      16.884  12.766  55.446  0.00  0.00    +0.000 HD
ENDBRANCH  13  23
BRANCH   3  25
ATOM     25  O   UNL     1      10.864  14.639  55.381  0.00  0.00    +0.000 OA
BRANCH  25  27
ATOM     26  O   UNL     1      10.206  15.886  53.634  0.00  0.00    +0.000 OA
ATOM     27  C   UNL     1      10.764  15.824  54.728  0.00  0.00    +0.000 C 
ATOM     28  C   UNL     1      11.271  17.064  55.400  0.00  0.00    +0.000 C 
ENDBRANCH  25  27
ENDBRANCH   3  25
BRANCH  15  29
ATOM     29  C   UNL     1      15.589  16.173  52.010  0.00  0.00    +0.000 C 
BRANCH  29  30
ATOM     30  O   UNL     1      14.593  15.945  51.026  0.00  0.00    +0.000 OA
ATOM     31  H   UNL     1      14.413  14.988  51.029  0.00  0.00    +0.000 HD
ENDBRANCH  29  30
ENDBRANCH  15  29
BRANCH   6  32
ATOM     32  O   UNL     1      11.875  14.488  57.807  0.00  0.00    +0.000 OA
BRANCH  32  34
ATOM     33  O   UNL     1      10.539  14.264  59.586  0.00  0.00    +0.000 OA
ATOM     34  C   UNL     1      11.448  13.809  58.896  0.00  0.00    +0.000 C 
BRANCH  34  35
ATOM     35  C   UNL     1      12.097  12.494  59.250  0.00  0.00    +0.000 C 
BRANCH  35  36
ATOM     36  C   UNL     1      12.834  12.570  60.582  0.00  0.00    +0.000 C 
BRANCH  36  37
ATOM     37  C   UNL     1      14.216  11.908  60.574  0.00  0.00    +0.000 C 
BRANCH  37  38
ATOM     38  C   UNL     1      15.386  12.881  60.768  0.00  0.00    +0.000 C 
BRANCH  38  39
ATOM     39  C   UNL     1      16.308  12.941  59.545  0.00  0.00    +0.000 C 
BRANCH  39  40
ATOM     40  C   UNL     1      17.779  13.176  59.899  0.00  0.00    +0.000 C 
BRANCH  40  41
ATOM     41  C   UNL     1      18.729  12.210  59.187  0.00  0.00    +0.000 C 
BRANCH  41  42
ATOM     42  C   UNL     1      18.005  11.174  58.323  0.00  0.00    +0.000 C 
BRANCH  42  43
ATOM     43  C   UNL     1      18.064   9.729  58.827  0.00  0.00    +0.000 C 
BRANCH  43  44
ATOM     44  C   UNL     1      17.476   9.490  60.221  0.00  0.00    +0.000 C 
BRANCH  44  45
ATOM     45  C   UNL     1      18.492   9.167  61.321  0.00  0.00    +0.000 C 
BRANCH  45  46
ATOM     46  C   UNL     1      18.417  10.041  62.574  0.00  0.00    +0.000 C 
ATOM     47  C   UNL     1      17.009  10.515  62.898  0.00  0.00    +0.000 C 
ENDBRANCH  45  46
ENDBRANCH  44  45
ENDBRANCH  43  44
ENDBRANCH  42  43
ENDBRANCH  41  42
ENDBRANCH  40  41
ENDBRANCH  39  40
ENDBRANCH  38  39
ENDBRANCH  37  38
ENDBRANCH  36  37
ENDBRANCH  35  36
ENDBRANCH  34  35
ENDBRANCH  32  34
ENDBRANCH   6  32
TORSDOF 20
ENDMDL
MODEL 8
REMARK VINA RESULT:      -2.5     14.350     18.007
REMARK  Name = 27924_Phorbol.pdbqt.pdb
REMARK  26 active torsions:
REMARK  status: ('A' for Active; 'I' for Inactive)
REMARK    1  A    between atoms: O_1  and  C_10
REMARK    2  A    between atoms: O_1  and  C_26
REMARK    3  A    between atoms: O_2  and  C_13
REMARK    4  A    between atoms: O_2  and  C_28
REMARK    5  A    between atoms: O_3  and  C_14
REMARK    6  A    between atoms: O_4  and  C_20
REMARK    7  A    between atoms: O_7  and  C_29
REMARK    8  A    between atoms: C_11  and  C_16
REMARK    9  A    between atoms: C_11  and  C_17
REMARK   10  A    between atoms: C_15  and  C_21
REMARK   11  A    between atoms: C_22  and  C_29
REMARK   12  A    between atoms: C_26  and  C_30
REMARK   13  A    between atoms: C_27  and  C_31
REMARK   14  A    between atoms: C_28  and  C_32
REMARK   15  A    between atoms: C_32  and  C_33
REMARK   16  A    between atoms: C_33  and  C_34
REMARK   17  A    between atoms: C_34  and  C_35
REMARK   18  A    between atoms: C_35  and  C_36
REMARK   19  A    between atoms: C_36  and  C_37
REMARK   20  A    between atoms: C_37  and  C_38
REMARK   21  A    between atoms: C_38  and  C_39
REMARK   22  A    between atoms: C_39  and  C_40
REMARK   23  A    between atoms: C_40  and  C_41
REMARK   24  A    between atoms: C_41  and  C_42
REMARK   25  A    between atoms: C_42  and  C_43
REMARK   26  A    between atoms: C_43  and  C_44
REMARK                            x       y       z     vdW  Elec       q    Type
REMARK                         _______ _______ _______ _____ _____    ______ ____
ROOT
ATOM      1  O   UNL     1      22.204   1.742  53.970  0.00  0.00    +0.000 OA
ATOM      2  C   UNL     1      16.281  -1.612  51.963  0.00  0.00    +0.000 C 
ATOM      3  C   UNL     1      15.612  -2.594  52.907  0.00  0.00    +0.000 C 
ATOM      4  C   UNL     1      16.379  -3.092  51.648  0.00  0.00    +0.000 C 
ATOM      5  C   UNL     1      17.311  -0.645  52.464  0.00  0.00    +0.000 C 
ATOM      6  C   UNL     1      16.165  -2.676  54.341  0.00  0.00    +0.000 C 
ATOM      7  C   UNL     1      17.977  -0.922  53.889  0.00  0.00    +0.000 C 
ATOM      8  C   UNL     1      16.751  -1.298  54.812  0.00  0.00    +0.000 C 
ATOM      9  C   UNL     1      15.603  -3.519  50.413  0.00  0.00    +0.000 C 
ATOM     10  C   UNL     1      17.695  -3.823  51.748  0.00  0.00    +0.000 C 
ATOM     11  C   UNL     1      18.888   0.347  54.289  0.00  0.00    +0.000 C 
ATOM     12  C   UNL     1      18.314  -0.229  51.404  0.00  0.00    +0.000 C 
ATOM     13  C   UNL     1      20.153   0.589  53.352  0.00  0.00    +0.000 C 
ATOM     14  C   UNL     1      17.030  -1.326  56.315  0.00  0.00    +0.000 C 
ATOM     15  C   UNL     1      18.647   1.080  51.379  0.00  0.00    +0.000 C 
ATOM     16  C   UNL     1      19.926   1.465  52.100  0.00  0.00    +0.000 C 
ATOM     17  C   UNL     1      19.560   0.392  55.655  0.00  0.00    +0.000 C 
ATOM     18  C   UNL     1      21.156   1.206  54.302  0.00  0.00    +0.000 C 
ATOM     19  C   UNL     1      20.785   0.931  55.695  0.00  0.00    +0.000 C 
ATOM     20  C   UNL     1      21.679   1.212  56.838  0.00  0.00    +0.000 C 
ENDROOT
BRANCH   7  21
ATOM     21  O   UNL     1      18.830  -2.074  53.871  0.00  0.00    +0.000 OA
ATOM     22  H   UNL     1      18.787  -2.468  52.972  0.00  0.00    +0.000 HD
ENDBRANCH   7  21
BRANCH  13  23
ATOM     23  O   UNL     1      20.778  -0.661  52.971  0.00  0.00    +0.000 OA
ATOM     24  H   UNL     1      20.053  -1.244  52.664  0.00  0.00    +0.000 HD
ENDBRANCH  13  23
BRANCH   3  25
ATOM     25  O   UNL     1      14.171  -2.440  52.830  0.00  0.00    +0.000 OA
BRANCH  25  27
ATOM     26  O   UNL     1      13.002  -0.927  51.653  0.00  0.00    +0.000 OA
ATOM     27  C   UNL     1      13.521  -1.254  52.718  0.00  0.00    +0.000 C 
ATOM     28  C   UNL     1      13.378  -0.392  53.936  0.00  0.00    +0.000 C 
ENDBRANCH  25  27
ENDBRANCH   3  25
BRANCH  15  29
ATOM     29  C   UNL     1      17.640   2.190  51.227  0.00  0.00    +0.000 C 
BRANCH  29  30
ATOM     30  O   UNL     1      17.846   3.121  52.276  0.00  0.00    +0.000 OA
ATOM     31  H   UNL     1      18.515   3.754  51.960  0.00  0.00    +0.000 HD
ENDBRANCH  29  30
ENDBRANCH  15  29
BRANCH   6  32
ATOM     32  O   UNL     1      15.077  -3.077  55.218  0.00  0.00    +0.000 OA
BRANCH  32  34
ATOM     33  O   UNL     1      14.283  -5.160  55.032  0.00  0.00    +0.000 OA
ATOM     34  C   UNL     1      14.879  -4.323  55.706  0.00  0.00    +0.000 C 
BRANCH  34  35
ATOM     35  C   UNL     1      15.397  -4.671  57.080  0.00  0.00    +0.000 C 
BRANCH  35  36
ATOM     36  C   UNL     1      14.525  -4.074  58.178  0.00  0.00    +0.000 C 
BRANCH  36  37
ATOM     37  C   UNL     1      15.264  -3.111  59.113  0.00  0.00    +0.000 C 
BRANCH  37  38
ATOM     38  C   UNL     1      16.278  -3.785  60.046  0.00  0.00    +0.000 C 
BRANCH  38  39
ATOM     39  C   UNL     1      17.509  -2.910  60.306  0.00  0.00    +0.000 C 
BRANCH  39  40
ATOM     40  C   UNL     1      17.298  -1.437  59.947  0.00  0.00    +0.000 C 
BRANCH  40  41
ATOM     41  C   UNL     1      17.001  -0.559  61.165  0.00  0.00    +0.000 C 
BRANCH  41  42
ATOM     42  C   UNL     1      15.577   0.004  61.174  0.00  0.00    +0.000 C 
BRANCH  42  43
ATOM     43  C   UNL     1      14.617  -0.627  62.186  0.00  0.00    +0.000 C 
BRANCH  43  44
ATOM     44  C   UNL     1      15.213  -1.734  63.061  0.00  0.00    +0.000 C 
BRANCH  44  45
ATOM     45  C   UNL     1      14.469  -3.073  63.033  0.00  0.00    +0.000 C 
BRANCH  45  46
ATOM     46  C   UNL     1      13.144  -3.082  62.268  0.00  0.00    +0.000 C 
ATOM     47  C   UNL     1      12.845  -4.410  61.590  0.00  0.00    +0.000 C 
ENDBRANCH  45  46
ENDBRANCH  44  45
ENDBRANCH  43  44
ENDBRANCH  42  43
ENDBRANCH  41  42
ENDBRANCH  40  41
ENDBRANCH  39  40
ENDBRANCH  38  39
ENDBRANCH  37  38
ENDBRANCH  36  37
ENDBRANCH  35  36
ENDBRANCH  34  35
ENDBRANCH  32  34
ENDBRANCH   6  32
TORSDOF 20
ENDMDL
MODEL 9
REMARK VINA RESULT:      -2.5     13.461     17.320
REMARK  Name = 27924_Phorbol.pdbqt.pdb
REMARK  26 active torsions:
REMARK  status: ('A' for Active; 'I' for Inactive)
REMARK    1  A    between atoms: O_1  and  C_10
REMARK    2  A    between atoms: O_1  and  C_26
REMARK    3  A    between atoms: O_2  and  C_13
REMARK    4  A    between atoms: O_2  and  C_28
REMARK    5  A    between atoms: O_3  and  C_14
REMARK    6  A    between atoms: O_4  and  C_20
REMARK    7  A    between atoms: O_7  and  C_29
REMARK    8  A    between atoms: C_11  and  C_16
REMARK    9  A    between atoms: C_11  and  C_17
REMARK   10  A    between atoms: C_15  and  C_21
REMARK   11  A    between atoms: C_22  and  C_29
REMARK   12  A    between atoms: C_26  and  C_30
REMARK   13  A    between atoms: C_27  and  C_31
REMARK   14  A    between atoms: C_28  and  C_32
REMARK   15  A    between atoms: C_32  and  C_33
REMARK   16  A    between atoms: C_33  and  C_34
REMARK   17  A    between atoms: C_34  and  C_35
REMARK   18  A    between atoms: C_35  and  C_36
REMARK   19  A    between atoms: C_36  and  C_37
REMARK   20  A    between atoms: C_37  and  C_38
REMARK   21  A    between atoms: C_38  and  C_39
REMARK   22  A    between atoms: C_39  and  C_40
REMARK   23  A    between atoms: C_40  and  C_41
REMARK   24  A    between atoms: C_41  and  C_42
REMARK   25  A    between atoms: C_42  and  C_43
REMARK   26  A    between atoms: C_43  and  C_44
REMARK                            x       y       z     vdW  Elec       q    Type
REMARK                         _______ _______ _______ _____ _____    ______ ____
ROOT
ATOM      1  O   UNL     1      21.946   8.409  60.175  0.00  0.00    +0.000 OA
ATOM      2  C   UNL     1      16.366  12.067  57.758  0.00  0.00    +0.000 C 
ATOM      3  C   UNL     1      16.191  12.279  56.266  0.00  0.00    +0.000 C 
ATOM      4  C   UNL     1      16.618  13.451  57.195  0.00  0.00    +0.000 C 
ATOM      5  C   UNL     1      17.315  11.031  58.281  0.00  0.00    +0.000 C 
ATOM      6  C   UNL     1      17.154  11.523  55.332  0.00  0.00    +0.000 C 
ATOM      7  C   UNL     1      18.415  10.443  57.283  0.00  0.00    +0.000 C 
ATOM      8  C   UNL     1      17.607  10.156  55.956  0.00  0.00    +0.000 C 
ATOM      9  C   UNL     1      15.594  14.492  57.616  0.00  0.00    +0.000 C 
ATOM     10  C   UNL     1      18.009  14.035  57.160  0.00  0.00    +0.000 C 
ATOM     11  C   UNL     1      19.171   9.219  58.010  0.00  0.00    +0.000 C 
ATOM     12  C   UNL     1      17.868  11.357  59.656  0.00  0.00    +0.000 C 
ATOM     13  C   UNL     1      20.036   9.624  59.285  0.00  0.00    +0.000 C 
ATOM     14  C   UNL     1      18.324   9.306  54.907  0.00  0.00    +0.000 C 
ATOM     15  C   UNL     1      17.946  10.328  60.527  0.00  0.00    +0.000 C 
ATOM     16  C   UNL     1      19.297   9.643  60.642  0.00  0.00    +0.000 C 
ATOM     17  C   UNL     1      20.204   8.405  57.240  0.00  0.00    +0.000 C 
ATOM     18  C   UNL     1      21.155   8.606  59.264  0.00  0.00    +0.000 C 
ATOM     19  C   UNL     1      21.272   7.995  57.935  0.00  0.00    +0.000 C 
ATOM     20  C   UNL     1      22.405   7.131  57.542  0.00  0.00    +0.000 C 
ENDROOT
BRANCH   7  21
ATOM     21  O   UNL     1      19.409  11.418  56.940  0.00  0.00    +0.000 OA
ATOM     22  H   UNL     1      20.123  11.370  57.614  0.00  0.00    +0.000 HD
ENDBRANCH   7  21
BRANCH  13  23
ATOM     23  O   UNL     1      20.723  10.882  59.082  0.00  0.00    +0.000 OA
ATOM     24  H   UNL     1      20.165  11.568  59.505  0.00  0.00    +0.000 HD
ENDBRANCH  13  23
BRANCH   3  25
ATOM     25  O   UNL     1      14.789  12.143  55.916  0.00  0.00    +0.000 OA
BRANCH  25  27
ATOM     26  O   UNL     1      14.587  13.909  54.543  0.00  0.00    +0.000 OA
ATOM     27  C   UNL     1      14.172  12.811  54.908  0.00  0.00    +0.000 C 
ATOM     28  C   UNL     1      13.030  12.149  54.196  0.00  0.00    +0.000 C 
ENDBRANCH  25  27
ENDBRANCH   3  25
BRANCH  15  29
ATOM     29  C   UNL     1      16.765   9.480  60.921  0.00  0.00    +0.000 C 
BRANCH  29  30
ATOM     30  O   UNL     1      15.708  10.344  61.305  0.00  0.00    +0.000 OA
ATOM     31  H   UNL     1      14.890   9.816  61.272  0.00  0.00    +0.000 HD
ENDBRANCH  29  30
ENDBRANCH  15  29
BRANCH   6  32
ATOM     32  O   UNL     1      16.465  11.289  54.074  0.00  0.00    +0.000 OA
BRANCH  32  34
ATOM     33  O   UNL     1      16.081  11.730  51.915  0.00  0.00    +0.000 OA
ATOM     34  C   UNL     1      16.861  11.746  52.864  0.00  0.00    +0.000 C 
BRANCH  34  35
ATOM     35  C   UNL     1      18.264  12.273  52.695  0.00  0.00    +0.000 C 
BRANCH  35  36
ATOM     36  C   UNL     1      19.128  11.323  51.874  0.00  0.00    +0.000 C 
BRANCH  36  37
ATOM     37  C   UNL     1      20.486  11.003  52.508  0.00  0.00    +0.000 C 
BRANCH  37  38
ATOM     38  C   UNL     1      21.347  10.023  51.700  0.00  0.00    +0.000 C 
BRANCH  38  39
ATOM     39  C   UNL     1      22.435   9.359  52.552  0.00  0.00    +0.000 C 
BRANCH  39  40
ATOM     40  C   UNL     1      21.930   8.863  53.910  0.00  0.00    +0.000 C 
BRANCH  40  41
ATOM     41  C   UNL     1      21.240   7.498  53.831  0.00  0.00    +0.000 C 
BRANCH  41  42
ATOM     42  C   UNL     1      22.076   6.438  53.109  0.00  0.00    +0.000 C 
BRANCH  42  43
ATOM     43  C   UNL     1      22.825   5.452  54.011  0.00  0.00    +0.000 C 
BRANCH  43  44
ATOM     44  C   UNL     1      24.158   5.955  54.574  0.00  0.00    +0.000 C 
BRANCH  44  45
ATOM     45  C   UNL     1      25.267   6.188  53.544  0.00  0.00    +0.000 C 
BRANCH  45  46
ATOM     46  C   UNL     1      25.632   7.650  53.278  0.00  0.00    +0.000 C 
ATOM     47  C   UNL     1      25.596   8.519  54.526  0.00  0.00    +0.000 C 
ENDBRANCH  45  46
ENDBRANCH  44  45
ENDBRANCH  43  44
ENDBRANCH  42  43
ENDBRANCH  41  42
ENDBRANCH  40  41
ENDBRANCH  39  40
ENDBRANCH  38  39
ENDBRANCH  37  38
ENDBRANCH  36  37
ENDBRANCH  35  36
ENDBRANCH  34  35
ENDBRANCH  32  34
ENDBRANCH   6  32
TORSDOF 20
ENDMDL
