MODEL 1
REMARK VINA RESULT:      -2.6      0.000      0.000
REMARK  Name = 2Methylcholine.pdbqt.pdb
REMARK  3 active torsions:
REMARK  status: ('A' for Active; 'I' for Inactive)
REMARK    1  A    between atoms: C_1  and  N_2
REMARK    2  A    between atoms: C_1  and  C_6
REMARK    3  A    between atoms: C_6  and  O_8
REMARK                            x       y       z     vdW  Elec       q    Type
REMARK                         _______ _______ _______ _____ _____    ______ ____
ROOT
ATOM      1  C   UNL     1       3.510   8.270  72.750  0.00  0.00    +0.000 C 
ENDROOT
BRANCH   1   2
ATOM      2  N   UNL     1       3.179   8.175  74.158  0.00  0.00    +0.000 N 
ATOM      3  C   UNL     1       4.014   9.101  74.930  0.00  0.00    +0.000 C 
ATOM      4  C   UNL     1       1.769   8.514  74.365  0.00  0.00    +0.000 C 
ATOM      5  C   UNL     1       3.417   6.809  74.632  0.00  0.00    +0.000 C 
ENDBRANCH   1   2
BRANCH   1   6
ATOM      6  C   UNL     1       3.809   8.343  71.382  0.00  0.00    +0.000 C 
ATOM      7  C   UNL     1       2.744   8.511  70.365  0.00  0.00    +0.000 C 
BRANCH   6   8
ATOM      8  O   UNL     1       5.085   8.264  70.916  0.00  0.00    +0.000 OA
ATOM      9  H   UNL     1       5.607   8.982  71.322  0.00  0.00    +0.000 HD
ENDBRANCH   6   8
ENDBRANCH   1   6
TORSDOF 3
ENDMDL
MODEL 2
REMARK VINA RESULT:      -2.3     11.729     12.507
REMARK  Name = 2Methylcholine.pdbqt.pdb
REMARK  3 active torsions:
REMARK  status: ('A' for Active; 'I' for Inactive)
REMARK    1  A    between atoms: C_1  and  N_2
REMARK    2  A    between atoms: C_1  and  C_6
REMARK    3  A    between atoms: C_6  and  O_8
REMARK                            x       y       z     vdW  Elec       q    Type
REMARK                         _______ _______ _______ _____ _____    ______ ____
ROOT
ATOM      1  C   UNL     1      14.883   7.701  68.764  0.00  0.00    +0.000 C 
ENDROOT
BRANCH   1   2
ATOM      2  N   UNL     1      15.747   6.713  69.380  0.00  0.00    +0.000 N 
ATOM      3  C   UNL     1      17.149   7.114  69.230  0.00  0.00    +0.000 C 
ATOM      4  C   UNL     1      15.431   6.592  70.805  0.00  0.00    +0.000 C 
ATOM      5  C   UNL     1      15.550   5.413  68.734  0.00  0.00    +0.000 C 
ENDBRANCH   1   2
BRANCH   1   6
ATOM      6  C   UNL     1      14.040   8.638  68.149  0.00  0.00    +0.000 C 
ATOM      7  C   UNL     1      13.840   9.992  68.719  0.00  0.00    +0.000 C 
BRANCH   6   8
ATOM      8  O   UNL     1      13.363   8.359  67.002  0.00  0.00    +0.000 OA
ATOM      9  H   UNL     1      13.020   9.196  66.634  0.00  0.00    +0.000 HD
ENDBRANCH   6   8
ENDBRANCH   1   6
TORSDOF 3
ENDMDL
MODEL 3
REMARK VINA RESULT:      -2.2     15.169     16.370
REMARK  Name = 2Methylcholine.pdbqt.pdb
REMARK  3 active torsions:
REMARK  status: ('A' for Active; 'I' for Inactive)
REMARK    1  A    between atoms: C_1  and  N_2
REMARK    2  A    between atoms: C_1  and  C_6
REMARK    3  A    between atoms: C_6  and  O_8
REMARK                            x       y       z     vdW  Elec       q    Type
REMARK                         _______ _______ _______ _____ _____    ______ ____
ROOT
ATOM      1  C   UNL     1       8.414   4.725  57.948  0.00  0.00    +0.000 C 
ENDROOT
BRANCH   1   2
ATOM      2  N   UNL     1       7.197   5.461  57.667  0.00  0.00    +0.000 N 
ATOM      3  C   UNL     1       6.768   6.191  58.864  0.00  0.00    +0.000 C 
ATOM      4  C   UNL     1       7.430   6.415  56.580  0.00  0.00    +0.000 C 
ATOM      5  C   UNL     1       6.137   4.532  57.269  0.00  0.00    +0.000 C 
ENDBRANCH   1   2
BRANCH   1   6
ATOM      6  C   UNL     1       9.584   4.012  58.247  0.00  0.00    +0.000 C 
ATOM      7  C   UNL     1       9.540   2.587  58.653  0.00  0.00    +0.000 C 
BRANCH   6   8
ATOM      8  O   UNL     1      10.816   4.585  58.182  0.00  0.00    +0.000 OA
ATOM      9  H   UNL     1      11.176   4.648  59.088  0.00  0.00    +0.000 HD
ENDBRANCH   6   8
ENDBRANCH   1   6
TORSDOF 3
ENDMDL
MODEL 4
REMARK VINA RESULT:      -2.2      2.668      4.781
REMARK  Name = 2Methylcholine.pdbqt.pdb
REMARK  3 active torsions:
REMARK  status: ('A' for Active; 'I' for Inactive)
REMARK    1  A    between atoms: C_1  and  N_2
REMARK    2  A    between atoms: C_1  and  C_6
REMARK    3  A    between atoms: C_6  and  O_8
REMARK                            x       y       z     vdW  Elec       q    Type
REMARK                         _______ _______ _______ _____ _____    ______ ____
ROOT
ATOM      1  C   UNL     1       2.577   8.213  69.932  0.00  0.00    +0.000 C 
ENDROOT
BRANCH   1   2
ATOM      2  N   UNL     1       1.761   8.008  68.752  0.00  0.00    +0.000 N 
ATOM      3  C   UNL     1       1.816   9.194  67.893  0.00  0.00    +0.000 C 
ATOM      4  C   UNL     1       2.250   6.848  68.002  0.00  0.00    +0.000 C 
ATOM      5  C   UNL     1       0.370   7.769  69.147  0.00  0.00    +0.000 C 
ENDBRANCH   1   2
BRANCH   1   6
ATOM      6  C   UNL     1       3.344   8.408  71.090  0.00  0.00    +0.000 C 
ATOM      7  C   UNL     1       2.734   8.894  72.350  0.00  0.00    +0.000 C 
BRANCH   6   8
ATOM      8  O   UNL     1       4.682   8.162  71.120  0.00  0.00    +0.000 OA
ATOM      9  H   UNL     1       4.867   7.389  70.552  0.00  0.00    +0.000 HD
ENDBRANCH   6   8
ENDBRANCH   1   6
TORSDOF 3
ENDMDL
MODEL 5
REMARK VINA RESULT:      -2.1      3.122      4.089
REMARK  Name = 2Methylcholine.pdbqt.pdb
REMARK  3 active torsions:
REMARK  status: ('A' for Active; 'I' for Inactive)
REMARK    1  A    between atoms: C_1  and  N_2
REMARK    2  A    between atoms: C_1  and  C_6
REMARK    3  A    between atoms: C_6  and  O_8
REMARK                            x       y       z     vdW  Elec       q    Type
REMARK                         _______ _______ _______ _____ _____    ______ ____
ROOT
ATOM      1  C   UNL     1       4.087  10.379  71.338  0.00  0.00    +0.000 C 
ENDROOT
BRANCH   1   2
ATOM      2  N   UNL     1       3.945  11.812  71.169  0.00  0.00    +0.000 N 
ATOM      3  C   UNL     1       4.560  12.229  69.905  0.00  0.00    +0.000 C 
ATOM      4  C   UNL     1       2.526  12.175  71.156  0.00  0.00    +0.000 C 
ATOM      5  C   UNL     1       4.607  12.509  72.275  0.00  0.00    +0.000 C 
ENDBRANCH   1   2
BRANCH   1   6
ATOM      6  C   UNL     1       4.217   8.996  71.529  0.00  0.00    +0.000 C 
ATOM      7  C   UNL     1       3.291   8.245  72.409  0.00  0.00    +0.000 C 
BRANCH   6   8
ATOM      8  O   UNL     1       5.194   8.271  70.920  0.00  0.00    +0.000 OA
ATOM      9  H   UNL     1       5.950   8.194  71.534  0.00  0.00    +0.000 HD
ENDBRANCH   6   8
ENDBRANCH   1   6
TORSDOF 3
ENDMDL
MODEL 6
REMARK VINA RESULT:      -2.1     12.067     12.951
REMARK  Name = 2Methylcholine.pdbqt.pdb
REMARK  3 active torsions:
REMARK  status: ('A' for Active; 'I' for Inactive)
REMARK    1  A    between atoms: C_1  and  N_2
REMARK    2  A    between atoms: C_1  and  C_6
REMARK    3  A    between atoms: C_6  and  O_8
REMARK                            x       y       z     vdW  Elec       q    Type
REMARK                         _______ _______ _______ _____ _____    ______ ____
ROOT
ATOM      1  C   UNL     1      15.132   6.884  68.775  0.00  0.00    +0.000 C 
ENDROOT
BRANCH   1   2
ATOM      2  N   UNL     1      16.007   5.752  69.007  0.00  0.00    +0.000 N 
ATOM      3  C   UNL     1      15.233   4.618  69.519  0.00  0.00    +0.000 C 
ATOM      4  C   UNL     1      16.660   5.361  67.755  0.00  0.00    +0.000 C 
ATOM      5  C   UNL     1      17.033   6.113  69.989  0.00  0.00    +0.000 C 
ENDBRANCH   1   2
BRANCH   1   6
ATOM      6  C   UNL     1      14.299   7.985  68.529  0.00  0.00    +0.000 C 
ATOM      7  C   UNL     1      14.093   9.043  69.545  0.00  0.00    +0.000 C 
BRANCH   6   8
ATOM      8  O   UNL     1      13.638   8.141  67.349  0.00  0.00    +0.000 OA
ATOM      9  H   UNL     1      14.142   8.766  66.794  0.00  0.00    +0.000 HD
ENDBRANCH   6   8
ENDBRANCH   1   6
TORSDOF 3
ENDMDL
MODEL 7
REMARK VINA RESULT:      -2.1     16.008     16.600
REMARK  Name = 2Methylcholine.pdbqt.pdb
REMARK  3 active torsions:
REMARK  status: ('A' for Active; 'I' for Inactive)
REMARK    1  A    between atoms: C_1  and  N_2
REMARK    2  A    between atoms: C_1  and  C_6
REMARK    3  A    between atoms: C_6  and  O_8
REMARK                            x       y       z     vdW  Elec       q    Type
REMARK                         _______ _______ _______ _____ _____    ______ ____
ROOT
ATOM      1  C   UNL     1       8.861   3.550  58.159  0.00  0.00    +0.000 C 
ENDROOT
BRANCH   1   2
ATOM      2  N   UNL     1       8.186   2.268  58.209  0.00  0.00    +0.000 N 
ATOM      3  C   UNL     1       8.256   1.719  59.566  0.00  0.00    +0.000 C 
ATOM      4  C   UNL     1       6.780   2.428  57.827  0.00  0.00    +0.000 C 
ATOM      5  C   UNL     1       8.829   1.334  57.281  0.00  0.00    +0.000 C 
ENDBRANCH   1   2
BRANCH   1   6
ATOM      6  C   UNL     1       9.526   4.784  58.136  0.00  0.00    +0.000 C 
ATOM      7  C   UNL     1       8.783   6.065  58.202  0.00  0.00    +0.000 C 
BRANCH   6   8
ATOM      8  O   UNL     1      10.881   4.874  58.052  0.00  0.00    +0.000 OA
ATOM      9  H   UNL     1      11.116   5.794  57.826  0.00  0.00    +0.000 HD
ENDBRANCH   6   8
ENDBRANCH   1   6
TORSDOF 3
ENDMDL
MODEL 8
REMARK VINA RESULT:      -2.0      2.890      3.996
REMARK  Name = 2Methylcholine.pdbqt.pdb
REMARK  3 active torsions:
REMARK  status: ('A' for Active; 'I' for Inactive)
REMARK    1  A    between atoms: C_1  and  N_2
REMARK    2  A    between atoms: C_1  and  C_6
REMARK    3  A    between atoms: C_6  and  O_8
REMARK                            x       y       z     vdW  Elec       q    Type
REMARK                         _______ _______ _______ _____ _____    ______ ____
ROOT
ATOM      1  C   UNL     1       3.248   9.727  70.889  0.00  0.00    +0.000 C 
ENDROOT
BRANCH   1   2
ATOM      2  N   UNL     1       1.916  10.045  70.412  0.00  0.00    +0.000 N 
ATOM      3  C   UNL     1       0.919   9.621  71.399  0.00  0.00    +0.000 C 
ATOM      4  C   UNL     1       1.795  11.488  70.195  0.00  0.00    +0.000 C 
ATOM      5  C   UNL     1       1.664   9.348  69.148  0.00  0.00    +0.000 C 
ENDBRANCH   1   2
BRANCH   1   6
ATOM      6  C   UNL     1       4.532   9.393  71.342  0.00  0.00    +0.000 C 
ATOM      7  C   UNL     1       5.294  10.292  72.242  0.00  0.00    +0.000 C 
BRANCH   6   8
ATOM      8  O   UNL     1       5.147   8.233  70.984  0.00  0.00    +0.000 OA
ATOM      9  H   UNL     1       5.362   8.279  70.033  0.00  0.00    +0.000 HD
ENDBRANCH   6   8
ENDBRANCH   1   6
TORSDOF 3
ENDMDL
MODEL 9
REMARK VINA RESULT:      -2.0     10.592     12.500
REMARK  Name = 2Methylcholine.pdbqt.pdb
REMARK  3 active torsions:
REMARK  status: ('A' for Active; 'I' for Inactive)
REMARK    1  A    between atoms: C_1  and  N_2
REMARK    2  A    between atoms: C_1  and  C_6
REMARK    3  A    between atoms: C_6  and  O_8
REMARK                            x       y       z     vdW  Elec       q    Type
REMARK                         _______ _______ _______ _____ _____    ______ ____
ROOT
ATOM      1  C   UNL     1       6.554   9.692  61.688  0.00  0.00    +0.000 C 
ENDROOT
BRANCH   1   2
ATOM      2  N   UNL     1       7.144   9.556  60.371  0.00  0.00    +0.000 N 
ATOM      3  C   UNL     1       8.118  10.628  60.147  0.00  0.00    +0.000 C 
ATOM      4  C   UNL     1       7.820   8.261  60.257  0.00  0.00    +0.000 C 
ATOM      5  C   UNL     1       6.097   9.640  59.349  0.00  0.00    +0.000 C 
ENDBRANCH   1   2
BRANCH   1   6
ATOM      6  C   UNL     1       5.987   9.797  62.966  0.00  0.00    +0.000 C 
ATOM      7  C   UNL     1       4.518   9.802  63.163  0.00  0.00    +0.000 C 
BRANCH   6   8
ATOM      8  O   UNL     1       6.749   9.898  64.089  0.00  0.00    +0.000 OA
ATOM      9  H   UNL     1       6.301  10.503  64.712  0.00  0.00    +0.000 HD
ENDBRANCH   6   8
ENDBRANCH   1   6
TORSDOF 3
ENDMDL
