MODEL 1
REMARK VINA RESULT:      -6.2      0.000      0.000
REMARK  Name = 3035817_K252a.pdbqt.pdb
REMARK  3 active torsions:
REMARK  status: ('A' for Active; 'I' for Inactive)
REMARK    1  A    between atoms: C_3  and  O_7
REMARK    2  A    between atoms: C_3  and  C_9
REMARK    3  A    between atoms: C_9  and  O_11
REMARK                            x       y       z     vdW  Elec       q    Type
REMARK                         _______ _______ _______ _____ _____    ______ ____
ROOT
ATOM      1  O   UNL     1      16.562  -0.641  52.040  0.00  0.00    +0.000 OA
ATOM      2  C   UNL     1      16.994   0.761  51.925  0.00  0.00    +0.000 C 
ATOM      3  C   UNL     1      15.684   1.597  52.258  0.00  0.00    +0.000 C 
ATOM      4  C   UNL     1      15.668  -0.640  53.125  0.00  0.00    +0.000 C 
ATOM      5  C   UNL     1      14.992   0.604  53.075  0.00  0.00    +0.000 C 
ATOM      6  C   UNL     1      17.507   0.914  50.455  0.00  0.00    +0.000 C 
ATOM      7  N   UNL     1      18.075   0.952  52.914  0.00  0.00    +0.000 N 
ATOM      8  C   UNL     1      18.311   0.336  54.117  0.00  0.00    +0.000 A 
ATOM      9  C   UNL     1      17.482  -0.573  54.775  0.00  0.00    +0.000 A 
ATOM     10  C   UNL     1      19.452   0.683  54.848  0.00  0.00    +0.000 A 
ATOM     11  N   UNL     1      16.262  -0.976  54.329  0.00  0.00    +0.000 N 
ATOM     12  C   UNL     1      17.920  -0.979  56.041  0.00  0.00    +0.000 A 
ATOM     13  C   UNL     1      15.810  -1.699  55.448  0.00  0.00    +0.000 A 
ATOM     14  C   UNL     1      16.814  -1.735  56.489  0.00  0.00    +0.000 A 
ATOM     15  C   UNL     1      14.575  -2.346  55.616  0.00  0.00    +0.000 A 
ATOM     16  C   UNL     1      16.507  -2.429  57.676  0.00  0.00    +0.000 A 
ATOM     17  C   UNL     1      15.276  -3.068  57.823  0.00  0.00    +0.000 A 
ATOM     18  C   UNL     1      14.329  -3.023  56.810  0.00  0.00    +0.000 A 
ATOM     19  C   UNL     1      19.075  -0.653  56.781  0.00  0.00    +0.000 A 
ATOM     20  C   UNL     1      19.921   0.273  56.104  0.00  0.00    +0.000 A 
ATOM     21  C   UNL     1      19.616  -0.978  58.079  0.00  0.00    +0.000 C 
ATOM     22  C   UNL     1      21.060   0.557  57.020  0.00  0.00    +0.000 C 
ATOM     23  N   UNL     1      20.785  -0.205  58.101  0.00  0.00    +0.000 N 
ATOM     24  H   UNL     1      21.389  -0.228  58.911  0.00  0.00    +0.000 HD
ATOM     25  O   UNL     1      19.254  -1.705  58.991  0.00  0.00    +0.000 OA
ATOM     26  C   UNL     1      20.015   1.694  54.049  0.00  0.00    +0.000 A 
ATOM     27  C   UNL     1      19.157   1.868  52.898  0.00  0.00    +0.000 A 
ATOM     28  C   UNL     1      21.146   2.526  54.175  0.00  0.00    +0.000 A 
ATOM     29  C   UNL     1      19.451   2.864  51.951  0.00  0.00    +0.000 A 
ATOM     30  C   UNL     1      20.583   3.661  52.120  0.00  0.00    +0.000 A 
ATOM     31  C   UNL     1      21.422   3.493  53.210  0.00  0.00    +0.000 A 
ENDROOT
BRANCH   3  32
ATOM     32  O   UNL     1      15.905   2.777  53.046  0.00  0.00    +0.000 OA
ATOM     33  H   UNL     1      15.494   2.622  53.925  0.00  0.00    +0.000 HD
ENDBRANCH   3  32
BRANCH   3  34
ATOM     34  C   UNL     1      14.895   1.939  50.997  0.00  0.00    +0.000 C 
ATOM     35  O   UNL     1      14.179   1.091  50.457  0.00  0.00    +0.000 OA
BRANCH  34  36
ATOM     36  O   UNL     1      15.142   3.217  50.576  0.00  0.00    +0.000 OA
ATOM     37  C   UNL     1      15.091   3.470  49.198  0.00  0.00    +0.000 C 
ENDBRANCH  34  36
ENDBRANCH   3  34
TORSDOF 3
ENDMDL
MODEL 2
REMARK VINA RESULT:      -5.9     16.644     19.952
REMARK  Name = 3035817_K252a.pdbqt.pdb
REMARK  3 active torsions:
REMARK  status: ('A' for Active; 'I' for Inactive)
REMARK    1  A    between atoms: C_3  and  O_7
REMARK    2  A    between atoms: C_3  and  C_9
REMARK    3  A    between atoms: C_9  and  O_11
REMARK                            x       y       z     vdW  Elec       q    Type
REMARK                         _______ _______ _______ _____ _____    ______ ____
ROOT
ATOM      1  O   UNL     1      15.645   6.849  73.173  0.00  0.00    +0.000 OA
ATOM      2  C   UNL     1      14.301   6.886  73.771  0.00  0.00    +0.000 C 
ATOM      3  C   UNL     1      13.492   7.889  72.841  0.00  0.00    +0.000 C 
ATOM      4  C   UNL     1      15.409   6.904  71.787  0.00  0.00    +0.000 C 
ATOM      5  C   UNL     1      14.271   7.729  71.616  0.00  0.00    +0.000 C 
ATOM      6  C   UNL     1      14.517   7.388  75.236  0.00  0.00    +0.000 C 
ATOM      7  N   UNL     1      13.783   5.503  73.727  0.00  0.00    +0.000 N 
ATOM      8  C   UNL     1      14.035   4.476  72.854  0.00  0.00    +0.000 A 
ATOM      9  C   UNL     1      14.785   4.534  71.678  0.00  0.00    +0.000 A 
ATOM     10  C   UNL     1      13.433   3.232  73.071  0.00  0.00    +0.000 A 
ATOM     11  N   UNL     1      15.371   5.658  71.185  0.00  0.00    +0.000 N 
ATOM     12  C   UNL     1      14.807   3.359  70.919  0.00  0.00    +0.000 A 
ATOM     13  C   UNL     1      15.792   5.192  69.927  0.00  0.00    +0.000 A 
ATOM     14  C   UNL     1      15.483   3.789  69.757  0.00  0.00    +0.000 A 
ATOM     15  C   UNL     1      16.448   5.913  68.916  0.00  0.00    +0.000 A 
ATOM     16  C   UNL     1      15.850   3.177  68.542  0.00  0.00    +0.000 A 
ATOM     17  C   UNL     1      16.503   3.908  67.551  0.00  0.00    +0.000 A 
ATOM     18  C   UNL     1      16.793   5.252  67.737  0.00  0.00    +0.000 A 
ATOM     19  C   UNL     1      14.221   2.094  71.135  0.00  0.00    +0.000 A 
ATOM     20  C   UNL     1      13.459   2.037  72.338  0.00  0.00    +0.000 A 
ATOM     21  C   UNL     1      14.148   0.837  70.430  0.00  0.00    +0.000 C 
ATOM     22  C   UNL     1      12.867   0.673  72.403  0.00  0.00    +0.000 C 
ATOM     23  N   UNL     1      13.325   0.083  71.277  0.00  0.00    +0.000 N 
ATOM     24  H   UNL     1      13.090  -0.870  71.035  0.00  0.00    +0.000 HD
ATOM     25  O   UNL     1      14.625   0.422  69.384  0.00  0.00    +0.000 OA
ATOM     26  C   UNL     1      12.640   3.486  74.205  0.00  0.00    +0.000 A 
ATOM     27  C   UNL     1      12.838   4.870  74.573  0.00  0.00    +0.000 A 
ATOM     28  C   UNL     1      11.734   2.712  74.959  0.00  0.00    +0.000 A 
ATOM     29  C   UNL     1      12.117   5.417  75.649  0.00  0.00    +0.000 A 
ATOM     30  C   UNL     1      11.233   4.610  76.365  0.00  0.00    +0.000 A 
ATOM     31  C   UNL     1      11.047   3.278  76.032  0.00  0.00    +0.000 A 
ENDROOT
BRANCH   3  32
ATOM     32  O   UNL     1      12.132   7.508  72.582  0.00  0.00    +0.000 OA
ATOM     33  H   UNL     1      11.771   7.131  73.414  0.00  0.00    +0.000 HD
ENDBRANCH   3  32
BRANCH   3  34
ATOM     34  C   UNL     1      13.553   9.321  73.365  0.00  0.00    +0.000 C 
ATOM     35  O   UNL     1      12.660   9.760  74.095  0.00  0.00    +0.000 OA
BRANCH  34  36
ATOM     36  O   UNL     1      14.642   9.991  72.881  0.00  0.00    +0.000 OA
ATOM     37  C   UNL     1      15.441  10.687  73.798  0.00  0.00    +0.000 C 
ENDBRANCH  34  36
ENDBRANCH   3  34
TORSDOF 3
ENDMDL
MODEL 3
REMARK VINA RESULT:      -5.5     11.745     13.904
REMARK  Name = 3035817_K252a.pdbqt.pdb
REMARK  3 active torsions:
REMARK  status: ('A' for Active; 'I' for Inactive)
REMARK    1  A    between atoms: C_3  and  O_7
REMARK    2  A    between atoms: C_3  and  C_9
REMARK    3  A    between atoms: C_9  and  O_11
REMARK                            x       y       z     vdW  Elec       q    Type
REMARK                         _______ _______ _______ _____ _____    ______ ____
ROOT
ATOM      1  O   UNL     1      15.870  13.247  60.387  0.00  0.00    +0.000 OA
ATOM      2  C   UNL     1      16.835  12.206  60.001  0.00  0.00    +0.000 C 
ATOM      3  C   UNL     1      16.359  10.921  60.807  0.00  0.00    +0.000 C 
ATOM      4  C   UNL     1      14.644  12.566  60.480  0.00  0.00    +0.000 C 
ATOM      5  C   UNL     1      14.950  11.271  60.965  0.00  0.00    +0.000 C 
ATOM      6  C   UNL     1      18.232  12.761  60.430  0.00  0.00    +0.000 C 
ATOM      7  N   UNL     1      16.724  12.050  58.536  0.00  0.00    +0.000 N 
ATOM      8  C   UNL     1      15.662  12.243  57.690  0.00  0.00    +0.000 A 
ATOM      9  C   UNL     1      14.343  12.530  58.045  0.00  0.00    +0.000 A 
ATOM     10  C   UNL     1      15.843  12.062  56.315  0.00  0.00    +0.000 A 
ATOM     11  N   UNL     1      13.887  12.634  59.323  0.00  0.00    +0.000 N 
ATOM     12  C   UNL     1      13.433  12.584  56.984  0.00  0.00    +0.000 A 
ATOM     13  C   UNL     1      12.503  12.720  59.090  0.00  0.00    +0.000 A 
ATOM     14  C   UNL     1      12.208  12.719  57.674  0.00  0.00    +0.000 A 
ATOM     15  C   UNL     1      11.473  12.815  60.040  0.00  0.00    +0.000 A 
ATOM     16  C   UNL     1      10.857  12.805  57.283  0.00  0.00    +0.000 A 
ATOM     17  C   UNL     1       9.848  12.902  58.241  0.00  0.00    +0.000 A 
ATOM     18  C   UNL     1      10.154  12.905  59.595  0.00  0.00    +0.000 A 
ATOM     19  C   UNL     1      13.604  12.423  55.594  0.00  0.00    +0.000 A 
ATOM     20  C   UNL     1      14.953  12.134  55.235  0.00  0.00    +0.000 A 
ATOM     21  C   UNL     1      12.759  12.429  54.424  0.00  0.00    +0.000 C 
ATOM     22  C   UNL     1      14.968  11.942  53.758  0.00  0.00    +0.000 C 
ATOM     23  N   UNL     1      13.678  12.135  53.408  0.00  0.00    +0.000 N 
ATOM     24  H   UNL     1      13.366  12.070  52.449  0.00  0.00    +0.000 HD
ATOM     25  O   UNL     1      11.567  12.623  54.240  0.00  0.00    +0.000 OA
ATOM     26  C   UNL     1      17.186  11.647  56.250  0.00  0.00    +0.000 A 
ATOM     27  C   UNL     1      17.697  11.615  57.602  0.00  0.00    +0.000 A 
ATOM     28  C   UNL     1      18.038  11.251  55.199  0.00  0.00    +0.000 A 
ATOM     29  C   UNL     1      19.011  11.176  57.842  0.00  0.00    +0.000 A 
ATOM     30  C   UNL     1      19.816  10.796  56.768  0.00  0.00    +0.000 A 
ATOM     31  C   UNL     1      19.342  10.838  55.467  0.00  0.00    +0.000 A 
ENDROOT
BRANCH   3  32
ATOM     32  O   UNL     1      16.454   9.685  60.082  0.00  0.00    +0.000 OA
ATOM     33  H   UNL     1      15.834   9.051  60.504  0.00  0.00    +0.000 HD
ENDBRANCH   3  32
BRANCH   3  34
ATOM     34  C   UNL     1      17.066  10.803  62.155  0.00  0.00    +0.000 C 
ATOM     35  O   UNL     1      16.724  11.513  63.104  0.00  0.00    +0.000 OA
BRANCH  34  36
ATOM     36  O   UNL     1      18.089   9.897  62.113  0.00  0.00    +0.000 OA
ATOM     37  C   UNL     1      19.133  10.049  63.036  0.00  0.00    +0.000 C 
ENDBRANCH  34  36
ENDBRANCH   3  34
TORSDOF 3
ENDMDL
MODEL 4
REMARK VINA RESULT:      -5.5     21.207     24.952
REMARK  Name = 3035817_K252a.pdbqt.pdb
REMARK  3 active torsions:
REMARK  status: ('A' for Active; 'I' for Inactive)
REMARK    1  A    between atoms: C_3  and  O_7
REMARK    2  A    between atoms: C_3  and  C_9
REMARK    3  A    between atoms: C_9  and  O_11
REMARK                            x       y       z     vdW  Elec       q    Type
REMARK                         _______ _______ _______ _____ _____    ______ ____
ROOT
ATOM      1  O   UNL     1       8.425   3.616  79.038  0.00  0.00    +0.000 OA
ATOM      2  C   UNL     1       7.308   2.853  78.459  0.00  0.00    +0.000 C 
ATOM      3  C   UNL     1       6.409   3.959  77.755  0.00  0.00    +0.000 C 
ATOM      4  C   UNL     1       8.693   4.615  78.084  0.00  0.00    +0.000 C 
ATOM      5  C   UNL     1       7.442   4.964  77.520  0.00  0.00    +0.000 C 
ATOM      6  C   UNL     1       6.628   2.137  79.672  0.00  0.00    +0.000 C 
ATOM      7  N   UNL     1       7.902   1.892  77.507  0.00  0.00    +0.000 N 
ATOM      8  C   UNL     1       9.048   1.962  76.756  0.00  0.00    +0.000 A 
ATOM      9  C   UNL     1       9.899   3.060  76.619  0.00  0.00    +0.000 A 
ATOM     10  C   UNL     1       9.406   0.874  75.955  0.00  0.00    +0.000 A 
ATOM     11  N   UNL     1       9.701   4.274  77.198  0.00  0.00    +0.000 N 
ATOM     12  C   UNL     1      10.952   2.894  75.712  0.00  0.00    +0.000 A 
ATOM     13  C   UNL     1      10.712   5.022  76.569  0.00  0.00    +0.000 A 
ATOM     14  C   UNL     1      11.501   4.195  75.682  0.00  0.00    +0.000 A 
ATOM     15  C   UNL     1      11.003   6.387  76.731  0.00  0.00    +0.000 A 
ATOM     16  C   UNL     1      12.559   4.806  74.980  0.00  0.00    +0.000 A 
ATOM     17  C   UNL     1      12.834   6.162  75.156  0.00  0.00    +0.000 A 
ATOM     18  C   UNL     1      12.067   6.935  76.015  0.00  0.00    +0.000 A 
ATOM     19  C   UNL     1      11.336   1.798  74.913  0.00  0.00    +0.000 A 
ATOM     20  C   UNL     1      10.466   0.678  75.059  0.00  0.00    +0.000 A 
ATOM     21  C   UNL     1      12.363   1.518  73.938  0.00  0.00    +0.000 C 
ATOM     22  C   UNL     1      10.963  -0.371  74.126  0.00  0.00    +0.000 C 
ATOM     23  N   UNL     1      12.038   0.211  73.550  0.00  0.00    +0.000 N 
ATOM     24  H   UNL     1      12.599  -0.263  72.856  0.00  0.00    +0.000 HD
ATOM     25  O   UNL     1      13.306   2.155  73.493  0.00  0.00    +0.000 OA
ATOM     26  C   UNL     1       8.332  -0.010  76.165  0.00  0.00    +0.000 A 
ATOM     27  C   UNL     1       7.415   0.630  77.082  0.00  0.00    +0.000 A 
ATOM     28  C   UNL     1       7.995  -1.280  75.655  0.00  0.00    +0.000 A 
ATOM     29  C   UNL     1       6.212  -0.009  77.427  0.00  0.00    +0.000 A 
ATOM     30  C   UNL     1       5.925  -1.267  76.897  0.00  0.00    +0.000 A 
ATOM     31  C   UNL     1       6.803  -1.897  76.031  0.00  0.00    +0.000 A 
ENDROOT
BRANCH   3  32
ATOM     32  O   UNL     1       5.846   3.565  76.494  0.00  0.00    +0.000 OA
ATOM     33  H   UNL     1       5.271   4.301  76.188  0.00  0.00    +0.000 HD
ENDBRANCH   3  32
BRANCH   3  34
ATOM     34  C   UNL     1       5.317   4.479  78.687  0.00  0.00    +0.000 C 
ATOM     35  O   UNL     1       5.585   5.297  79.570  0.00  0.00    +0.000 OA
BRANCH  34  36
ATOM     36  O   UNL     1       4.111   3.887  78.432  0.00  0.00    +0.000 OA
ATOM     37  C   UNL     1       2.996   4.722  78.273  0.00  0.00    +0.000 C 
ENDBRANCH  34  36
ENDBRANCH   3  34
TORSDOF 3
ENDMDL
MODEL 5
REMARK VINA RESULT:      -5.5     18.141     21.348
REMARK  Name = 3035817_K252a.pdbqt.pdb
REMARK  3 active torsions:
REMARK  status: ('A' for Active; 'I' for Inactive)
REMARK    1  A    between atoms: C_3  and  O_7
REMARK    2  A    between atoms: C_3  and  C_9
REMARK    3  A    between atoms: C_9  and  O_11
REMARK                            x       y       z     vdW  Elec       q    Type
REMARK                         _______ _______ _______ _____ _____    ______ ____
ROOT
ATOM      1  O   UNL     1      14.463   1.531  73.977  0.00  0.00    +0.000 OA
ATOM      2  C   UNL     1      14.530   2.910  73.468  0.00  0.00    +0.000 C 
ATOM      3  C   UNL     1      14.090   2.782  71.946  0.00  0.00    +0.000 C 
ATOM      4  C   UNL     1      13.336   0.982  73.341  0.00  0.00    +0.000 C 
ATOM      5  C   UNL     1      13.289   1.565  72.051  0.00  0.00    +0.000 C 
ATOM      6  C   UNL     1      16.015   3.355  73.680  0.00  0.00    +0.000 C 
ATOM      7  N   UNL     1      13.589   3.706  74.282  0.00  0.00    +0.000 N 
ATOM      8  C   UNL     1      12.432   3.348  74.925  0.00  0.00    +0.000 A 
ATOM      9  C   UNL     1      11.778   2.117  74.860  0.00  0.00    +0.000 A 
ATOM     10  C   UNL     1      11.743   4.307  75.675  0.00  0.00    +0.000 A 
ATOM     11  N   UNL     1      12.181   1.062  74.101  0.00  0.00    +0.000 N 
ATOM     12  C   UNL     1      10.558   2.047  75.541  0.00  0.00    +0.000 A 
ATOM     13  C   UNL     1      11.078   0.204  74.255  0.00  0.00    +0.000 A 
ATOM     14  C   UNL     1      10.093   0.773  75.149  0.00  0.00    +0.000 A 
ATOM     15  C   UNL     1      10.880  -1.059  73.675  0.00  0.00    +0.000 A 
ATOM     16  C   UNL     1       8.927   0.023  75.406  0.00  0.00    +0.000 A 
ATOM     17  C   UNL     1       8.749  -1.230  74.822  0.00  0.00    +0.000 A 
ATOM     18  C   UNL     1       9.710  -1.758  73.971  0.00  0.00    +0.000 A 
ATOM     19  C   UNL     1       9.862   2.998  76.316  0.00  0.00    +0.000 A 
ATOM     20  C   UNL     1      10.535   4.253  76.383  0.00  0.00    +0.000 A 
ATOM     21  C   UNL     1       8.611   3.055  77.033  0.00  0.00    +0.000 C 
ATOM     22  C   UNL     1       9.665   5.159  77.183  0.00  0.00    +0.000 C 
ATOM     23  N   UNL     1       8.610   4.377  77.499  0.00  0.00    +0.000 N 
ATOM     24  H   UNL     1       7.834   4.716  78.050  0.00  0.00    +0.000 HD
ATOM     25  O   UNL     1       7.718   2.248  77.247  0.00  0.00    +0.000 OA
ATOM     26  C   UNL     1      12.519   5.460  75.458  0.00  0.00    +0.000 A 
ATOM     27  C   UNL     1      13.615   5.090  74.590  0.00  0.00    +0.000 A 
ATOM     28  C   UNL     1      12.409   6.805  75.865  0.00  0.00    +0.000 A 
ATOM     29  C   UNL     1      14.525   6.070  74.157  0.00  0.00    +0.000 A 
ATOM     30  C   UNL     1      14.374   7.387  74.589  0.00  0.00    +0.000 A 
ATOM     31  C   UNL     1      13.338   7.751  75.434  0.00  0.00    +0.000 A 
ENDROOT
BRANCH   3  32
ATOM     32  O   UNL     1      13.257   3.849  71.467  0.00  0.00    +0.000 OA
ATOM     33  H   UNL     1      12.682   3.476  70.763  0.00  0.00    +0.000 HD
ENDBRANCH   3  32
BRANCH   3  34
ATOM     34  C   UNL     1      15.291   2.589  71.024  0.00  0.00    +0.000 C 
ATOM     35  O   UNL     1      15.867   1.499  70.965  0.00  0.00    +0.000 OA
BRANCH  34  36
ATOM     36  O   UNL     1      15.623   3.747  70.376  0.00  0.00    +0.000 OA
ATOM     37  C   UNL     1      16.976   3.963  70.081  0.00  0.00    +0.000 C 
ENDBRANCH  34  36
ENDBRANCH   3  34
TORSDOF 3
ENDMDL
MODEL 6
REMARK VINA RESULT:      -5.4     19.053     22.118
REMARK  Name = 3035817_K252a.pdbqt.pdb
REMARK  3 active torsions:
REMARK  status: ('A' for Active; 'I' for Inactive)
REMARK    1  A    between atoms: C_3  and  O_7
REMARK    2  A    between atoms: C_3  and  C_9
REMARK    3  A    between atoms: C_9  and  O_11
REMARK                            x       y       z     vdW  Elec       q    Type
REMARK                         _______ _______ _______ _____ _____    ______ ____
ROOT
ATOM      1  O   UNL     1      14.728   4.406  74.632  0.00  0.00    +0.000 OA
ATOM      2  C   UNL     1      13.997   5.683  74.599  0.00  0.00    +0.000 C 
ATOM      3  C   UNL     1      13.781   5.965  73.050  0.00  0.00    +0.000 C 
ATOM      4  C   UNL     1      14.163   3.658  73.584  0.00  0.00    +0.000 C 
ATOM      5  C   UNL     1      13.840   4.588  72.566  0.00  0.00    +0.000 C 
ATOM      6  C   UNL     1      14.931   6.709  75.323  0.00  0.00    +0.000 C 
ATOM      7  N   UNL     1      12.735   5.465  75.334  0.00  0.00    +0.000 N 
ATOM      8  C   UNL     1      11.979   4.334  75.507  0.00  0.00    +0.000 A 
ATOM      9  C   UNL     1      12.172   3.091  74.902  0.00  0.00    +0.000 A 
ATOM     10  C   UNL     1      10.828   4.397  76.299  0.00  0.00    +0.000 A 
ATOM     11  N   UNL     1      13.148   2.811  73.997  0.00  0.00    +0.000 N 
ATOM     12  C   UNL     1      11.196   2.128  75.180  0.00  0.00    +0.000 A 
ATOM     13  C   UNL     1      12.750   1.527  73.586  0.00  0.00    +0.000 A 
ATOM     14  C   UNL     1      11.581   1.083  74.313  0.00  0.00    +0.000 A 
ATOM     15  C   UNL     1      13.353   0.704  72.621  0.00  0.00    +0.000 A 
ATOM     16  C   UNL     1      11.064  -0.193  74.012  0.00  0.00    +0.000 A 
ATOM     17  C   UNL     1      11.679  -0.997  73.053  0.00  0.00    +0.000 A 
ATOM     18  C   UNL     1      12.802  -0.552  72.370  0.00  0.00    +0.000 A 
ATOM     19  C   UNL     1      10.043   2.171  75.991  0.00  0.00    +0.000 A 
ATOM     20  C   UNL     1       9.851   3.441  76.610  0.00  0.00    +0.000 A 
ATOM     21  C   UNL     1       8.965   1.274  76.332  0.00  0.00    +0.000 C 
ATOM     22  C   UNL     1       8.582   3.349  77.383  0.00  0.00    +0.000 C 
ATOM     23  N   UNL     1       8.171   2.082  77.156  0.00  0.00    +0.000 N 
ATOM     24  H   UNL     1       7.320   1.712  77.556  0.00  0.00    +0.000 HD
ATOM     25  O   UNL     1       8.705   0.114  76.047  0.00  0.00    +0.000 OA
ATOM     26  C   UNL     1      10.792   5.757  76.654  0.00  0.00    +0.000 A 
ATOM     27  C   UNL     1      11.932   6.398  76.040  0.00  0.00    +0.000 A 
ATOM     28  C   UNL     1       9.898   6.550  77.403  0.00  0.00    +0.000 A 
ATOM     29  C   UNL     1      12.116   7.784  76.181  0.00  0.00    +0.000 A 
ATOM     30  C   UNL     1      11.204   8.525  76.934  0.00  0.00    +0.000 A 
ATOM     31  C   UNL     1      10.116   7.919  77.541  0.00  0.00    +0.000 A 
ENDROOT
BRANCH   3  32
ATOM     32  O   UNL     1      12.503   6.525  72.711  0.00  0.00    +0.000 OA
ATOM     33  H   UNL     1      12.004   6.642  73.549  0.00  0.00    +0.000 HD
ENDBRANCH   3  32
BRANCH   3  34
ATOM     34  C   UNL     1      14.907   6.816  72.467  0.00  0.00    +0.000 C 
ATOM     35  O   UNL     1      16.022   6.328  72.269  0.00  0.00    +0.000 OA
BRANCH  34  36
ATOM     36  O   UNL     1      14.514   8.112  72.274  0.00  0.00    +0.000 OA
ATOM     37  C   UNL     1      14.721   8.675  71.007  0.00  0.00    +0.000 C 
ENDBRANCH  34  36
ENDBRANCH   3  34
TORSDOF 3
ENDMDL
MODEL 7
REMARK VINA RESULT:      -5.4     10.632     12.252
REMARK  Name = 3035817_K252a.pdbqt.pdb
REMARK  3 active torsions:
REMARK  status: ('A' for Active; 'I' for Inactive)
REMARK    1  A    between atoms: C_3  and  O_7
REMARK    2  A    between atoms: C_3  and  C_9
REMARK    3  A    between atoms: C_9  and  O_11
REMARK                            x       y       z     vdW  Elec       q    Type
REMARK                         _______ _______ _______ _____ _____    ______ ____
ROOT
ATOM      1  O   UNL     1      16.690  12.936  55.525  0.00  0.00    +0.000 OA
ATOM      2  C   UNL     1      15.278  12.761  55.899  0.00  0.00    +0.000 C 
ATOM      3  C   UNL     1      14.768  11.592  54.951  0.00  0.00    +0.000 C 
ATOM      4  C   UNL     1      17.145  11.630  55.274  0.00  0.00    +0.000 C 
ATOM      5  C   UNL     1      16.049  10.934  54.708  0.00  0.00    +0.000 C 
ATOM      6  C   UNL     1      14.608  14.150  55.636  0.00  0.00    +0.000 C 
ATOM      7  N   UNL     1      15.263  12.399  57.332  0.00  0.00    +0.000 N 
ATOM      8  C   UNL     1      16.185  11.737  58.101  0.00  0.00    +0.000 A 
ATOM      9  C   UNL     1      17.356  11.115  57.664  0.00  0.00    +0.000 A 
ATOM     10  C   UNL     1      15.935  11.561  59.465  0.00  0.00    +0.000 A 
ATOM     11  N   UNL     1      17.758  11.041  56.366  0.00  0.00    +0.000 N 
ATOM     12  C   UNL     1      18.074  10.426  58.647  0.00  0.00    +0.000 A 
ATOM     13  C   UNL     1      18.846  10.158  56.490  0.00  0.00    +0.000 A 
ATOM     14  C   UNL     1      19.071   9.794  57.872  0.00  0.00    +0.000 A 
ATOM     15  C   UNL     1      19.672   9.658  55.470  0.00  0.00    +0.000 A 
ATOM     16  C   UNL     1      20.135   8.915  58.156  0.00  0.00    +0.000 A 
ATOM     17  C   UNL     1      20.945   8.430  57.130  0.00  0.00    +0.000 A 
ATOM     18  C   UNL     1      20.713   8.796  55.811  0.00  0.00    +0.000 A 
ATOM     19  C   UNL     1      17.845  10.256  60.028  0.00  0.00    +0.000 A 
ATOM     20  C   UNL     1      16.650  10.895  60.471  0.00  0.00    +0.000 A 
ATOM     21  C   UNL     1      18.482   9.561  61.121  0.00  0.00    +0.000 C 
ATOM     22  C   UNL     1      16.517  10.589  61.922  0.00  0.00    +0.000 C 
ATOM     23  N   UNL     1      17.607   9.833  62.180  0.00  0.00    +0.000 N 
ATOM     24  H   UNL     1      17.800   9.464  63.101  0.00  0.00    +0.000 HD
ATOM     25  O   UNL     1      19.499   8.891  61.221  0.00  0.00    +0.000 OA
ATOM     26  C   UNL     1      14.661  12.138  59.606  0.00  0.00    +0.000 A 
ATOM     27  C   UNL     1      14.252  12.614  58.303  0.00  0.00    +0.000 A 
ATOM     28  C   UNL     1      13.767  12.287  60.686  0.00  0.00    +0.000 A 
ATOM     29  C   UNL     1      12.981  13.190  58.136  0.00  0.00    +0.000 A 
ATOM     30  C   UNL     1      12.134  13.316  59.236  0.00  0.00    +0.000 A 
ATOM     31  C   UNL     1      12.520  12.879  60.493  0.00  0.00    +0.000 A 
ENDROOT
BRANCH   3  32
ATOM     32  O   UNL     1      13.875  10.657  55.573  0.00  0.00    +0.000 OA
ATOM     33  H   UNL     1      14.401  10.134  56.218  0.00  0.00    +0.000 HD
ENDBRANCH   3  32
BRANCH   3  34
ATOM     34  C   UNL     1      14.159  12.134  53.661  0.00  0.00    +0.000 C 
ATOM     35  O   UNL     1      14.882  12.469  52.719  0.00  0.00    +0.000 OA
BRANCH  34  36
ATOM     36  O   UNL     1      12.797  12.230  53.746  0.00  0.00    +0.000 OA
ATOM     37  C   UNL     1      12.134  12.986  52.770  0.00  0.00    +0.000 C 
ENDBRANCH  34  36
ENDBRANCH   3  34
TORSDOF 3
ENDMDL
MODEL 8
REMARK VINA RESULT:      -5.4     12.461     15.864
REMARK  Name = 3035817_K252a.pdbqt.pdb
REMARK  3 active torsions:
REMARK  status: ('A' for Active; 'I' for Inactive)
REMARK    1  A    between atoms: C_3  and  O_7
REMARK    2  A    between atoms: C_3  and  C_9
REMARK    3  A    between atoms: C_9  and  O_11
REMARK                            x       y       z     vdW  Elec       q    Type
REMARK                         _______ _______ _______ _____ _____    ______ ____
ROOT
ATOM      1  O   UNL     1      17.919   7.687  69.298  0.00  0.00    +0.000 OA
ATOM      2  C   UNL     1      16.653   7.005  69.608  0.00  0.00    +0.000 C 
ATOM      3  C   UNL     1      15.540   7.954  68.986  0.00  0.00    +0.000 C 
ATOM      4  C   UNL     1      17.717   8.224  68.014  0.00  0.00    +0.000 C 
ATOM      5  C   UNL     1      16.351   8.596  67.955  0.00  0.00    +0.000 C 
ATOM      6  C   UNL     1      16.617   6.897  71.168  0.00  0.00    +0.000 C 
ATOM      7  N   UNL     1      16.718   5.679  68.960  0.00  0.00    +0.000 N 
ATOM      8  C   UNL     1      17.375   5.262  67.830  0.00  0.00    +0.000 A 
ATOM      9  C   UNL     1      18.073   6.057  66.920  0.00  0.00    +0.000 A 
ATOM     10  C   UNL     1      17.301   3.917  67.455  0.00  0.00    +0.000 A 
ATOM     11  N   UNL     1      18.185   7.411  66.996  0.00  0.00    +0.000 N 
ATOM     12  C   UNL     1      18.572   5.389  65.797  0.00  0.00    +0.000 A 
ATOM     13  C   UNL     1      18.788   7.684  65.756  0.00  0.00    +0.000 A 
ATOM     14  C   UNL     1      19.057   6.466  65.024  0.00  0.00    +0.000 A 
ATOM     15  C   UNL     1      19.136   8.937  65.223  0.00  0.00    +0.000 A 
ATOM     16  C   UNL     1      19.666   6.580  63.758  0.00  0.00    +0.000 A 
ATOM     17  C   UNL     1      20.006   7.832  63.247  0.00  0.00    +0.000 A 
ATOM     18  C   UNL     1      19.742   8.987  63.969  0.00  0.00    +0.000 A 
ATOM     19  C   UNL     1      18.522   4.032  65.416  0.00  0.00    +0.000 A 
ATOM     20  C   UNL     1      17.812   3.223  66.350  0.00  0.00    +0.000 A 
ATOM     21  C   UNL     1      18.966   3.239  64.294  0.00  0.00    +0.000 C 
ATOM     22  C   UNL     1      17.799   1.842  65.793  0.00  0.00    +0.000 C 
ATOM     23  N   UNL     1      18.481   1.969  64.634  0.00  0.00    +0.000 N 
ATOM     24  H   UNL     1      18.644   1.186  64.016  0.00  0.00    +0.000 HD
ATOM     25  O   UNL     1      19.594   3.487  63.276  0.00  0.00    +0.000 OA
ATOM     26  C   UNL     1      16.443   3.387  68.436  0.00  0.00    +0.000 A 
ATOM     27  C   UNL     1      16.074   4.469  69.322  0.00  0.00    +0.000 A 
ATOM     28  C   UNL     1      15.892   2.111  68.669  0.00  0.00    +0.000 A 
ATOM     29  C   UNL     1      15.169   4.235  70.371  0.00  0.00    +0.000 A 
ATOM     30  C   UNL     1      14.652   2.953  70.561  0.00  0.00    +0.000 A 
ATOM     31  C   UNL     1      15.011   1.905  69.729  0.00  0.00    +0.000 A 
ENDROOT
BRANCH   3  32
ATOM     32  O   UNL     1      14.445   7.269  68.359  0.00  0.00    +0.000 OA
ATOM     33  H   UNL     1      14.294   7.696  67.487  0.00  0.00    +0.000 HD
ENDBRANCH   3  32
BRANCH   3  34
ATOM     34  C   UNL     1      15.023   8.965  70.006  0.00  0.00    +0.000 C 
ATOM     35  O   UNL     1      15.757   9.861  70.428  0.00  0.00    +0.000 OA
BRANCH  34  36
ATOM     36  O   UNL     1      13.736   8.692  70.381  0.00  0.00    +0.000 OA
ATOM     37  C   UNL     1      13.423   8.774  71.745  0.00  0.00    +0.000 C 
ENDBRANCH  34  36
ENDBRANCH   3  34
TORSDOF 3
ENDMDL
MODEL 9
REMARK VINA RESULT:      -5.2      1.848      5.499
REMARK  Name = 3035817_K252a.pdbqt.pdb
REMARK  3 active torsions:
REMARK  status: ('A' for Active; 'I' for Inactive)
REMARK    1  A    between atoms: C_3  and  O_7
REMARK    2  A    between atoms: C_3  and  C_9
REMARK    3  A    between atoms: C_9  and  O_11
REMARK                            x       y       z     vdW  Elec       q    Type
REMARK                         _______ _______ _______ _____ _____    ______ ____
ROOT
ATOM      1  O   UNL     1      15.474   1.362  52.703  0.00  0.00    +0.000 OA
ATOM      2  C   UNL     1      15.494  -0.044  53.136  0.00  0.00    +0.000 C 
ATOM      3  C   UNL     1      15.732  -0.859  51.793  0.00  0.00    +0.000 C 
ATOM      4  C   UNL     1      16.452   1.427  51.694  0.00  0.00    +0.000 C 
ATOM      5  C   UNL     1      16.404   0.182  51.020  0.00  0.00    +0.000 C 
ATOM      6  C   UNL     1      14.103  -0.287  53.807  0.00  0.00    +0.000 C 
ATOM      7  N   UNL     1      16.606  -0.172  54.100  0.00  0.00    +0.000 N 
ATOM      8  C   UNL     1      17.788   0.517  54.206  0.00  0.00    +0.000 A 
ATOM      9  C   UNL     1      18.293   1.465  53.315  0.00  0.00    +0.000 A 
ATOM     10  C   UNL     1      18.660   0.218  55.258  0.00  0.00    +0.000 A 
ATOM     11  N   UNL     1      17.691   1.838  52.154  0.00  0.00    +0.000 N 
ATOM     12  C   UNL     1      19.572   1.949  53.613  0.00  0.00    +0.000 A 
ATOM     13  C   UNL     1      18.707   2.628  51.586  0.00  0.00    +0.000 A 
ATOM     14  C   UNL     1      19.848   2.730  52.469  0.00  0.00    +0.000 A 
ATOM     15  C   UNL     1      18.697   3.283  50.344  0.00  0.00    +0.000 A 
ATOM     16  C   UNL     1      20.948   3.496  52.037  0.00  0.00    +0.000 A 
ATOM     17  C   UNL     1      20.919   4.141  50.801  0.00  0.00    +0.000 A 
ATOM     18  C   UNL     1      19.812   4.033  49.971  0.00  0.00    +0.000 A 
ATOM     19  C   UNL     1      20.454   1.671  54.678  0.00  0.00    +0.000 A 
ATOM     20  C   UNL     1      19.932   0.705  55.588  0.00  0.00    +0.000 A 
ATOM     21  C   UNL     1      21.781   2.075  55.075  0.00  0.00    +0.000 C 
ATOM     22  C   UNL     1      20.984   0.480  56.617  0.00  0.00    +0.000 C 
ATOM     23  N   UNL     1      21.980   1.307  56.229  0.00  0.00    +0.000 N 
ATOM     24  H   UNL     1      22.849   1.380  56.740  0.00  0.00    +0.000 HD
ATOM     25  O   UNL     1      22.601   2.858  54.618  0.00  0.00    +0.000 OA
ATOM     26  C   UNL     1      17.992  -0.840  55.899  0.00  0.00    +0.000 A 
ATOM     27  C   UNL     1      16.767  -1.086  55.172  0.00  0.00    +0.000 A 
ATOM     28  C   UNL     1      18.294  -1.662  57.005  0.00  0.00    +0.000 A 
ATOM     29  C   UNL     1      15.921  -2.138  55.563  0.00  0.00    +0.000 A 
ATOM     30  C   UNL     1      16.263  -2.922  56.665  0.00  0.00    +0.000 A 
ATOM     31  C   UNL     1      17.426  -2.686  57.380  0.00  0.00    +0.000 A 
ENDROOT
BRANCH   3  32
ATOM     32  O   UNL     1      16.610  -1.987  51.919  0.00  0.00    +0.000 OA
ATOM     33  H   UNL     1      17.499  -1.641  52.156  0.00  0.00    +0.000 HD
ENDBRANCH   3  32
BRANCH   3  34
ATOM     34  C   UNL     1      14.415  -1.280  51.145  0.00  0.00    +0.000 C 
ATOM     35  O   UNL     1      13.999  -2.435  51.265  0.00  0.00    +0.000 OA
BRANCH  34  36
ATOM     36  O   UNL     1      13.856  -0.259  50.426  0.00  0.00    +0.000 OA
ATOM     37  C   UNL     1      12.459  -0.220  50.327  0.00  0.00    +0.000 C 
ENDBRANCH  34  36
ENDBRANCH   3  34
TORSDOF 3
ENDMDL
