MODEL 1
REMARK VINA RESULT:      -3.7      0.000      0.000
REMARK  Name = 3136_Dimethoxy.pdbqt.pdb
REMARK  2 active torsions:
REMARK  status: ('A' for Active; 'I' for Inactive)
REMARK    1  A    between atoms: C_7  and  O_13
REMARK    2  A    between atoms: C_8  and  O_15
REMARK                            x       y       z     vdW  Elec       q    Type
REMARK                         _______ _______ _______ _____ _____    ______ ____
ROOT
ATOM      1  O   UNL     1      20.201   3.619  52.216  0.00  0.00    +0.000 OA
ATOM      2  O   UNL     1      15.834   0.713  53.158  0.00  0.00    +0.000 OA
ATOM      3  C   UNL     1      19.190   1.936  53.487  0.00  0.00    +0.000 A 
ATOM      4  C   UNL     1      18.045   1.197  53.748  0.00  0.00    +0.000 A 
ATOM      5  C   UNL     1      19.206   2.933  52.411  0.00  0.00    +0.000 C 
ATOM      6  C   UNL     1      16.825   1.402  52.959  0.00  0.00    +0.000 C 
ATOM      7  C   UNL     1      17.981   3.095  51.590  0.00  0.00    +0.000 C 
ATOM      8  C   UNL     1      16.841   2.449  51.909  0.00  0.00    +0.000 C 
ATOM      9  C   UNL     1      20.340   1.734  54.248  0.00  0.00    +0.000 A 
ATOM     10  C   UNL     1      18.044   0.246  54.770  0.00  0.00    +0.000 A 
ATOM     11  C   UNL     1      20.341   0.787  55.269  0.00  0.00    +0.000 A 
ATOM     12  C   UNL     1      19.193   0.043  55.530  0.00  0.00    +0.000 A 
ENDROOT
BRANCH   7  13
ATOM     13  O   UNL     1      18.077   4.016  50.563  0.00  0.00    +0.000 OA
ATOM     14  C   UNL     1      18.604   3.394  49.416  0.00  0.00    +0.000 C 
ENDBRANCH   7  13
BRANCH   8  15
ATOM     15  O   UNL     1      15.646   2.628  51.235  0.00  0.00    +0.000 OA
ATOM     16  C   UNL     1      15.557   1.706  50.176  0.00  0.00    +0.000 C 
ENDBRANCH   8  15
TORSDOF 2
ENDMDL
MODEL 2
REMARK VINA RESULT:      -3.5      1.598      2.565
REMARK  Name = 3136_Dimethoxy.pdbqt.pdb
REMARK  2 active torsions:
REMARK  status: ('A' for Active; 'I' for Inactive)
REMARK    1  A    between atoms: C_7  and  O_13
REMARK    2  A    between atoms: C_8  and  O_15
REMARK                            x       y       z     vdW  Elec       q    Type
REMARK                         _______ _______ _______ _____ _____    ______ ____
ROOT
ATOM      1  O   UNL     1      21.738   3.372  53.151  0.00  0.00    +0.000 OA
ATOM      2  O   UNL     1      16.740   3.032  51.334  0.00  0.00    +0.000 OA
ATOM      3  C   UNL     1      19.660   2.309  53.288  0.00  0.00    +0.000 A 
ATOM      4  C   UNL     1      18.351   2.238  52.832  0.00  0.00    +0.000 A 
ATOM      5  C   UNL     1      20.600   3.277  52.712  0.00  0.00    +0.000 C 
ATOM      6  C   UNL     1      17.878   3.133  51.770  0.00  0.00    +0.000 C 
ATOM      7  C   UNL     1      20.122   4.141  51.605  0.00  0.00    +0.000 C 
ATOM      8  C   UNL     1      18.826   4.140  51.233  0.00  0.00    +0.000 C 
ATOM      9  C   UNL     1      20.094   1.456  54.302  0.00  0.00    +0.000 A 
ATOM     10  C   UNL     1      17.468   1.309  53.383  0.00  0.00    +0.000 A 
ATOM     11  C   UNL     1      19.214   0.529  54.855  0.00  0.00    +0.000 A 
ATOM     12  C   UNL     1      17.900   0.455  54.395  0.00  0.00    +0.000 A 
ENDROOT
BRANCH   7  13
ATOM     13  O   UNL     1      21.069   4.998  51.074  0.00  0.00    +0.000 OA
ATOM     14  C   UNL     1      21.633   4.423  49.920  0.00  0.00    +0.000 C 
ENDBRANCH   7  13
BRANCH   8  15
ATOM     15  O   UNL     1      18.305   4.986  50.270  0.00  0.00    +0.000 OA
ATOM     16  C   UNL     1      18.017   6.238  50.846  0.00  0.00    +0.000 C 
ENDBRANCH   8  15
TORSDOF 2
ENDMDL
MODEL 3
REMARK VINA RESULT:      -3.5      2.223      3.968
REMARK  Name = 3136_Dimethoxy.pdbqt.pdb
REMARK  2 active torsions:
REMARK  status: ('A' for Active; 'I' for Inactive)
REMARK    1  A    between atoms: C_7  and  O_13
REMARK    2  A    between atoms: C_8  and  O_15
REMARK                            x       y       z     vdW  Elec       q    Type
REMARK                         _______ _______ _______ _____ _____    ______ ____
ROOT
ATOM      1  O   UNL     1      22.490   2.196  55.555  0.00  0.00    +0.000 OA
ATOM      2  O   UNL     1      18.732   2.790  51.824  0.00  0.00    +0.000 OA
ATOM      3  C   UNL     1      20.404   1.528  54.735  0.00  0.00    +0.000 A 
ATOM      4  C   UNL     1      19.415   1.701  53.778  0.00  0.00    +0.000 A 
ATOM      5  C   UNL     1      21.642   2.314  54.681  0.00  0.00    +0.000 C 
ATOM      6  C   UNL     1      19.583   2.677  52.695  0.00  0.00    +0.000 C 
ATOM      7  C   UNL     1      21.820   3.261  53.553  0.00  0.00    +0.000 C 
ATOM      8  C   UNL     1      20.817   3.499  52.683  0.00  0.00    +0.000 C 
ATOM      9  C   UNL     1      20.228   0.602  55.762  0.00  0.00    +0.000 A 
ATOM     10  C   UNL     1      18.244   0.944  53.837  0.00  0.00    +0.000 A 
ATOM     11  C   UNL     1      19.060  -0.154  55.824  0.00  0.00    +0.000 A 
ATOM     12  C   UNL     1      18.068   0.016  54.861  0.00  0.00    +0.000 A 
ENDROOT
BRANCH   7  13
ATOM     13  O   UNL     1      23.027   3.935  53.533  0.00  0.00    +0.000 OA
ATOM     14  C   UNL     1      23.917   3.284  52.658  0.00  0.00    +0.000 C 
ENDBRANCH   7  13
BRANCH   8  15
ATOM     15  O   UNL     1      20.893   4.435  51.666  0.00  0.00    +0.000 OA
ATOM     16  C   UNL     1      20.493   5.694  52.152  0.00  0.00    +0.000 C 
ENDBRANCH   8  15
TORSDOF 2
ENDMDL
MODEL 4
REMARK VINA RESULT:      -3.5     21.565     23.459
REMARK  Name = 3136_Dimethoxy.pdbqt.pdb
REMARK  2 active torsions:
REMARK  status: ('A' for Active; 'I' for Inactive)
REMARK    1  A    between atoms: C_7  and  O_13
REMARK    2  A    between atoms: C_8  and  O_15
REMARK                            x       y       z     vdW  Elec       q    Type
REMARK                         _______ _______ _______ _____ _____    ______ ____
ROOT
ATOM      1  O   UNL     1      11.954   5.864  75.907  0.00  0.00    +0.000 OA
ATOM      2  O   UNL     1      12.212   0.878  74.044  0.00  0.00    +0.000 OA
ATOM      3  C   UNL     1      11.001   3.729  75.852  0.00  0.00    +0.000 A 
ATOM      4  C   UNL     1      11.055   2.438  75.346  0.00  0.00    +0.000 A 
ATOM      5  C   UNL     1      12.032   4.712  75.501  0.00  0.00    +0.000 C 
ATOM      6  C   UNL     1      12.139   2.031  74.446  0.00  0.00    +0.000 C 
ATOM      7  C   UNL     1      13.149   4.273  74.629  0.00  0.00    +0.000 C 
ATOM      8  C   UNL     1      13.145   3.050  74.060  0.00  0.00    +0.000 C 
ATOM      9  C   UNL     1       9.961   4.104  76.702  0.00  0.00    +0.000 A 
ATOM     10  C   UNL     1      10.071   1.510  75.692  0.00  0.00    +0.000 A 
ATOM     11  C   UNL     1       8.978   3.180  77.047  0.00  0.00    +0.000 A 
ATOM     12  C   UNL     1       9.033   1.882  76.543  0.00  0.00    +0.000 A 
ENDROOT
BRANCH   7  13
ATOM     13  O   UNL     1      14.112   5.232  74.375  0.00  0.00    +0.000 OA
ATOM     14  C   UNL     1      15.200   5.054  75.250  0.00  0.00    +0.000 C 
ENDBRANCH   7  13
BRANCH   8  15
ATOM     15  O   UNL     1      14.112   2.618  73.170  0.00  0.00    +0.000 OA
ATOM     16  C   UNL     1      13.756   2.998  71.862  0.00  0.00    +0.000 C 
ENDBRANCH   8  15
TORSDOF 2
ENDMDL
MODEL 5
REMARK VINA RESULT:      -3.4     14.244     15.648
REMARK  Name = 3136_Dimethoxy.pdbqt.pdb
REMARK  2 active torsions:
REMARK  status: ('A' for Active; 'I' for Inactive)
REMARK    1  A    between atoms: C_7  and  O_13
REMARK    2  A    between atoms: C_8  and  O_15
REMARK                            x       y       z     vdW  Elec       q    Type
REMARK                         _______ _______ _______ _____ _____    ______ ____
ROOT
ATOM      1  O   UNL     1       6.449   5.591  58.067  0.00  0.00    +0.000 OA
ATOM      2  O   UNL     1       5.197   6.346  63.192  0.00  0.00    +0.000 OA
ATOM      3  C   UNL     1       6.423   7.049  59.895  0.00  0.00    +0.000 A 
ATOM      4  C   UNL     1       6.074   7.254  61.223  0.00  0.00    +0.000 A 
ATOM      5  C   UNL     1       6.187   5.752  59.252  0.00  0.00    +0.000 C 
ATOM      6  C   UNL     1       5.456   6.180  62.008  0.00  0.00    +0.000 C 
ATOM      7  C   UNL     1       5.607   4.660  60.072  0.00  0.00    +0.000 C 
ATOM      8  C   UNL     1       5.178   4.890  61.329  0.00  0.00    +0.000 C 
ATOM      9  C   UNL     1       7.004   8.081  59.159  0.00  0.00    +0.000 A 
ATOM     10  C   UNL     1       6.308   8.490  61.825  0.00  0.00    +0.000 A 
ATOM     11  C   UNL     1       7.238   9.317  59.758  0.00  0.00    +0.000 A 
ATOM     12  C   UNL     1       6.890   9.521  61.091  0.00  0.00    +0.000 A 
ENDROOT
BRANCH   7  13
ATOM     13  O   UNL     1       5.455   3.450  59.420  0.00  0.00    +0.000 OA
ATOM     14  C   UNL     1       6.560   2.623  59.693  0.00  0.00    +0.000 C 
ENDBRANCH   7  13
BRANCH   8  15
ATOM     15  O   UNL     1       4.549   3.936  62.109  0.00  0.00    +0.000 OA
ATOM     16  C   UNL     1       3.161   3.977  61.880  0.00  0.00    +0.000 C 
ENDBRANCH   8  15
TORSDOF 2
ENDMDL
MODEL 6
REMARK VINA RESULT:      -3.4     21.092     23.066
REMARK  Name = 3136_Dimethoxy.pdbqt.pdb
REMARK  2 active torsions:
REMARK  status: ('A' for Active; 'I' for Inactive)
REMARK    1  A    between atoms: C_7  and  O_13
REMARK    2  A    between atoms: C_8  and  O_15
REMARK                            x       y       z     vdW  Elec       q    Type
REMARK                         _______ _______ _______ _____ _____    ______ ____
ROOT
ATOM      1  O   UNL     1      13.456   4.101  74.361  0.00  0.00    +0.000 OA
ATOM      2  O   UNL     1      10.357  -0.211  74.804  0.00  0.00    +0.000 OA
ATOM      3  C   UNL     1      11.553   3.131  75.314  0.00  0.00    +0.000 A 
ATOM      4  C   UNL     1      10.733   2.016  75.410  0.00  0.00    +0.000 A 
ATOM      5  C   UNL     1      12.762   3.101  74.483  0.00  0.00    +0.000 C 
ATOM      6  C   UNL     1      11.053   0.786  74.677  0.00  0.00    +0.000 C 
ATOM      7  C   UNL     1      13.100   1.835  73.787  0.00  0.00    +0.000 C 
ATOM      8  C   UNL     1      12.251   0.787  73.801  0.00  0.00    +0.000 C 
ATOM      9  C   UNL     1      11.234   4.296  76.011  0.00  0.00    +0.000 A 
ATOM     10  C   UNL     1       9.589   2.055  76.208  0.00  0.00    +0.000 A 
ATOM     11  C   UNL     1      10.092   4.338  76.807  0.00  0.00    +0.000 A 
ATOM     12  C   UNL     1       9.269   3.218  76.906  0.00  0.00    +0.000 A 
ENDROOT
BRANCH   7  13
ATOM     13  O   UNL     1      14.276   1.857  73.059  0.00  0.00    +0.000 OA
ATOM     14  C   UNL     1      15.315   1.294  73.823  0.00  0.00    +0.000 C 
ENDBRANCH   7  13
BRANCH   8  15
ATOM     15  O   UNL     1      12.470  -0.385  73.099  0.00  0.00    +0.000 OA
ATOM     16  C   UNL     1      11.948  -0.261  71.798  0.00  0.00    +0.000 C 
ENDBRANCH   8  15
TORSDOF 2
ENDMDL
MODEL 7
REMARK VINA RESULT:      -3.3     14.642     15.996
REMARK  Name = 3136_Dimethoxy.pdbqt.pdb
REMARK  2 active torsions:
REMARK  status: ('A' for Active; 'I' for Inactive)
REMARK    1  A    between atoms: C_7  and  O_13
REMARK    2  A    between atoms: C_8  and  O_15
REMARK                            x       y       z     vdW  Elec       q    Type
REMARK                         _______ _______ _______ _____ _____    ______ ____
ROOT
ATOM      1  O   UNL     1       5.228   6.316  63.288  0.00  0.00    +0.000 OA
ATOM      2  O   UNL     1       6.603   7.755  58.344  0.00  0.00    +0.000 OA
ATOM      3  C   UNL     1       5.519   5.675  61.058  0.00  0.00    +0.000 A 
ATOM      4  C   UNL     1       5.853   6.056  59.766  0.00  0.00    +0.000 A 
ATOM      5  C   UNL     1       5.572   6.642  62.159  0.00  0.00    +0.000 C 
ATOM      6  C   UNL     1       6.259   7.435  59.474  0.00  0.00    +0.000 C 
ATOM      7  C   UNL     1       6.032   8.020  61.858  0.00  0.00    +0.000 C 
ATOM      8  C   UNL     1       6.259   8.413  60.588  0.00  0.00    +0.000 C 
ATOM      9  C   UNL     1       5.129   4.362  61.320  0.00  0.00    +0.000 A 
ATOM     10  C   UNL     1       5.805   5.125  58.727  0.00  0.00    +0.000 A 
ATOM     11  C   UNL     1       5.078   3.432  60.285  0.00  0.00    +0.000 A 
ATOM     12  C   UNL     1       5.417   3.813  58.988  0.00  0.00    +0.000 A 
ENDROOT
BRANCH   7  13
ATOM     13  O   UNL     1       6.105   8.869  62.947  0.00  0.00    +0.000 OA
ATOM     14  C   UNL     1       4.909   9.603  63.056  0.00  0.00    +0.000 C 
ENDBRANCH   7  13
BRANCH   8  15
ATOM     15  O   UNL     1       6.603   9.707  60.239  0.00  0.00    +0.000 OA
ATOM     16  C   UNL     1       7.998   9.869  60.335  0.00  0.00    +0.000 C 
ENDBRANCH   8  15
TORSDOF 2
ENDMDL
MODEL 8
REMARK VINA RESULT:      -3.3     10.723     12.511
REMARK  Name = 3136_Dimethoxy.pdbqt.pdb
REMARK  2 active torsions:
REMARK  status: ('A' for Active; 'I' for Inactive)
REMARK    1  A    between atoms: C_7  and  O_13
REMARK    2  A    between atoms: C_8  and  O_15
REMARK                            x       y       z     vdW  Elec       q    Type
REMARK                         _______ _______ _______ _____ _____    ______ ____
ROOT
ATOM      1  O   UNL     1       5.389   3.955  57.593  0.00  0.00    +0.000 OA
ATOM      2  O   UNL     1       9.682   0.972  58.625  0.00  0.00    +0.000 OA
ATOM      3  C   UNL     1       7.694   3.887  57.982  0.00  0.00    +0.000 A 
ATOM      4  C   UNL     1       8.807   3.112  58.276  0.00  0.00    +0.000 A 
ATOM      5  C   UNL     1       6.377   3.265  57.801  0.00  0.00    +0.000 C 
ATOM      6  C   UNL     1       8.690   1.657  58.418  0.00  0.00    +0.000 C 
ATOM      7  C   UNL     1       6.283   1.787  57.898  0.00  0.00    +0.000 C 
ATOM      8  C   UNL     1       7.344   1.048  58.282  0.00  0.00    +0.000 C 
ATOM      9  C   UNL     1       7.818   5.270  57.856  0.00  0.00    +0.000 A 
ATOM     10  C   UNL     1      10.055   3.715  58.440  0.00  0.00    +0.000 A 
ATOM     11  C   UNL     1       9.062   5.874  58.022  0.00  0.00    +0.000 A 
ATOM     12  C   UNL     1      10.181   5.097  58.313  0.00  0.00    +0.000 A 
ENDROOT
BRANCH   7  13
ATOM     13  O   UNL     1       5.026   1.260  57.670  0.00  0.00    +0.000 OA
ATOM     14  C   UNL     1       4.901   0.902  56.315  0.00  0.00    +0.000 C 
ENDBRANCH   7  13
BRANCH   8  15
ATOM     15  O   UNL     1       7.293  -0.321  58.475  0.00  0.00    +0.000 OA
ATOM     16  C   UNL     1       6.786  -0.598  59.759  0.00  0.00    +0.000 C 
ENDBRANCH   8  15
TORSDOF 2
ENDMDL
MODEL 9
REMARK VINA RESULT:      -3.2     22.723     24.506
REMARK  Name = 3136_Dimethoxy.pdbqt.pdb
REMARK  2 active torsions:
REMARK  status: ('A' for Active; 'I' for Inactive)
REMARK    1  A    between atoms: C_7  and  O_13
REMARK    2  A    between atoms: C_8  and  O_15
REMARK                            x       y       z     vdW  Elec       q    Type
REMARK                         _______ _______ _______ _____ _____    ______ ____
ROOT
ATOM      1  O   UNL     1      13.686   4.619  74.481  0.00  0.00    +0.000 OA
ATOM      2  O   UNL     1       9.229   4.464  77.399  0.00  0.00    +0.000 OA
ATOM      3  C   UNL     1      11.859   3.361  75.224  0.00  0.00    +0.000 A 
ATOM      4  C   UNL     1      10.712   3.314  76.003  0.00  0.00    +0.000 A 
ATOM      5  C   UNL     1      12.647   4.595  75.129  0.00  0.00    +0.000 C 
ATOM      6  C   UNL     1      10.268   4.493  76.754  0.00  0.00    +0.000 C 
ATOM      7  C   UNL     1      12.159   5.794  75.853  0.00  0.00    +0.000 C 
ATOM      8  C   UNL     1      11.103   5.717  76.688  0.00  0.00    +0.000 C 
ATOM      9  C   UNL     1      12.273   2.231  74.520  0.00  0.00    +0.000 A 
ATOM     10  C   UNL     1       9.968   2.136  76.081  0.00  0.00    +0.000 A 
ATOM     11  C   UNL     1      11.532   1.054  74.597  0.00  0.00    +0.000 A 
ATOM     12  C   UNL     1      10.379   1.006  75.377  0.00  0.00    +0.000 A 
ENDROOT
BRANCH   7  13
ATOM     13  O   UNL     1      12.920   6.936  75.685  0.00  0.00    +0.000 OA
ATOM     14  C   UNL     1      12.328   7.759  74.710  0.00  0.00    +0.000 C 
ENDBRANCH   7  13
BRANCH   8  15
ATOM     15  O   UNL     1      10.658   6.778  77.457  0.00  0.00    +0.000 OA
ATOM     16  C   UNL     1      11.312   6.766  78.704  0.00  0.00    +0.000 C 
ENDBRANCH   8  15
TORSDOF 2
ENDMDL
