MODEL 1
REMARK VINA RESULT:      -3.5      0.000      0.000
REMARK  Name = 326_Cuminaldehyde.pdb
REMARK  1 active torsions:
REMARK  status: ('A' for Active; 'I' for Inactive)
REMARK    1  A    between atoms: C_1  and  C_7
REMARK                            x       y       z     vdW  Elec       q    Type
REMARK                         _______ _______ _______ _____ _____    ______ ____
ROOT
ATOM      1  C   UNL     1      19.043   0.969  54.552  0.00  0.00    +0.000 C 
ATOM      2  C   UNL     1      19.919   1.847  53.909  0.00  0.00    +0.000 C 
ATOM      3  C   UNL     1      17.749   0.803  54.053  0.00  0.00    +0.000 C 
ATOM      4  C   UNL     1      19.506   2.551  52.779  0.00  0.00    +0.000 C 
ATOM      5  C   UNL     1      17.334   1.507  52.924  0.00  0.00    +0.000 C 
ATOM      6  C   UNL     1      18.215   2.380  52.288  0.00  0.00    +0.000 C 
ATOM      7  O   UNL     1      17.442   3.695  50.180  0.00  0.00    +0.000 OA
ATOM      8  C   UNL     1      17.791   3.101  51.133  0.00  0.00    +0.000 C 
ENDROOT
BRANCH   1   9
ATOM      9  C   UNL     1      19.477   0.231  55.735  0.00  0.00    +0.000 C 
ATOM     10  C   UNL     1      20.791   0.529  56.411  0.00  0.00    +0.000 C 
ATOM     11  C   UNL     1      18.630  -0.863  56.334  0.00  0.00    +0.000 C 
ENDBRANCH   1   9
TORSDOF 1
ENDMDL
MODEL 2
REMARK VINA RESULT:      -3.5      1.334      1.643
REMARK  Name = 326_Cuminaldehyde.pdb
REMARK  1 active torsions:
REMARK  status: ('A' for Active; 'I' for Inactive)
REMARK    1  A    between atoms: C_1  and  C_7
REMARK                            x       y       z     vdW  Elec       q    Type
REMARK                         _______ _______ _______ _____ _____    ______ ____
ROOT
ATOM      1  C   UNL     1      18.827   1.379  53.920  0.00  0.00    +0.000 C 
ATOM      2  C   UNL     1      19.048   2.278  52.875  0.00  0.00    +0.000 C 
ATOM      3  C   UNL     1      17.580   0.761  54.043  0.00  0.00    +0.000 C 
ATOM      4  C   UNL     1      18.034   2.556  51.959  0.00  0.00    +0.000 C 
ATOM      5  C   UNL     1      16.565   1.039  53.129  0.00  0.00    +0.000 C 
ATOM      6  C   UNL     1      16.794   1.936  52.088  0.00  0.00    +0.000 C 
ATOM      7  O   UNL     1      14.899   2.454  50.381  0.00  0.00    +0.000 OA
ATOM      8  C   UNL     1      15.756   2.220  51.153  0.00  0.00    +0.000 C 
ENDROOT
BRANCH   1   9
ATOM      9  C   UNL     1      19.890   1.088  54.878  0.00  0.00    +0.000 C 
ATOM     10  C   UNL     1      21.227   1.781  54.805  0.00  0.00    +0.000 C 
ATOM     11  C   UNL     1      19.698   0.081  55.985  0.00  0.00    +0.000 C 
ENDBRANCH   1   9
TORSDOF 1
ENDMDL
MODEL 3
REMARK VINA RESULT:      -3.4      3.081      5.108
REMARK  Name = 326_Cuminaldehyde.pdb
REMARK  1 active torsions:
REMARK  status: ('A' for Active; 'I' for Inactive)
REMARK    1  A    between atoms: C_1  and  C_7
REMARK                            x       y       z     vdW  Elec       q    Type
REMARK                         _______ _______ _______ _____ _____    ______ ____
ROOT
ATOM      1  C   UNL     1      19.218   1.457  54.024  0.00  0.00    +0.000 C 
ATOM      2  C   UNL     1      18.054   0.687  54.087  0.00  0.00    +0.000 C 
ATOM      3  C   UNL     1      20.212   1.279  54.990  0.00  0.00    +0.000 C 
ATOM      4  C   UNL     1      17.886  -0.253  55.103  0.00  0.00    +0.000 C 
ATOM      5  C   UNL     1      20.045   0.341  56.007  0.00  0.00    +0.000 C 
ATOM      6  C   UNL     1      18.881  -0.424  56.062  0.00  0.00    +0.000 C 
ATOM      7  O   UNL     1      18.569  -2.176  57.961  0.00  0.00    +0.000 OA
ATOM      8  C   UNL     1      18.710  -1.384  57.103  0.00  0.00    +0.000 C 
ENDROOT
BRANCH   1   9
ATOM      9  C   UNL     1      19.393   2.439  52.959  0.00  0.00    +0.000 C 
ATOM     10  C   UNL     1      20.693   3.185  52.781  0.00  0.00    +0.000 C 
ATOM     11  C   UNL     1      18.283   2.754  51.988  0.00  0.00    +0.000 C 
ENDBRANCH   1   9
TORSDOF 1
ENDMDL
MODEL 4
REMARK VINA RESULT:      -3.4      3.060      5.217
REMARK  Name = 326_Cuminaldehyde.pdb
REMARK  1 active torsions:
REMARK  status: ('A' for Active; 'I' for Inactive)
REMARK    1  A    between atoms: C_1  and  C_7
REMARK                            x       y       z     vdW  Elec       q    Type
REMARK                         _______ _______ _______ _____ _____    ______ ____
ROOT
ATOM      1  C   UNL     1      18.703   1.360  53.767  0.00  0.00    +0.000 C 
ATOM      2  C   UNL     1      18.189   0.364  54.602  0.00  0.00    +0.000 C 
ATOM      3  C   UNL     1      19.973   1.882  54.021  0.00  0.00    +0.000 C 
ATOM      4  C   UNL     1      18.940  -0.106  55.679  0.00  0.00    +0.000 C 
ATOM      5  C   UNL     1      20.724   1.413  55.098  0.00  0.00    +0.000 C 
ATOM      6  C   UNL     1      20.205   0.419  55.925  0.00  0.00    +0.000 C 
ATOM      7  O   UNL     1      21.606  -0.456  57.936  0.00  0.00    +0.000 OA
ATOM      8  C   UNL     1      20.973  -0.060  57.027  0.00  0.00    +0.000 C 
ENDROOT
BRANCH   1   9
ATOM      9  C   UNL     1      17.917   1.851  52.639  0.00  0.00    +0.000 C 
ATOM     10  C   UNL     1      16.417   1.992  52.725  0.00  0.00    +0.000 C 
ATOM     11  C   UNL     1      18.568   2.241  51.336  0.00  0.00    +0.000 C 
ENDBRANCH   1   9
TORSDOF 1
ENDMDL
MODEL 5
REMARK VINA RESULT:      -3.3     22.654     24.579
REMARK  Name = 326_Cuminaldehyde.pdb
REMARK  1 active torsions:
REMARK  status: ('A' for Active; 'I' for Inactive)
REMARK    1  A    between atoms: C_1  and  C_7
REMARK                            x       y       z     vdW  Elec       q    Type
REMARK                         _______ _______ _______ _____ _____    ______ ____
ROOT
ATOM      1  C   UNL     1      10.327   2.388  75.787  0.00  0.00    +0.000 C 
ATOM      2  C   UNL     1       9.323   2.956  76.576  0.00  0.00    +0.000 C 
ATOM      3  C   UNL     1      10.201   1.064  75.361  0.00  0.00    +0.000 C 
ATOM      4  C   UNL     1       8.203   2.207  76.933  0.00  0.00    +0.000 C 
ATOM      5  C   UNL     1       9.081   0.314  75.719  0.00  0.00    +0.000 C 
ATOM      6  C   UNL     1       8.084   0.887  76.505  0.00  0.00    +0.000 C 
ATOM      7  O   UNL     1       5.994  -0.512  77.174  0.00  0.00    +0.000 OA
ATOM      8  C   UNL     1       6.939   0.120  76.872  0.00  0.00    +0.000 C 
ENDROOT
BRANCH   1   9
ATOM      9  C   UNL     1      11.500   3.173  75.412  0.00  0.00    +0.000 C 
ATOM     10  C   UNL     1      12.573   2.607  74.515  0.00  0.00    +0.000 C 
ATOM     11  C   UNL     1      11.691   4.586  75.904  0.00  0.00    +0.000 C 
ENDBRANCH   1   9
TORSDOF 1
ENDMDL
MODEL 6
REMARK VINA RESULT:      -3.3      2.863      4.267
REMARK  Name = 326_Cuminaldehyde.pdb
REMARK  1 active torsions:
REMARK  status: ('A' for Active; 'I' for Inactive)
REMARK    1  A    between atoms: C_1  and  C_7
REMARK                            x       y       z     vdW  Elec       q    Type
REMARK                         _______ _______ _______ _____ _____    ______ ____
ROOT
ATOM      1  C   UNL     1      19.181   0.943  54.471  0.00  0.00    +0.000 C 
ATOM      2  C   UNL     1      18.140   0.894  53.541  0.00  0.00    +0.000 C 
ATOM      3  C   UNL     1      19.130   0.127  55.604  0.00  0.00    +0.000 C 
ATOM      4  C   UNL     1      17.059   0.037  53.741  0.00  0.00    +0.000 C 
ATOM      5  C   UNL     1      18.048  -0.729  55.805  0.00  0.00    +0.000 C 
ATOM      6  C   UNL     1      17.014  -0.773  54.873  0.00  0.00    +0.000 C 
ATOM      7  O   UNL     1      14.996  -2.371  55.248  0.00  0.00    +0.000 OA
ATOM      8  C   UNL     1      15.908  -1.649  55.078  0.00  0.00    +0.000 C 
ENDROOT
BRANCH   1   9
ATOM      9  C   UNL     1      20.314   1.840  54.261  0.00  0.00    +0.000 C 
ATOM     10  C   UNL     1      21.555   1.756  55.115  0.00  0.00    +0.000 C 
ATOM     11  C   UNL     1      20.295   2.892  53.180  0.00  0.00    +0.000 C 
ENDBRANCH   1   9
TORSDOF 1
ENDMDL
MODEL 7
REMARK VINA RESULT:      -3.3     22.200     23.802
REMARK  Name = 326_Cuminaldehyde.pdb
REMARK  1 active torsions:
REMARK  status: ('A' for Active; 'I' for Inactive)
REMARK    1  A    between atoms: C_1  and  C_7
REMARK                            x       y       z     vdW  Elec       q    Type
REMARK                         _______ _______ _______ _____ _____    ______ ____
ROOT
ATOM      1  C   UNL     1       9.841   2.460  76.125  0.00  0.00    +0.000 C 
ATOM      2  C   UNL     1      10.775   1.798  75.324  0.00  0.00    +0.000 C 
ATOM      3  C   UNL     1      10.086   3.777  76.521  0.00  0.00    +0.000 C 
ATOM      4  C   UNL     1      11.940   2.447  74.920  0.00  0.00    +0.000 C 
ATOM      5  C   UNL     1      11.252   4.427  76.118  0.00  0.00    +0.000 C 
ATOM      6  C   UNL     1      12.178   3.760  75.318  0.00  0.00    +0.000 C 
ATOM      7  O   UNL     1      14.354   4.972  74.567  0.00  0.00    +0.000 OA
ATOM      8  C   UNL     1      13.370   4.425  74.907  0.00  0.00    +0.000 C 
ENDROOT
BRANCH   1   9
ATOM      9  C   UNL     1       8.620   1.780  76.547  0.00  0.00    +0.000 C 
ATOM     10  C   UNL     1       7.391   2.551  76.960  0.00  0.00    +0.000 C 
ATOM     11  C   UNL     1       8.531   0.275  76.588  0.00  0.00    +0.000 C 
ENDBRANCH   1   9
TORSDOF 1
ENDMDL
MODEL 8
REMARK VINA RESULT:      -3.3     21.582     23.410
REMARK  Name = 326_Cuminaldehyde.pdb
REMARK  1 active torsions:
REMARK  status: ('A' for Active; 'I' for Inactive)
REMARK    1  A    between atoms: C_1  and  C_7
REMARK                            x       y       z     vdW  Elec       q    Type
REMARK                         _______ _______ _______ _____ _____    ______ ____
ROOT
ATOM      1  C   UNL     1      10.158   2.592  75.977  0.00  0.00    +0.000 C 
ATOM      2  C   UNL     1      10.631   3.895  76.154  0.00  0.00    +0.000 C 
ATOM      3  C   UNL     1      10.907   1.686  75.223  0.00  0.00    +0.000 C 
ATOM      4  C   UNL     1      11.841   4.287  75.585  0.00  0.00    +0.000 C 
ATOM      5  C   UNL     1      12.117   2.077  74.652  0.00  0.00    +0.000 C 
ATOM      6  C   UNL     1      12.582   3.378  74.834  0.00  0.00    +0.000 C 
ATOM      7  O   UNL     1      14.841   4.108  73.769  0.00  0.00    +0.000 OA
ATOM      8  C   UNL     1      13.820   3.778  74.251  0.00  0.00    +0.000 C 
ENDROOT
BRANCH   1   9
ATOM      9  C   UNL     1       8.890   2.182  76.575  0.00  0.00    +0.000 C 
ATOM     10  C   UNL     1       8.133   3.087  77.514  0.00  0.00    +0.000 C 
ATOM     11  C   UNL     1       8.280   0.835  76.280  0.00  0.00    +0.000 C 
ENDBRANCH   1   9
TORSDOF 1
ENDMDL
MODEL 9
REMARK VINA RESULT:      -3.3     17.587     19.534
REMARK  Name = 326_Cuminaldehyde.pdb
REMARK  1 active torsions:
REMARK  status: ('A' for Active; 'I' for Inactive)
REMARK    1  A    between atoms: C_1  and  C_7
REMARK                            x       y       z     vdW  Elec       q    Type
REMARK                         _______ _______ _______ _____ _____    ______ ____
ROOT
ATOM      1  C   UNL     1       7.801  -1.312  70.768  0.00  0.00    +0.000 C 
ATOM      2  C   UNL     1       9.117  -0.845  70.811  0.00  0.00    +0.000 C 
ATOM      3  C   UNL     1       7.159  -1.447  69.535  0.00  0.00    +0.000 C 
ATOM      4  C   UNL     1       9.785  -0.517  69.632  0.00  0.00    +0.000 C 
ATOM      5  C   UNL     1       7.826  -1.119  68.356  0.00  0.00    +0.000 C 
ATOM      6  C   UNL     1       9.139  -0.654  68.407  0.00  0.00    +0.000 C 
ATOM      7  O   UNL     1      10.384  -0.042  66.206  0.00  0.00    +0.000 OA
ATOM      8  C   UNL     1       9.821  -0.319  67.200  0.00  0.00    +0.000 C 
ENDROOT
BRANCH   1   9
ATOM      9  C   UNL     1       7.102  -1.656  72.003  0.00  0.00    +0.000 C 
ATOM     10  C   UNL     1       5.713  -2.243  71.985  0.00  0.00    +0.000 C 
ATOM     11  C   UNL     1       7.737  -1.439  73.354  0.00  0.00    +0.000 C 
ENDBRANCH   1   9
TORSDOF 1
ENDMDL
