MODEL 1
REMARK VINA RESULT:      -3.3      0.000      0.000
REMARK  Name = 3363_5FluorouracilDeoxyriboside.pdbqt.pdb
REMARK  4 active torsions:
REMARK  status: ('A' for Active; 'I' for Inactive)
REMARK    1  A    between atoms: N_4  and  C1*_13
REMARK    2  A    between atoms: C3*_12  and  O3*_16
REMARK    3  A    between atoms: C4*_15  and  C5*_18
REMARK    4  A    between atoms: C5*_18  and  O5*_19
REMARK                            x       y       z     vdW  Elec       q    Type
REMARK                         _______ _______ _______ _____ _____    ______ ____
ROOT
ATOM      1  F   UNL     1      14.274  13.380  56.434  0.00  0.00    +0.000 F 
ATOM      2  O   UNL     1      14.935  10.911  61.227  0.00  0.00    +0.000 OA
ATOM      3  O   UNL     1      16.627  11.952  57.090  0.00  0.00    +0.000 OA
ATOM      4  N   UNL     1      13.702  12.415  59.872  0.00  0.00    +0.000 N 
ATOM      5  N   UNL     1      15.770  11.532  59.186  0.00  0.00    +0.000 N 
ATOM      6  C   UNL     1      14.788  11.570  60.205  0.00  0.00    +0.000 C 
ATOM      7  C   UNL     1      13.754  13.041  58.678  0.00  0.00    +0.000 C 
ATOM      8  C   UNL     1      14.595  13.068  57.701  0.00  0.00    +0.000 C 
ATOM      9  C   UNL     1      15.760  12.155  57.931  0.00  0.00    +0.000 C 
ATOM     10  H   UNL     1      16.546  10.910  59.362  0.00  0.00    +0.000 HD
ENDROOT
BRANCH   4  13
ATOM     11  O4* UNL     1      11.383  12.007  60.427  0.00  0.00    +0.000 OA
ATOM     12  C3* UNL     1      11.214  13.310  62.336  0.00  0.00    +0.000 A 
ATOM     13  C1* UNL     1      12.618  12.620  60.677  0.00  0.00    +0.000 A 
ATOM     14  C2* UNL     1      12.526  13.407  61.841  0.00  0.00    +0.000 A 
ATOM     15  C4* UNL     1      10.511  12.424  61.440  0.00  0.00    +0.000 A 
BRANCH  12  16
ATOM     16  O3* UNL     1      10.900  13.396  63.663  0.00  0.00    +0.000 OA
ATOM     17  H3* UNL     1      11.403  14.098  64.115  0.00  0.00    +0.000 HD
ENDBRANCH  12  16
BRANCH  15  18
ATOM     18  C5* UNL     1       9.235  11.855  61.621  0.00  0.00    +0.000 C 
BRANCH  18  19
ATOM     19  O5* UNL     1       8.039  11.309  61.811  0.00  0.00    +0.000 OA
ATOM     20  H5* UNL     1       8.075  10.635  62.511  0.00  0.00    +0.000 HD
ENDBRANCH  18  19
ENDBRANCH  15  18
ENDBRANCH   4  13
TORSDOF 4
ENDMDL
MODEL 2
REMARK VINA RESULT:      -3.2      4.190      5.557
REMARK  Name = 3363_5FluorouracilDeoxyriboside.pdbqt.pdb
REMARK  4 active torsions:
REMARK  status: ('A' for Active; 'I' for Inactive)
REMARK    1  A    between atoms: N_4  and  C1*_13
REMARK    2  A    between atoms: C3*_12  and  O3*_16
REMARK    3  A    between atoms: C4*_15  and  C5*_18
REMARK    4  A    between atoms: C5*_18  and  O5*_19
REMARK                            x       y       z     vdW  Elec       q    Type
REMARK                         _______ _______ _______ _____ _____    ______ ____
ROOT
ATOM      1  F   UNL     1       7.707  12.584  56.586  0.00  0.00    +0.000 F 
ATOM      2  O   UNL     1      10.445  11.519  61.156  0.00  0.00    +0.000 OA
ATOM      3  O   UNL     1      10.443  13.232  56.898  0.00  0.00    +0.000 OA
ATOM      4  N   UNL     1       8.368  11.670  60.022  0.00  0.00    +0.000 N 
ATOM      5  N   UNL     1      10.370  12.441  59.060  0.00  0.00    +0.000 N 
ATOM      6  C   UNL     1       9.764  11.838  60.188  0.00  0.00    +0.000 C 
ATOM      7  C   UNL     1       7.832  12.094  58.859  0.00  0.00    +0.000 C 
ATOM      8  C   UNL     1       8.297  12.649  57.792  0.00  0.00    +0.000 C 
ATOM      9  C   UNL     1       9.785  12.817  57.843  0.00  0.00    +0.000 C 
ATOM     10  H   UNL     1      11.373  12.545  59.116  0.00  0.00    +0.000 HD
ENDROOT
BRANCH   4  13
ATOM     11  O4* UNL     1       7.151   9.763  60.878  0.00  0.00    +0.000 OA
ATOM     12  C3* UNL     1       6.224  10.722  62.773  0.00  0.00    +0.000 A 
ATOM     13  C1* UNL     1       7.550  11.103  60.958  0.00  0.00    +0.000 A 
ATOM     14  C2* UNL     1       6.998  11.692  62.112  0.00  0.00    +0.000 A 
ATOM     15  C4* UNL     1       6.335   9.516  61.989  0.00  0.00    +0.000 A 
BRANCH  12  16
ATOM     16  O3* UNL     1       6.051  10.691  64.129  0.00  0.00    +0.000 OA
ATOM     17  H3* UNL     1       5.855   9.794  64.453  0.00  0.00    +0.000 HD
ENDBRANCH  12  16
BRANCH  15  18
ATOM     18  C5* UNL     1       5.911   8.220  62.343  0.00  0.00    +0.000 C 
BRANCH  18  19
ATOM     19  O5* UNL     1       5.505   7.005  62.695  0.00  0.00    +0.000 OA
ATOM     20  H5* UNL     1       6.076   6.641  63.394  0.00  0.00    +0.000 HD
ENDBRANCH  18  19
ENDBRANCH  15  18
ENDBRANCH   4  13
TORSDOF 4
ENDMDL
MODEL 3
REMARK VINA RESULT:      -3.0      8.573     10.038
REMARK  Name = 3363_5FluorouracilDeoxyriboside.pdbqt.pdb
REMARK  4 active torsions:
REMARK  status: ('A' for Active; 'I' for Inactive)
REMARK    1  A    between atoms: N_4  and  C1*_13
REMARK    2  A    between atoms: C3*_12  and  O3*_16
REMARK    3  A    between atoms: C4*_15  and  C5*_18
REMARK    4  A    between atoms: C5*_18  and  O5*_19
REMARK                            x       y       z     vdW  Elec       q    Type
REMARK                         _______ _______ _______ _____ _____    ______ ____
ROOT
ATOM      1  F   UNL     1       5.136   4.784  54.598  0.00  0.00    +0.000 F 
ATOM      2  O   UNL     1       8.212   3.303  58.823  0.00  0.00    +0.000 OA
ATOM      3  O   UNL     1       6.714   2.437  54.572  0.00  0.00    +0.000 OA
ATOM      4  N   UNL     1       6.895   4.959  57.752  0.00  0.00    +0.000 N 
ATOM      5  N   UNL     1       7.504   2.962  56.671  0.00  0.00    +0.000 N 
ATOM      6  C   UNL     1       7.591   3.730  57.857  0.00  0.00    +0.000 C 
ATOM      7  C   UNL     1       6.273   5.215  56.583  0.00  0.00    +0.000 C 
ATOM      8  C   UNL     1       6.142   4.587  55.465  0.00  0.00    +0.000 C 
ATOM      9  C   UNL     1       6.798   3.240  55.493  0.00  0.00    +0.000 C 
ATOM     10  H   UNL     1       7.953   2.058  56.712  0.00  0.00    +0.000 HD
ENDROOT
BRANCH   4  13
ATOM     11  O4* UNL     1       5.960   5.703  59.856  0.00  0.00    +0.000 OA
ATOM     12  C3* UNL     1       7.112   7.699  60.099  0.00  0.00    +0.000 A 
ATOM     13  C1* UNL     1       6.813   5.879  58.759  0.00  0.00    +0.000 A 
ATOM     14  C2* UNL     1       7.524   7.086  58.903  0.00  0.00    +0.000 A 
ATOM     15  C4* UNL     1       6.134   6.816  60.687  0.00  0.00    +0.000 A 
BRANCH  12  16
ATOM     16  O3* UNL     1       7.926   8.488  60.862  0.00  0.00    +0.000 OA
ATOM     17  H3* UNL     1       7.433   9.198  61.311  0.00  0.00    +0.000 HD
ENDBRANCH  12  16
BRANCH  15  18
ATOM     18  C5* UNL     1       5.581   6.887  61.981  0.00  0.00    +0.000 C 
BRANCH  18  19
ATOM     19  O5* UNL     1       5.077   6.944  63.209  0.00  0.00    +0.000 OA
ATOM     20  H5* UNL     1       5.571   7.580  63.754  0.00  0.00    +0.000 HD
ENDBRANCH  18  19
ENDBRANCH  15  18
ENDBRANCH   4  13
TORSDOF 4
ENDMDL
MODEL 4
REMARK VINA RESULT:      -3.0     12.107     13.848
REMARK  Name = 3363_5FluorouracilDeoxyriboside.pdbqt.pdb
REMARK  4 active torsions:
REMARK  status: ('A' for Active; 'I' for Inactive)
REMARK    1  A    between atoms: N_4  and  C1*_13
REMARK    2  A    between atoms: C3*_12  and  O3*_16
REMARK    3  A    between atoms: C4*_15  and  C5*_18
REMARK    4  A    between atoms: C5*_18  and  O5*_19
REMARK                            x       y       z     vdW  Elec       q    Type
REMARK                         _______ _______ _______ _____ _____    ______ ____
ROOT
ATOM      1  F   UNL     1      15.898   6.879  75.246  0.00  0.00    +0.000 F 
ATOM      2  O   UNL     1      11.792   8.802  72.254  0.00  0.00    +0.000 OA
ATOM      3  O   UNL     1      13.582   8.015  76.406  0.00  0.00    +0.000 OA
ATOM      4  N   UNL     1      14.023   8.010  72.368  0.00  0.00    +0.000 N 
ATOM      5  N   UNL     1      12.767   8.469  74.301  0.00  0.00    +0.000 N 
ATOM      6  C   UNL     1      12.784   8.457  72.885  0.00  0.00    +0.000 C 
ATOM      7  C   UNL     1      14.977   7.674  73.260  0.00  0.00    +0.000 C 
ATOM      8  C   UNL     1      15.053   7.655  74.548  0.00  0.00    +0.000 C 
ATOM      9  C   UNL     1      13.763   8.057  75.196  0.00  0.00    +0.000 C 
ATOM     10  H   UNL     1      11.888   8.743  74.716  0.00  0.00    +0.000 HD
ENDROOT
BRANCH   4  13
ATOM     11  O4* UNL     1      15.039   6.822  70.521  0.00  0.00    +0.000 OA
ATOM     12  C3* UNL     1      14.419   8.221  68.781  0.00  0.00    +0.000 A 
ATOM     13  C1* UNL     1      14.298   7.894  71.034  0.00  0.00    +0.000 A 
ATOM     14  C2* UNL     1      13.909   8.745  69.982  0.00  0.00    +0.000 A 
ATOM     15  C4* UNL     1      15.120   7.011  69.136  0.00  0.00    +0.000 A 
BRANCH  12  16
ATOM     16  O3* UNL     1      13.803   8.372  67.570  0.00  0.00    +0.000 OA
ATOM     17  H3* UNL     1      12.832   8.376  67.651  0.00  0.00    +0.000 HD
ENDBRANCH  12  16
BRANCH  15  18
ATOM     18  C5* UNL     1      15.626   6.025  68.266  0.00  0.00    +0.000 C 
BRANCH  18  19
ATOM     19  O5* UNL     1      16.119   5.108  67.441  0.00  0.00    +0.000 OA
ATOM     20  H5* UNL     1      16.616   5.529  66.718  0.00  0.00    +0.000 HD
ENDBRANCH  18  19
ENDBRANCH  15  18
ENDBRANCH   4  13
TORSDOF 4
ENDMDL
MODEL 5
REMARK VINA RESULT:      -2.9     16.573     18.567
REMARK  Name = 3363_5FluorouracilDeoxyriboside.pdbqt.pdb
REMARK  4 active torsions:
REMARK  status: ('A' for Active; 'I' for Inactive)
REMARK    1  A    between atoms: N_4  and  C1*_13
REMARK    2  A    between atoms: C3*_12  and  O3*_16
REMARK    3  A    between atoms: C4*_15  and  C5*_18
REMARK    4  A    between atoms: C5*_18  and  O5*_19
REMARK                            x       y       z     vdW  Elec       q    Type
REMARK                         _______ _______ _______ _____ _____    ______ ____
ROOT
ATOM      1  F   UNL     1       1.771  11.702  75.382  0.00  0.00    +0.000 F 
ATOM      2  O   UNL     1       3.938   7.950  72.106  0.00  0.00    +0.000 OA
ATOM      3  O   UNL     1       2.803  12.338  72.826  0.00  0.00    +0.000 OA
ATOM      4  N   UNL     1       3.141   8.551  74.256  0.00  0.00    +0.000 N 
ATOM      5  N   UNL     1       3.433  10.140  72.549  0.00  0.00    +0.000 N 
ATOM      6  C   UNL     1       3.541   8.777  72.918  0.00  0.00    +0.000 C 
ATOM      7  C   UNL     1       2.731   9.622  74.966  0.00  0.00    +0.000 C 
ATOM      8  C   UNL     1       2.603  10.881  74.720  0.00  0.00    +0.000 C 
ATOM      9  C   UNL     1       2.948  11.219  73.301  0.00  0.00    +0.000 C 
ATOM     10  H   UNL     1       3.670  10.345  71.589  0.00  0.00    +0.000 HD
ENDROOT
BRANCH   4  13
ATOM     11  O4* UNL     1       4.276   6.504  74.871  0.00  0.00    +0.000 OA
ATOM     12  C3* UNL     1       2.553   5.436  75.993  0.00  0.00    +0.000 A 
ATOM     13  C1* UNL     1       3.140   7.323  74.856  0.00  0.00    +0.000 A 
ATOM     14  C2* UNL     1       2.090   6.685  75.543  0.00  0.00    +0.000 A 
ATOM     15  C4* UNL     1       3.928   5.340  75.567  0.00  0.00    +0.000 A 
BRANCH  12  16
ATOM     16  O3* UNL     1       2.104   4.830  77.133  0.00  0.00    +0.000 OA
ATOM     17  H3* UNL     1       2.791   4.280  77.551  0.00  0.00    +0.000 HD
ENDBRANCH  12  16
BRANCH  15  18
ATOM     18  C5* UNL     1       4.880   4.374  75.949  0.00  0.00    +0.000 C 
BRANCH  18  19
ATOM     19  O5* UNL     1       5.793   3.477  76.305  0.00  0.00    +0.000 OA
ATOM     20  H5* UNL     1       5.390   2.597  76.402  0.00  0.00    +0.000 HD
ENDBRANCH  18  19
ENDBRANCH  15  18
ENDBRANCH   4  13
TORSDOF 4
ENDMDL
MODEL 6
REMARK VINA RESULT:      -2.9      7.593      9.667
REMARK  Name = 3363_5FluorouracilDeoxyriboside.pdbqt.pdb
REMARK  4 active torsions:
REMARK  status: ('A' for Active; 'I' for Inactive)
REMARK    1  A    between atoms: N_4  and  C1*_13
REMARK    2  A    between atoms: C3*_12  and  O3*_16
REMARK    3  A    between atoms: C4*_15  and  C5*_18
REMARK    4  A    between atoms: C5*_18  and  O5*_19
REMARK                            x       y       z     vdW  Elec       q    Type
REMARK                         _______ _______ _______ _____ _____    ______ ____
ROOT
ATOM      1  F   UNL     1       6.735   9.675  61.860  0.00  0.00    +0.000 F 
ATOM      2  O   UNL     1       6.112   8.382  56.620  0.00  0.00    +0.000 OA
ATOM      3  O   UNL     1       6.215  11.620  59.871  0.00  0.00    +0.000 OA
ATOM      4  N   UNL     1       6.767   7.738  58.806  0.00  0.00    +0.000 N 
ATOM      5  N   UNL     1       6.261   9.970  58.265  0.00  0.00    +0.000 N 
ATOM      6  C   UNL     1       6.366   8.639  57.791  0.00  0.00    +0.000 C 
ATOM      7  C   UNL     1       6.986   8.252  60.033  0.00  0.00    +0.000 C 
ATOM      8  C   UNL     1       6.920   9.431  60.552  0.00  0.00    +0.000 C 
ATOM      9  C   UNL     1       6.444  10.456  59.567  0.00  0.00    +0.000 C 
ATOM     10  H   UNL     1       5.938  10.643  57.585  0.00  0.00    +0.000 HD
ENDROOT
BRANCH   4  13
ATOM     11  O4* UNL     1       8.197   5.824  58.425  0.00  0.00    +0.000 OA
ATOM     12  C3* UNL     1       6.591   4.155  58.366  0.00  0.00    +0.000 A 
ATOM     13  C1* UNL     1       6.932   6.396  58.614  0.00  0.00    +0.000 A 
ATOM     14  C2* UNL     1       5.950   5.386  58.589  0.00  0.00    +0.000 A 
ATOM     15  C4* UNL     1       8.000   4.446  58.271  0.00  0.00    +0.000 A 
BRANCH  12  16
ATOM     16  O3* UNL     1       6.129   2.965  58.855  0.00  0.00    +0.000 OA
ATOM     17  H3* UNL     1       5.543   3.086  59.624  0.00  0.00    +0.000 HD
ENDBRANCH  12  16
BRANCH  15  18
ATOM     18  C5* UNL     1       9.068   3.527  58.255  0.00  0.00    +0.000 C 
BRANCH  18  19
ATOM     19  O5* UNL     1      10.088   2.677  58.239  0.00  0.00    +0.000 OA
ATOM     20  H5* UNL     1       9.776   1.768  58.090  0.00  0.00    +0.000 HD
ENDBRANCH  18  19
ENDBRANCH  15  18
ENDBRANCH   4  13
TORSDOF 4
ENDMDL
MODEL 7
REMARK VINA RESULT:      -2.8     11.861     13.695
REMARK  Name = 3363_5FluorouracilDeoxyriboside.pdbqt.pdb
REMARK  4 active torsions:
REMARK  status: ('A' for Active; 'I' for Inactive)
REMARK    1  A    between atoms: N_4  and  C1*_13
REMARK    2  A    between atoms: C3*_12  and  O3*_16
REMARK    3  A    between atoms: C4*_15  and  C5*_18
REMARK    4  A    between atoms: C5*_18  and  O5*_19
REMARK                            x       y       z     vdW  Elec       q    Type
REMARK                         _______ _______ _______ _____ _____    ______ ____
ROOT
ATOM      1  F   UNL     1      15.498   8.830  75.921  0.00  0.00    +0.000 F 
ATOM      2  O   UNL     1      11.211   9.088  72.594  0.00  0.00    +0.000 OA
ATOM      3  O   UNL     1      12.838   8.606  76.858  0.00  0.00    +0.000 OA
ATOM      4  N   UNL     1      13.537   9.391  72.934  0.00  0.00    +0.000 N 
ATOM      5  N   UNL     1      12.068   8.941  74.714  0.00  0.00    +0.000 N 
ATOM      6  C   UNL     1      12.198   9.144  73.318  0.00  0.00    +0.000 C 
ATOM      7  C   UNL     1      14.466   9.399  73.912  0.00  0.00    +0.000 C 
ATOM      8  C   UNL     1      14.443   9.229  75.191  0.00  0.00    +0.000 C 
ATOM      9  C   UNL     1      13.070   8.902  75.693  0.00  0.00    +0.000 C 
ATOM     10  H   UNL     1      11.135   8.721  75.030  0.00  0.00    +0.000 HD
ENDROOT
BRANCH   4  13
ATOM     11  O4* UNL     1      13.578   8.743  70.604  0.00  0.00    +0.000 OA
ATOM     12  C3* UNL     1      14.858  10.475  69.749  0.00  0.00    +0.000 A 
ATOM     13  C1* UNL     1      13.935   9.608  71.646  0.00  0.00    +0.000 A 
ATOM     14  C2* UNL     1      14.706  10.669  71.133  0.00  0.00    +0.000 A 
ATOM     15  C4* UNL     1      14.139   9.265  69.432  0.00  0.00    +0.000 A 
BRANCH  12  16
ATOM     16  O3* UNL     1      14.982  11.499  68.852  0.00  0.00    +0.000 OA
ATOM     17  H3* UNL     1      15.352  12.302  69.262  0.00  0.00    +0.000 HD
ENDBRANCH  12  16
BRANCH  15  18
ATOM     18  C5* UNL     1      13.825   8.763  68.154  0.00  0.00    +0.000 C 
BRANCH  18  19
ATOM     19  O5* UNL     1      13.509   8.284  66.956  0.00  0.00    +0.000 OA
ATOM     20  H5* UNL     1      14.114   7.565  66.703  0.00  0.00    +0.000 HD
ENDBRANCH  18  19
ENDBRANCH  15  18
ENDBRANCH   4  13
TORSDOF 4
ENDMDL
MODEL 8
REMARK VINA RESULT:      -2.7      5.911      9.935
REMARK  Name = 3363_5FluorouracilDeoxyriboside.pdbqt.pdb
REMARK  4 active torsions:
REMARK  status: ('A' for Active; 'I' for Inactive)
REMARK    1  A    between atoms: N_4  and  C1*_13
REMARK    2  A    between atoms: C3*_12  and  O3*_16
REMARK    3  A    between atoms: C4*_15  and  C5*_18
REMARK    4  A    between atoms: C5*_18  and  O5*_19
REMARK                            x       y       z     vdW  Elec       q    Type
REMARK                         _______ _______ _______ _____ _____    ______ ____
ROOT
ATOM      1  F   UNL     1      18.312   9.042  62.411  0.00  0.00    +0.000 F 
ATOM      2  O   UNL     1      18.085   9.872  57.047  0.00  0.00    +0.000 OA
ATOM      3  O   UNL     1      15.968   9.956  61.118  0.00  0.00    +0.000 OA
ATOM      4  N   UNL     1      19.389   9.459  58.984  0.00  0.00    +0.000 N 
ATOM      5  N   UNL     1      17.100   9.982  59.113  0.00  0.00    +0.000 N 
ATOM      6  C   UNL     1      18.213   9.775  58.262  0.00  0.00    +0.000 C 
ATOM      7  C   UNL     1      19.288   9.402  60.328  0.00  0.00    +0.000 C 
ATOM      8  C   UNL     1      18.333   9.573  61.177  0.00  0.00    +0.000 C 
ATOM      9  C   UNL     1      17.024   9.857  60.507  0.00  0.00    +0.000 C 
ATOM     10  H   UNL     1      16.228  10.171  58.640  0.00  0.00    +0.000 HD
ENDROOT
BRANCH   4  13
ATOM     11  O4* UNL     1      20.869   7.987  57.760  0.00  0.00    +0.000 OA
ATOM     12  C3* UNL     1      22.734   9.355  57.620  0.00  0.00    +0.000 A 
ATOM     13  C1* UNL     1      20.598   9.203  58.402  0.00  0.00    +0.000 A 
ATOM     14  C2* UNL     1      21.724  10.044  58.314  0.00  0.00    +0.000 A 
ATOM     15  C4* UNL     1      22.180   8.068  57.275  0.00  0.00    +0.000 A 
BRANCH  12  16
ATOM     16  O3* UNL     1      23.669   9.973  56.838  0.00  0.00    +0.000 OA
ATOM     17  H3* UNL     1      24.535   9.528  56.879  0.00  0.00    +0.000 HD
ENDBRANCH  12  16
BRANCH  15  18
ATOM     18  C5* UNL     1      22.725   7.103  56.406  0.00  0.00    +0.000 C 
BRANCH  18  19
ATOM     19  O5* UNL     1      23.254   6.207  55.580  0.00  0.00    +0.000 OA
ATOM     20  H5* UNL     1      24.049   5.805  55.972  0.00  0.00    +0.000 HD
ENDBRANCH  18  19
ENDBRANCH  15  18
ENDBRANCH   4  13
TORSDOF 4
ENDMDL
MODEL 9
REMARK VINA RESULT:      -2.6     16.264     18.394
REMARK  Name = 3363_5FluorouracilDeoxyriboside.pdbqt.pdb
REMARK  4 active torsions:
REMARK  status: ('A' for Active; 'I' for Inactive)
REMARK    1  A    between atoms: N_4  and  C1*_13
REMARK    2  A    between atoms: C3*_12  and  O3*_16
REMARK    3  A    between atoms: C4*_15  and  C5*_18
REMARK    4  A    between atoms: C5*_18  and  O5*_19
REMARK                            x       y       z     vdW  Elec       q    Type
REMARK                         _______ _______ _______ _____ _____    ______ ____
ROOT
ATOM      1  F   UNL     1      -2.062  11.151  74.421  0.00  0.00    +0.000 F 
ATOM      2  O   UNL     1      -0.069   9.217  69.752  0.00  0.00    +0.000 OA
ATOM      3  O   UNL     1      -3.472  11.345  71.976  0.00  0.00    +0.000 OA
ATOM      4  N   UNL     1       0.282   9.795  72.024  0.00  0.00    +0.000 N 
ATOM      5  N   UNL     1      -1.700  10.353  70.890  0.00  0.00    +0.000 N 
ATOM      6  C   UNL     1      -0.430   9.733  70.802  0.00  0.00    +0.000 C 
ATOM      7  C   UNL     1      -0.323  10.413  73.058  0.00  0.00    +0.000 C 
ATOM      8  C   UNL     1      -1.458  11.000  73.230  0.00  0.00    +0.000 C 
ATOM      9  C   UNL     1      -2.318  10.937  72.004  0.00  0.00    +0.000 C 
ATOM     10  H   UNL     1      -2.263  10.298  70.053  0.00  0.00    +0.000 HD
ENDROOT
BRANCH   4  13
ATOM     11  O4* UNL     1       1.829   8.454  73.313  0.00  0.00    +0.000 OA
ATOM     12  C3* UNL     1       3.715   8.663  71.983  0.00  0.00    +0.000 A 
ATOM     13  C1* UNL     1       1.527   9.263  72.210  0.00  0.00    +0.000 A 
ATOM     14  C2* UNL     1       2.665   9.388  71.392  0.00  0.00    +0.000 A 
ATOM     15  C4* UNL     1       3.172   8.079  73.186  0.00  0.00    +0.000 A 
BRANCH  12  16
ATOM     16  O3* UNL     1       4.710   8.056  71.269  0.00  0.00    +0.000 OA
ATOM     17  H3* UNL     1       4.751   7.098  71.438  0.00  0.00    +0.000 HD
ENDBRANCH  12  16
BRANCH  15  18
ATOM     18  C5* UNL     1       3.767   7.105  74.012  0.00  0.00    +0.000 C 
BRANCH  18  19
ATOM     19  O5* UNL     1       4.313   6.174  74.787  0.00  0.00    +0.000 OA
ATOM     20  H5* UNL     1       5.284   6.230  74.760  0.00  0.00    +0.000 HD
ENDBRANCH  18  19
ENDBRANCH  15  18
ENDBRANCH   4  13
TORSDOF 4
ENDMDL
