MODEL 1
REMARK VINA RESULT:      -2.6      0.000      0.000
REMARK  Name = 3385_5Fluorouracil.pdbqt.pdb
REMARK  0 active torsions:
REMARK  status: ('A' for Active; 'I' for Inactive)
REMARK                            x       y       z     vdW  Elec       q    Type
REMARK                         _______ _______ _______ _____ _____    ______ ____
ROOT
ATOM      1  F   UNL     1      16.606   4.116  69.998  0.00  0.00    +0.000 F 
ATOM      2  O   UNL     1      16.048   4.994  67.363  0.00  0.00    +0.000 OA
ATOM      3  O   UNL     1      14.182   8.873  69.020  0.00  0.00    +0.000 OA
ATOM      4  N   UNL     1      15.056   6.895  68.200  0.00  0.00    +0.000 N 
ATOM      5  N   UNL     1      14.849   7.229  70.488  0.00  0.00    +0.000 N 
ATOM      6  C   UNL     1      15.646   5.629  68.331  0.00  0.00    +0.000 C 
ATOM      7  C   UNL     1      14.651   7.763  69.223  0.00  0.00    +0.000 C 
ATOM      8  C   UNL     1      15.761   5.128  69.742  0.00  0.00    +0.000 C 
ATOM      9  C   UNL     1      15.374   6.001  70.611  0.00  0.00    +0.000 C 
ATOM     10  H   UNL     1      14.968   7.250  67.259  0.00  0.00    +0.000 HD
ATOM     11  H   UNL     1      14.593   7.780  71.297  0.00  0.00    +0.000 HD
ENDROOT
TORSDOF 0
ENDMDL
MODEL 2
REMARK VINA RESULT:      -2.6      3.247      3.910
REMARK  Name = 3385_5Fluorouracil.pdbqt.pdb
REMARK  0 active torsions:
REMARK  status: ('A' for Active; 'I' for Inactive)
REMARK                            x       y       z     vdW  Elec       q    Type
REMARK                         _______ _______ _______ _____ _____    ______ ____
ROOT
ATOM      1  F   UNL     1      17.125   9.573  70.870  0.00  0.00    +0.000 F 
ATOM      2  O   UNL     1      14.601   8.591  71.700  0.00  0.00    +0.000 OA
ATOM      3  O   UNL     1      13.339   8.031  67.299  0.00  0.00    +0.000 OA
ATOM      4  N   UNL     1      13.953   8.380  69.501  0.00  0.00    +0.000 N 
ATOM      5  N   UNL     1      15.353   9.044  67.772  0.00  0.00    +0.000 N 
ATOM      6  C   UNL     1      14.834   8.788  70.513  0.00  0.00    +0.000 C 
ATOM      7  C   UNL     1      14.146   8.452  68.115  0.00  0.00    +0.000 C 
ATOM      8  C   UNL     1      16.084   9.466  70.028  0.00  0.00    +0.000 C 
ATOM      9  C   UNL     1      16.175   9.473  68.741  0.00  0.00    +0.000 C 
ATOM     10  H   UNL     1      13.106   7.923  69.806  0.00  0.00    +0.000 HD
ATOM     11  H   UNL     1      15.590   9.139  66.793  0.00  0.00    +0.000 HD
ENDROOT
TORSDOF 0
ENDMDL
MODEL 3
REMARK VINA RESULT:      -2.6      8.395      9.019
REMARK  Name = 3385_5Fluorouracil.pdbqt.pdb
REMARK  0 active torsions:
REMARK  status: ('A' for Active; 'I' for Inactive)
REMARK                            x       y       z     vdW  Elec       q    Type
REMARK                         _______ _______ _______ _____ _____    ______ ____
ROOT
ATOM      1  F   UNL     1      17.537   9.474  59.155  0.00  0.00    +0.000 F 
ATOM      2  O   UNL     1      15.375  10.836  60.376  0.00  0.00    +0.000 OA
ATOM      3  O   UNL     1      17.507  10.617  64.461  0.00  0.00    +0.000 OA
ATOM      4  N   UNL     1      16.413  10.661  62.423  0.00  0.00    +0.000 N 
ATOM      5  N   UNL     1      18.430   9.534  62.649  0.00  0.00    +0.000 N 
ATOM      6  C   UNL     1      16.290  10.384  61.054  0.00  0.00    +0.000 C 
ATOM      7  C   UNL     1      17.458  10.294  63.283  0.00  0.00    +0.000 C 
ATOM      8  C   UNL     1      17.371   9.508  60.487  0.00  0.00    +0.000 C 
ATOM      9  C   UNL     1      18.290   9.234  61.350  0.00  0.00    +0.000 C 
ATOM     10  H   UNL     1      15.696  11.247  62.825  0.00  0.00    +0.000 HD
ATOM     11  H   UNL     1      19.231   9.222  63.183  0.00  0.00    +0.000 HD
ENDROOT
TORSDOF 0
ENDMDL
MODEL 4
REMARK VINA RESULT:      -2.6     16.673     16.833
REMARK  Name = 3385_5Fluorouracil.pdbqt.pdb
REMARK  0 active torsions:
REMARK  status: ('A' for Active; 'I' for Inactive)
REMARK                            x       y       z     vdW  Elec       q    Type
REMARK                         _______ _______ _______ _____ _____    ______ ____
ROOT
ATOM      1  F   UNL     1      18.538   1.603  53.710  0.00  0.00    +0.000 F 
ATOM      2  O   UNL     1      16.406   2.943  52.413  0.00  0.00    +0.000 OA
ATOM      3  O   UNL     1      13.456  -0.301  53.847  0.00  0.00    +0.000 OA
ATOM      4  N   UNL     1      14.953   1.284  53.073  0.00  0.00    +0.000 N 
ATOM      5  N   UNL     1      15.708  -0.568  54.251  0.00  0.00    +0.000 N 
ATOM      6  C   UNL     1      16.230   1.848  52.933  0.00  0.00    +0.000 C 
ATOM      7  C   UNL     1      14.607   0.097  53.734  0.00  0.00    +0.000 C 
ATOM      8  C   UNL     1      17.353   1.014  53.482  0.00  0.00    +0.000 C 
ATOM      9  C   UNL     1      16.933  -0.050  54.079  0.00  0.00    +0.000 C 
ATOM     10  H   UNL     1      14.185   1.827  52.709  0.00  0.00    +0.000 HD
ATOM     11  H   UNL     1      15.564  -1.435  54.753  0.00  0.00    +0.000 HD
ENDROOT
TORSDOF 0
ENDMDL
MODEL 5
REMARK VINA RESULT:      -2.5     12.661     13.036
REMARK  Name = 3385_5Fluorouracil.pdbqt.pdb
REMARK  0 active torsions:
REMARK  status: ('A' for Active; 'I' for Inactive)
REMARK                            x       y       z     vdW  Elec       q    Type
REMARK                         _______ _______ _______ _____ _____    ______ ____
ROOT
ATOM      1  F   UNL     1      10.117   2.869  58.407  0.00  0.00    +0.000 F 
ATOM      2  O   UNL     1      10.645   5.612  57.933  0.00  0.00    +0.000 OA
ATOM      3  O   UNL     1       6.219   6.632  58.737  0.00  0.00    +0.000 OA
ATOM      4  N   UNL     1       8.421   6.103  58.267  0.00  0.00    +0.000 N 
ATOM      5  N   UNL     1       6.874   4.424  58.685  0.00  0.00    +0.000 N 
ATOM      6  C   UNL     1       9.498   5.219  58.111  0.00  0.00    +0.000 C 
ATOM      7  C   UNL     1       7.090   5.790  58.575  0.00  0.00    +0.000 C 
ATOM      8  C   UNL     1       9.137   3.763  58.195  0.00  0.00    +0.000 C 
ATOM      9  C   UNL     1       7.895   3.577  58.493  0.00  0.00    +0.000 C 
ATOM     10  H   UNL     1       8.642   7.087  58.212  0.00  0.00    +0.000 HD
ATOM     11  H   UNL     1       5.944   4.093  58.910  0.00  0.00    +0.000 HD
ENDROOT
TORSDOF 0
ENDMDL
MODEL 6
REMARK VINA RESULT:      -2.4     12.062     12.880
REMARK  Name = 3385_5Fluorouracil.pdbqt.pdb
REMARK  0 active torsions:
REMARK  status: ('A' for Active; 'I' for Inactive)
REMARK                            x       y       z     vdW  Elec       q    Type
REMARK                         _______ _______ _______ _____ _____    ______ ____
ROOT
ATOM      1  F   UNL     1       3.772   7.790  70.152  0.00  0.00    +0.000 F 
ATOM      2  O   UNL     1       5.646   9.435  71.496  0.00  0.00    +0.000 OA
ATOM      3  O   UNL     1       2.459  10.546  74.640  0.00  0.00    +0.000 OA
ATOM      4  N   UNL     1       4.031  10.039  73.021  0.00  0.00    +0.000 N 
ATOM      5  N   UNL     1       1.850   9.271  72.821  0.00  0.00    +0.000 N 
ATOM      6  C   UNL     1       4.473   9.410  71.848  0.00  0.00    +0.000 C 
ATOM      7  C   UNL     1       2.748  10.001  73.585  0.00  0.00    +0.000 C 
ATOM      8  C   UNL     1       3.402   8.695  71.073  0.00  0.00    +0.000 C 
ATOM      9  C   UNL     1       2.262   8.706  71.678  0.00  0.00    +0.000 C 
ATOM     10  H   UNL     1       4.734  10.527  73.556  0.00  0.00    +0.000 HD
ATOM     11  H   UNL     1       0.895   9.178  73.145  0.00  0.00    +0.000 HD
ENDROOT
TORSDOF 0
ENDMDL
MODEL 7
REMARK VINA RESULT:      -2.3     10.407     11.060
REMARK  Name = 3385_5Fluorouracil.pdbqt.pdb
REMARK  0 active torsions:
REMARK  status: ('A' for Active; 'I' for Inactive)
REMARK                            x       y       z     vdW  Elec       q    Type
REMARK                         _______ _______ _______ _____ _____    ______ ____
ROOT
ATOM      1  F   UNL     1      21.070   9.923  58.764  0.00  0.00    +0.000 F 
ATOM      2  O   UNL     1      18.789  10.491  57.182  0.00  0.00    +0.000 OA
ATOM      3  O   UNL     1      16.035   9.514  60.751  0.00  0.00    +0.000 OA
ATOM      4  N   UNL     1      17.420   9.935  58.947  0.00  0.00    +0.000 N 
ATOM      5  N   UNL     1      18.302   9.159  60.948  0.00  0.00    +0.000 N 
ATOM      6  C   UNL     1      18.666  10.034  58.312  0.00  0.00    +0.000 C 
ATOM      7  C   UNL     1      17.155   9.530  60.262  0.00  0.00    +0.000 C 
ATOM      8  C   UNL     1      19.832   9.553  59.130  0.00  0.00    +0.000 C 
ATOM      9  C   UNL     1      19.489   9.213  60.327  0.00  0.00    +0.000 C 
ATOM     10  H   UNL     1      16.623  10.252  58.414  0.00  0.00    +0.000 HD
ATOM     11  H   UNL     1      18.219   8.855  61.910  0.00  0.00    +0.000 HD
ENDROOT
TORSDOF 0
ENDMDL
MODEL 8
REMARK VINA RESULT:      -2.3     12.841     13.621
REMARK  Name = 3385_5Fluorouracil.pdbqt.pdb
REMARK  0 active torsions:
REMARK  status: ('A' for Active; 'I' for Inactive)
REMARK                            x       y       z     vdW  Elec       q    Type
REMARK                         _______ _______ _______ _____ _____    ______ ____
ROOT
ATOM      1  F   UNL     1       4.753   8.385  70.922  0.00  0.00    +0.000 F 
ATOM      2  O   UNL     1       3.904   7.421  73.447  0.00  0.00    +0.000 OA
ATOM      3  O   UNL     1      -0.069   9.724  73.022  0.00  0.00    +0.000 OA
ATOM      4  N   UNL     1       1.954   8.628  73.259  0.00  0.00    +0.000 N 
ATOM      5  N   UNL     1       1.571  10.007  71.430  0.00  0.00    +0.000 N 
ATOM      6  C   UNL     1       3.237   8.249  72.839  0.00  0.00    +0.000 C 
ATOM      7  C   UNL     1       1.053   9.481  72.605  0.00  0.00    +0.000 C 
ATOM      8  C   UNL     1       3.717   8.923  71.585  0.00  0.00    +0.000 C 
ATOM      9  C   UNL     1       2.815   9.677  71.052  0.00  0.00    +0.000 C 
ATOM     10  H   UNL     1       1.613   8.188  74.100  0.00  0.00    +0.000 HD
ATOM     11  H   UNL     1       0.997  10.631  70.879  0.00  0.00    +0.000 HD
ENDROOT
TORSDOF 0
ENDMDL
MODEL 9
REMARK VINA RESULT:      -2.3     12.536     13.439
REMARK  Name = 3385_5Fluorouracil.pdbqt.pdb
REMARK  0 active torsions:
REMARK  status: ('A' for Active; 'I' for Inactive)
REMARK                            x       y       z     vdW  Elec       q    Type
REMARK                         _______ _______ _______ _____ _____    ______ ____
ROOT
ATOM      1  F   UNL     1       0.363   9.538  71.801  0.00  0.00    +0.000 F 
ATOM      2  O   UNL     1       1.920   8.394  73.872  0.00  0.00    +0.000 OA
ATOM      3  O   UNL     1       5.789   9.597  71.667  0.00  0.00    +0.000 OA
ATOM      4  N   UNL     1       3.845   8.936  72.732  0.00  0.00    +0.000 N 
ATOM      5  N   UNL     1       3.755   9.940  70.641  0.00  0.00    +0.000 N 
ATOM      6  C   UNL     1       2.453   8.822  72.855  0.00  0.00    +0.000 C 
ATOM      7  C   UNL     1       4.571   9.499  71.673  0.00  0.00    +0.000 C 
ATOM      8  C   UNL     1       1.673   9.280  71.655  0.00  0.00    +0.000 C 
ATOM      9  C   UNL     1       2.427   9.792  70.741  0.00  0.00    +0.000 C 
ATOM     10  H   UNL     1       4.388   8.632  73.526  0.00  0.00    +0.000 HD
ATOM     11  H   UNL     1       4.183  10.369  69.830  0.00  0.00    +0.000 HD
ENDROOT
TORSDOF 0
ENDMDL
