MODEL 1
REMARK VINA RESULT:      -5.3      0.000      0.000
REMARK  Name = 342374_SipholenolA.pdbqt.pdb
REMARK  5 active torsions:
REMARK  status: ('A' for Active; 'I' for Inactive)
REMARK    1  A    between atoms: C_3  and  C_20
REMARK    2  A    between atoms: C_4  and  O_16
REMARK    3  A    between atoms: C_13  and  O_18
REMARK    4  A    between atoms: C_21  and  C_25
REMARK    5  A    between atoms: C_26  and  O_36
REMARK                            x       y       z     vdW  Elec       q    Type
REMARK                         _______ _______ _______ _____ _____    ______ ____
ROOT
ATOM      1  O   UNL     1       5.300  10.200  76.336  0.00  0.00    +0.000 OA
ATOM      2  C   UNL     1       6.248   7.846  76.954  0.00  0.00    +0.000 C 
ATOM      3  C   UNL     1       6.127   6.349  76.657  0.00  0.00    +0.000 C 
ATOM      4  C   UNL     1       4.754   5.717  76.509  0.00  0.00    +0.000 C 
ATOM      5  C   UNL     1       5.162   8.808  76.298  0.00  0.00    +0.000 C 
ATOM      6  C   UNL     1       7.492   8.382  76.379  0.00  0.00    +0.000 C 
ATOM      7  C   UNL     1       3.787   6.758  76.223  0.00  0.00    +0.000 C 
ATOM      8  C   UNL     1       3.890   8.240  76.091  0.00  0.00    +0.000 C 
ATOM      9  C   UNL     1       6.218   8.073  78.491  0.00  0.00    +0.000 C 
ATOM     10  C   UNL     1       8.027   9.583  75.638  0.00  0.00    +0.000 C 
ATOM     11  C   UNL     1       5.886  10.890  75.184  0.00  0.00    +0.000 C 
ATOM     12  C   UNL     1       4.759   4.639  75.414  0.00  0.00    +0.000 C 
ATOM     13  C   UNL     1       7.438  10.763  75.137  0.00  0.00    +0.000 C 
ATOM     14  C   UNL     1       5.308  10.367  73.836  0.00  0.00    +0.000 C 
ATOM     15  C   UNL     1       5.553  12.403  75.339  0.00  0.00    +0.000 C 
ENDROOT
BRANCH   4  16
ATOM     16  O   UNL     1       4.405   5.051  77.696  0.00  0.00    +0.000 OA
ATOM     17  H   UNL     1       5.242   4.606  77.919  0.00  0.00    +0.000 HD
ENDBRANCH   4  16
BRANCH  13  18
ATOM     18  O   UNL     1       8.260  11.767  74.636  0.00  0.00    +0.000 OA
ATOM     19  H   UNL     1       7.737  12.478  74.210  0.00  0.00    +0.000 HD
ENDBRANCH  13  18
BRANCH   3  20
ATOM     20  C   UNL     1       7.292   5.507  76.753  0.00  0.00    +0.000 C 
ATOM     21  C   UNL     1       8.530   4.609  76.838  0.00  0.00    +0.000 C 
BRANCH  21  25
ATOM     22  C   UNL     1      12.031   4.561  76.026  0.00  0.00    +0.000 C 
ATOM     23  C   UNL     1      11.095   4.316  77.242  0.00  0.00    +0.000 C 
ATOM     24  C   UNL     1      12.464   3.515  75.040  0.00  0.00    +0.000 C 
ATOM     25  C   UNL     1       9.688   3.765  76.910  0.00  0.00    +0.000 C 
ATOM     26  C   UNL     1      13.676   3.938  74.218  0.00  0.00    +0.000 C 
ATOM     27  C   UNL     1      12.933   5.652  75.851  0.00  0.00    +0.000 C 
ATOM     28  C   UNL     1      13.912   5.265  74.776  0.00  0.00    +0.000 C 
ATOM     29  C   UNL     1      11.699   2.337  74.976  0.00  0.00    +0.000 C 
ATOM     30  C   UNL     1       9.538   2.368  76.499  0.00  0.00    +0.000 C 
ATOM     31  C   UNL     1      10.925   5.687  77.998  0.00  0.00    +0.000 C 
ATOM     32  C   UNL     1      11.828   3.351  78.235  0.00  0.00    +0.000 C 
ATOM     33  C   UNL     1      10.429   1.923  75.671  0.00  0.00    +0.000 C 
ATOM     34  C   UNL     1      13.405   3.899  72.721  0.00  0.00    +0.000 C 
ATOM     35  C   UNL     1       8.248   1.599  76.596  0.00  0.00    +0.000 C 
BRANCH  26  36
ATOM     36  O   UNL     1      14.760   3.083  74.470  0.00  0.00    +0.000 OA
ATOM     37  H   UNL     1      14.295   2.259  74.700  0.00  0.00    +0.000 HD
ENDBRANCH  26  36
ENDBRANCH  21  25
ENDBRANCH   3  20
TORSDOF 5
ENDMDL
MODEL 2
REMARK VINA RESULT:      -5.3     15.146     17.958
REMARK  Name = 342374_SipholenolA.pdbqt.pdb
REMARK  5 active torsions:
REMARK  status: ('A' for Active; 'I' for Inactive)
REMARK    1  A    between atoms: C_3  and  C_20
REMARK    2  A    between atoms: C_4  and  O_16
REMARK    3  A    between atoms: C_13  and  O_18
REMARK    4  A    between atoms: C_21  and  C_25
REMARK    5  A    between atoms: C_26  and  O_36
REMARK                            x       y       z     vdW  Elec       q    Type
REMARK                         _______ _______ _______ _____ _____    ______ ____
ROOT
ATOM      1  O   UNL     1       4.792   5.347  59.946  0.00  0.00    +0.000 OA
ATOM      2  C   UNL     1       6.081   7.507  59.242  0.00  0.00    +0.000 C 
ATOM      3  C   UNL     1       5.927   8.872  58.566  0.00  0.00    +0.000 C 
ATOM      4  C   UNL     1       5.095   9.000  57.301  0.00  0.00    +0.000 C 
ATOM      5  C   UNL     1       4.829   6.525  59.190  0.00  0.00    +0.000 C 
ATOM      6  C   UNL     1       6.258   7.673  60.693  0.00  0.00    +0.000 C 
ATOM      7  C   UNL     1       4.205   7.859  57.208  0.00  0.00    +0.000 C 
ATOM      8  C   UNL     1       4.000   6.652  58.059  0.00  0.00    +0.000 C 
ATOM      9  C   UNL     1       7.297   6.760  58.628  0.00  0.00    +0.000 C 
ATOM     10  C   UNL     1       5.828   7.073  62.009  0.00  0.00    +0.000 C 
ATOM     11  C   UNL     1       4.109   5.354  61.242  0.00  0.00    +0.000 C 
ATOM     12  C   UNL     1       4.316  10.323  57.286  0.00  0.00    +0.000 C 
ATOM     13  C   UNL     1       4.961   6.018  62.365  0.00  0.00    +0.000 C 
ATOM     14  C   UNL     1       2.734   6.083  61.173  0.00  0.00    +0.000 C 
ATOM     15  C   UNL     1       3.889   3.868  61.651  0.00  0.00    +0.000 C 
ENDROOT
BRANCH   4  16
ATOM     16  O   UNL     1       5.939   9.041  56.178  0.00  0.00    +0.000 OA
ATOM     17  H   UNL     1       5.551   9.780  55.676  0.00  0.00    +0.000 HD
ENDBRANCH   4  16
BRANCH  13  18
ATOM     18  O   UNL     1       4.911   5.604  63.692  0.00  0.00    +0.000 OA
ATOM     19  H   UNL     1       5.686   5.928  64.197  0.00  0.00    +0.000 HD
ENDBRANCH  13  18
BRANCH   3  20
ATOM     20  C   UNL     1       6.753   9.974  58.989  0.00  0.00    +0.000 C 
ATOM     21  C   UNL     1       7.625  11.143  59.455  0.00  0.00    +0.000 C 
BRANCH  21  25
ATOM     22  C   UNL     1      10.766  12.763  58.798  0.00  0.00    +0.000 C 
ATOM     23  C   UNL     1       9.258  13.113  58.920  0.00  0.00    +0.000 C 
ATOM     24  C   UNL     1      11.752  12.771  59.930  0.00  0.00    +0.000 C 
ATOM     25  C   UNL     1       8.439  12.239  59.899  0.00  0.00    +0.000 C 
ATOM     26  C   UNL     1      13.201  12.789  59.456  0.00  0.00    +0.000 C 
ATOM     27  C   UNL     1      11.549  12.767  57.606  0.00  0.00    +0.000 C 
ATOM     28  C   UNL     1      12.997  12.790  58.012  0.00  0.00    +0.000 C 
ATOM     29  C   UNL     1      11.232  12.722  61.236  0.00  0.00    +0.000 C 
ATOM     30  C   UNL     1       8.608  12.419  61.342  0.00  0.00    +0.000 C 
ATOM     31  C   UNL     1       8.620  12.982  57.486  0.00  0.00    +0.000 C 
ATOM     32  C   UNL     1       9.137  14.623  59.321  0.00  0.00    +0.000 C 
ATOM     33  C   UNL     1       9.826  12.578  61.753  0.00  0.00    +0.000 C 
ATOM     34  C   UNL     1      14.006  11.617  60.001  0.00  0.00    +0.000 C 
ATOM     35  C   UNL     1       7.589  11.995  62.366  0.00  0.00    +0.000 C 
BRANCH  26  36
ATOM     36  O   UNL     1      13.839  13.966  59.879  0.00  0.00    +0.000 OA
ATOM     37  H   UNL     1      13.587  13.985  60.819  0.00  0.00    +0.000 HD
ENDBRANCH  26  36
ENDBRANCH  21  25
ENDBRANCH   3  20
TORSDOF 5
ENDMDL
MODEL 3
REMARK VINA RESULT:      -5.1      1.961      4.382
REMARK  Name = 342374_SipholenolA.pdbqt.pdb
REMARK  5 active torsions:
REMARK  status: ('A' for Active; 'I' for Inactive)
REMARK    1  A    between atoms: C_3  and  C_20
REMARK    2  A    between atoms: C_4  and  O_16
REMARK    3  A    between atoms: C_13  and  O_18
REMARK    4  A    between atoms: C_21  and  C_25
REMARK    5  A    between atoms: C_26  and  O_36
REMARK                            x       y       z     vdW  Elec       q    Type
REMARK                         _______ _______ _______ _____ _____    ______ ____
ROOT
ATOM      1  O   UNL     1       1.471   6.729  76.415  0.00  0.00    +0.000 OA
ATOM      2  C   UNL     1       4.064   6.521  76.184  0.00  0.00    +0.000 C 
ATOM      3  C   UNL     1       5.393   7.209  76.510  0.00  0.00    +0.000 C 
ATOM      4  C   UNL     1       5.533   8.710  76.319  0.00  0.00    +0.000 C 
ATOM      5  C   UNL     1       2.730   7.337  76.481  0.00  0.00    +0.000 C 
ATOM      6  C   UNL     1       3.878   5.340  77.042  0.00  0.00    +0.000 C 
ATOM      7  C   UNL     1       4.211   9.304  76.287  0.00  0.00    +0.000 C 
ATOM      8  C   UNL     1       2.834   8.737  76.370  0.00  0.00    +0.000 C 
ATOM      9  C   UNL     1       4.047   6.111  74.686  0.00  0.00    +0.000 C 
ATOM     10  C   UNL     1       2.820   4.618  77.841  0.00  0.00    +0.000 C 
ATOM     11  C   UNL     1       0.855   6.231  77.647  0.00  0.00    +0.000 C 
ATOM     12  C   UNL     1       6.400   9.328  77.426  0.00  0.00    +0.000 C 
ATOM     13  C   UNL     1       1.458   4.871  78.110  0.00  0.00    +0.000 C 
ATOM     14  C   UNL     1       0.983   7.251  78.817  0.00  0.00    +0.000 C 
ATOM     15  C   UNL     1      -0.651   5.983  77.336  0.00  0.00    +0.000 C 
ENDROOT
BRANCH   4  16
ATOM     16  O   UNL     1       6.206   8.976  75.114  0.00  0.00    +0.000 OA
ATOM     17  H   UNL     1       7.100   9.188  75.438  0.00  0.00    +0.000 HD
ENDBRANCH   4  16
BRANCH  13  18
ATOM     18  O   UNL     1       0.708   3.899  78.763  0.00  0.00    +0.000 OA
ATOM     19  H   UNL     1       0.160   3.386  78.132  0.00  0.00    +0.000 HD
ENDBRANCH  13  18
BRANCH   3  20
ATOM     20  C   UNL     1       6.565   6.412  76.767  0.00  0.00    +0.000 C 
ATOM     21  C   UNL     1       7.818   5.572  77.028  0.00  0.00    +0.000 C 
BRANCH  21  25
ATOM     22  C   UNL     1      11.381   5.634  76.557  0.00  0.00    +0.000 C 
ATOM     23  C   UNL     1      10.342   5.421  77.691  0.00  0.00    +0.000 C 
ATOM     24  C   UNL     1      11.950   4.551  75.687  0.00  0.00    +0.000 C 
ATOM     25  C   UNL     1       8.996   4.788  77.264  0.00  0.00    +0.000 C 
ATOM     26  C   UNL     1      13.218   4.978  74.958  0.00  0.00    +0.000 C 
ATOM     27  C   UNL     1      12.252   6.753  76.397  0.00  0.00    +0.000 C 
ATOM     28  C   UNL     1      13.346   6.345  75.448  0.00  0.00    +0.000 C 
ATOM     29  C   UNL     1      11.241   3.337  75.627  0.00  0.00    +0.000 C 
ATOM     30  C   UNL     1       8.943   3.363  76.933  0.00  0.00    +0.000 C 
ATOM     31  C   UNL     1      10.045   6.827  78.337  0.00  0.00    +0.000 C 
ATOM     32  C   UNL     1      11.011   4.553  78.811  0.00  0.00    +0.000 C 
ATOM     33  C   UNL     1       9.927   2.909  76.223  0.00  0.00    +0.000 C 
ATOM     34  C   UNL     1      13.097   4.835  73.447  0.00  0.00    +0.000 C 
ATOM     35  C   UNL     1       7.680   2.543  76.956  0.00  0.00    +0.000 C 
BRANCH  26  36
ATOM     36  O   UNL     1      14.305   4.190  75.366  0.00  0.00    +0.000 OA
ATOM     37  H   UNL     1      15.044   4.810  75.233  0.00  0.00    +0.000 HD
ENDBRANCH  26  36
ENDBRANCH  21  25
ENDBRANCH   3  20
TORSDOF 5
ENDMDL
MODEL 4
REMARK VINA RESULT:      -4.7      4.551      9.418
REMARK  Name = 342374_SipholenolA.pdbqt.pdb
REMARK  5 active torsions:
REMARK  status: ('A' for Active; 'I' for Inactive)
REMARK    1  A    between atoms: C_3  and  C_20
REMARK    2  A    between atoms: C_4  and  O_16
REMARK    3  A    between atoms: C_13  and  O_18
REMARK    4  A    between atoms: C_21  and  C_25
REMARK    5  A    between atoms: C_26  and  O_36
REMARK                            x       y       z     vdW  Elec       q    Type
REMARK                         _______ _______ _______ _____ _____    ______ ____
ROOT
ATOM      1  O   UNL     1      15.348   1.506  72.222  0.00  0.00    +0.000 OA
ATOM      2  C   UNL     1      13.600   1.884  74.126  0.00  0.00    +0.000 C 
ATOM      3  C   UNL     1      12.812   2.956  74.884  0.00  0.00    +0.000 C 
ATOM      4  C   UNL     1      13.502   4.240  75.312  0.00  0.00    +0.000 C 
ATOM      5  C   UNL     1      14.718   2.386  73.110  0.00  0.00    +0.000 C 
ATOM      6  C   UNL     1      12.708   1.135  73.227  0.00  0.00    +0.000 C 
ATOM      7  C   UNL     1      14.698   4.418  74.512  0.00  0.00    +0.000 C 
ATOM      8  C   UNL     1      15.342   3.605  73.441  0.00  0.00    +0.000 C 
ATOM      9  C   UNL     1      14.278   0.924  75.142  0.00  0.00    +0.000 C 
ATOM     10  C   UNL     1      12.656   0.548  71.838  0.00  0.00    +0.000 C 
ATOM     11  C   UNL     1      14.847   1.399  70.849  0.00  0.00    +0.000 C 
ATOM     12  C   UNL     1      12.556   5.443  75.183  0.00  0.00    +0.000 C 
ATOM     13  C   UNL     1      13.555   0.535  70.750  0.00  0.00    +0.000 C 
ATOM     14  C   UNL     1      14.555   2.795  70.225  0.00  0.00    +0.000 C 
ATOM     15  C   UNL     1      15.947   0.678  70.016  0.00  0.00    +0.000 C 
ENDROOT
BRANCH   4  16
ATOM     16  O   UNL     1      13.843   4.167  76.673  0.00  0.00    +0.000 OA
ATOM     17  H   UNL     1      13.597   3.248  76.883  0.00  0.00    +0.000 HD
ENDBRANCH   4  16
BRANCH  13  18
ATOM     18  O   UNL     1      13.261  -0.254  69.642  0.00  0.00    +0.000 OA
ATOM     19  H   UNL     1      13.482  -1.196  69.805  0.00  0.00    +0.000 HD
ENDBRANCH  13  18
BRANCH   3  20
ATOM     20  C   UNL     1      11.500   2.650  75.392  0.00  0.00    +0.000 C 
ATOM     21  C   UNL     1      10.102   2.313  75.921  0.00  0.00    +0.000 C 
BRANCH  21  25
ATOM     22  C   UNL     1       8.020   2.659  78.830  0.00  0.00    +0.000 C 
ATOM     23  C   UNL     1       7.982   2.958  77.306  0.00  0.00    +0.000 C 
ATOM     24  C   UNL     1       7.570   1.380  79.475  0.00  0.00    +0.000 C 
ATOM     25  C   UNL     1       8.792   1.991  76.409  0.00  0.00    +0.000 C 
ATOM     26  C   UNL     1       7.341   1.519  80.975  0.00  0.00    +0.000 C 
ATOM     27  C   UNL     1       8.093   3.617  79.885  0.00  0.00    +0.000 C 
ATOM     28  C   UNL     1       7.679   2.926  81.156  0.00  0.00    +0.000 C 
ATOM     29  C   UNL     1       7.461   0.248  78.648  0.00  0.00    +0.000 C 
ATOM     30  C   UNL     1       8.289   0.639  76.167  0.00  0.00    +0.000 C 
ATOM     31  C   UNL     1       8.537   4.416  77.091  0.00  0.00    +0.000 C 
ATOM     32  C   UNL     1       6.483   2.983  76.850  0.00  0.00    +0.000 C 
ATOM     33  C   UNL     1       7.792   0.027  77.196  0.00  0.00    +0.000 C 
ATOM     34  C   UNL     1       8.178   0.538  81.785  0.00  0.00    +0.000 C 
ATOM     35  C   UNL     1       8.701  -0.214  74.997  0.00  0.00    +0.000 C 
BRANCH  26  36
ATOM     36  O   UNL     1       5.995   1.277  81.289  0.00  0.00    +0.000 OA
ATOM     37  H   UNL     1       5.869   1.881  82.041  0.00  0.00    +0.000 HD
ENDBRANCH  26  36
ENDBRANCH  21  25
ENDBRANCH   3  20
TORSDOF 5
ENDMDL
MODEL 5
REMARK VINA RESULT:      -4.6     19.929     25.097
REMARK  Name = 342374_SipholenolA.pdbqt.pdb
REMARK  5 active torsions:
REMARK  status: ('A' for Active; 'I' for Inactive)
REMARK    1  A    between atoms: C_3  and  C_20
REMARK    2  A    between atoms: C_4  and  O_16
REMARK    3  A    between atoms: C_13  and  O_18
REMARK    4  A    between atoms: C_21  and  C_25
REMARK    5  A    between atoms: C_26  and  O_36
REMARK                            x       y       z     vdW  Elec       q    Type
REMARK                         _______ _______ _______ _____ _____    ______ ____
ROOT
ATOM      1  O   UNL     1      19.187   1.822  49.606  0.00  0.00    +0.000 OA
ATOM      2  C   UNL     1      18.258   1.268  51.984  0.00  0.00    +0.000 C 
ATOM      3  C   UNL     1      17.000   0.855  52.752  0.00  0.00    +0.000 C 
ATOM      4  C   UNL     1      15.666   1.501  52.421  0.00  0.00    +0.000 C 
ATOM      5  C   UNL     1      18.082   1.634  50.444  0.00  0.00    +0.000 C 
ATOM      6  C   UNL     1      19.202   0.142  51.907  0.00  0.00    +0.000 C 
ATOM      7  C   UNL     1      15.743   2.084  51.096  0.00  0.00    +0.000 C 
ATOM      8  C   UNL     1      16.835   2.182  50.085  0.00  0.00    +0.000 C 
ATOM      9  C   UNL     1      18.919   2.485  52.688  0.00  0.00    +0.000 C 
ATOM     10  C   UNL     1      20.146  -0.542  50.949  0.00  0.00    +0.000 C 
ATOM     11  C   UNL     1      19.654   0.706  48.780  0.00  0.00    +0.000 C 
ATOM     12  C   UNL     1      14.520   0.482  52.520  0.00  0.00    +0.000 C 
ATOM     13  C   UNL     1      20.480  -0.336  49.593  0.00  0.00    +0.000 C 
ATOM     14  C   UNL     1      18.476  -0.037  48.084  0.00  0.00    +0.000 C 
ATOM     15  C   UNL     1      20.604   1.302  47.700  0.00  0.00    +0.000 C 
ENDROOT
BRANCH   4  16
ATOM     16  O   UNL     1      15.371   2.498  53.366  0.00  0.00    +0.000 OA
ATOM     17  H   UNL     1      16.018   3.185  53.126  0.00  0.00    +0.000 HD
ENDBRANCH   4  16
BRANCH  13  18
ATOM     18  O   UNL     1      21.535  -1.056  49.041  0.00  0.00    +0.000 OA
ATOM     19  H   UNL     1      21.776  -0.714  48.155  0.00  0.00    +0.000 HD
ENDBRANCH  13  18
BRANCH   3  20
ATOM     20  C   UNL     1      17.122   0.039  53.934  0.00  0.00    +0.000 C 
ATOM     21  C   UNL     1      17.236  -0.832  55.187  0.00  0.00    +0.000 C 
BRANCH  21  25
ATOM     22  C   UNL     1      15.610  -1.446  58.333  0.00  0.00    +0.000 C 
ATOM     23  C   UNL     1      16.088  -2.225  57.078  0.00  0.00    +0.000 C 
ATOM     24  C   UNL     1      16.433  -1.190  59.562  0.00  0.00    +0.000 C 
ATOM     25  C   UNL     1      17.334  -1.651  56.362  0.00  0.00    +0.000 C 
ATOM     26  C   UNL     1      15.595  -0.772  60.765  0.00  0.00    +0.000 C 
ATOM     27  C   UNL     1      14.259  -1.193  58.717  0.00  0.00    +0.000 C 
ATOM     28  C   UNL     1      14.264  -0.800  60.169  0.00  0.00    +0.000 C 
ATOM     29  C   UNL     1      17.828  -1.325  59.440  0.00  0.00    +0.000 C 
ATOM     30  C   UNL     1      18.654  -1.806  56.975  0.00  0.00    +0.000 C 
ATOM     31  C   UNL     1      14.895  -2.254  56.050  0.00  0.00    +0.000 C 
ATOM     32  C   UNL     1      16.349  -3.712  57.496  0.00  0.00    +0.000 C 
ATOM     33  C   UNL     1      18.711  -1.611  58.254  0.00  0.00    +0.000 C 
ATOM     34  C   UNL     1      16.027   0.572  61.335  0.00  0.00    +0.000 C 
ATOM     35  C   UNL     1      19.949  -1.723  56.211  0.00  0.00    +0.000 C 
BRANCH  26  36
ATOM     36  O   UNL     1      15.710  -1.719  61.794  0.00  0.00    +0.000 OA
ATOM     37  H   UNL     1      15.210  -2.464  61.415  0.00  0.00    +0.000 HD
ENDBRANCH  26  36
ENDBRANCH  21  25
ENDBRANCH   3  20
TORSDOF 5
ENDMDL
MODEL 6
REMARK VINA RESULT:      -4.6      8.739     12.833
REMARK  Name = 342374_SipholenolA.pdbqt.pdb
REMARK  5 active torsions:
REMARK  status: ('A' for Active; 'I' for Inactive)
REMARK    1  A    between atoms: C_3  and  C_20
REMARK    2  A    between atoms: C_4  and  O_16
REMARK    3  A    between atoms: C_13  and  O_18
REMARK    4  A    between atoms: C_21  and  C_25
REMARK    5  A    between atoms: C_26  and  O_36
REMARK                            x       y       z     vdW  Elec       q    Type
REMARK                         _______ _______ _______ _____ _____    ______ ____
ROOT
ATOM      1  O   UNL     1      -2.749   3.867  66.370  0.00  0.00    +0.000 OA
ATOM      2  C   UNL     1      -0.926   5.132  67.747  0.00  0.00    +0.000 C 
ATOM      3  C   UNL     1       0.386   5.913  67.635  0.00  0.00    +0.000 C 
ATOM      4  C   UNL     1       1.482   5.420  66.706  0.00  0.00    +0.000 C 
ATOM      5  C   UNL     1      -1.468   4.427  66.426  0.00  0.00    +0.000 C 
ATOM      6  C   UNL     1      -2.037   6.043  68.064  0.00  0.00    +0.000 C 
ATOM      7  C   UNL     1       0.899   4.521  65.730  0.00  0.00    +0.000 C 
ATOM      8  C   UNL     1      -0.483   4.006  65.511  0.00  0.00    +0.000 C 
ATOM      9  C   UNL     1      -0.787   4.041  68.845  0.00  0.00    +0.000 C 
ATOM     10  C   UNL     1      -3.479   6.312  67.710  0.00  0.00    +0.000 C 
ATOM     11  C   UNL     1      -3.847   4.656  65.806  0.00  0.00    +0.000 C 
ATOM     12  C   UNL     1       2.200   6.596  66.028  0.00  0.00    +0.000 C 
ATOM     13  C   UNL     1      -4.387   5.726  66.802  0.00  0.00    +0.000 C 
ATOM     14  C   UNL     1      -3.433   5.375  64.489  0.00  0.00    +0.000 C 
ATOM     15  C   UNL     1      -5.017   3.670  65.514  0.00  0.00    +0.000 C 
ENDROOT
BRANCH   4  16
ATOM     16  O   UNL     1       2.469   4.747  67.447  0.00  0.00    +0.000 OA
ATOM     17  H   UNL     1       2.842   5.476  67.974  0.00  0.00    +0.000 HD
ENDBRANCH   4  16
BRANCH  13  18
ATOM     18  O   UNL     1      -5.723   6.114  66.840  0.00  0.00    +0.000 OA
ATOM     19  H   UNL     1      -5.973   6.612  66.033  0.00  0.00    +0.000 HD
ENDBRANCH  13  18
BRANCH   3  20
ATOM     20  C   UNL     1       0.670   6.967  68.574  0.00  0.00    +0.000 C 
ATOM     21  C   UNL     1       0.958   8.085  69.581  0.00  0.00    +0.000 C 
BRANCH  21  25
ATOM     22  C   UNL     1       2.362   8.641  72.843  0.00  0.00    +0.000 C 
ATOM     23  C   UNL     1       2.505   9.167  71.388  0.00  0.00    +0.000 C 
ATOM     24  C   UNL     1       1.427   9.195  73.878  0.00  0.00    +0.000 C 
ATOM     25  C   UNL     1       1.219   9.131  70.528  0.00  0.00    +0.000 C 
ATOM     26  C   UNL     1       1.786   8.766  75.295  0.00  0.00    +0.000 C 
ATOM     27  C   UNL     1       3.313   7.858  73.563  0.00  0.00    +0.000 C 
ATOM     28  C   UNL     1       2.962   7.947  75.023  0.00  0.00    +0.000 C 
ATOM     29  C   UNL     1       0.352   9.978  73.418  0.00  0.00    +0.000 C 
ATOM     30  C   UNL     1       0.152  10.098  70.785  0.00  0.00    +0.000 C 
ATOM     31  C   UNL     1       3.606   8.298  70.672  0.00  0.00    +0.000 C 
ATOM     32  C   UNL     1       3.066  10.629  71.450  0.00  0.00    +0.000 C 
ATOM     33  C   UNL     1      -0.118  10.327  72.032  0.00  0.00    +0.000 C 
ATOM     34  C   UNL     1       0.639   8.049  75.994  0.00  0.00    +0.000 C 
ATOM     35  C   UNL     1      -0.902  10.473  69.777  0.00  0.00    +0.000 C 
BRANCH  26  36
ATOM     36  O   UNL     1       2.117   9.885  76.075  0.00  0.00    +0.000 OA
ATOM     37  H   UNL     1       2.874   9.540  76.581  0.00  0.00    +0.000 HD
ENDBRANCH  26  36
ENDBRANCH  21  25
ENDBRANCH   3  20
TORSDOF 5
ENDMDL
MODEL 7
REMARK VINA RESULT:      -4.5     16.389     19.897
REMARK  Name = 342374_SipholenolA.pdbqt.pdb
REMARK  5 active torsions:
REMARK  status: ('A' for Active; 'I' for Inactive)
REMARK    1  A    between atoms: C_3  and  C_20
REMARK    2  A    between atoms: C_4  and  O_16
REMARK    3  A    between atoms: C_13  and  O_18
REMARK    4  A    between atoms: C_21  and  C_25
REMARK    5  A    between atoms: C_26  and  O_36
REMARK                            x       y       z     vdW  Elec       q    Type
REMARK                         _______ _______ _______ _____ _____    ______ ____
ROOT
ATOM      1  O   UNL     1      16.229  14.148  59.475  0.00  0.00    +0.000 OA
ATOM      2  C   UNL     1      13.755  13.982  58.653  0.00  0.00    +0.000 C 
ATOM      3  C   UNL     1      12.835  13.300  57.636  0.00  0.00    +0.000 C 
ATOM      4  C   UNL     1      13.286  13.143  56.195  0.00  0.00    +0.000 C 
ATOM      5  C   UNL     1      15.321  13.745  58.488  0.00  0.00    +0.000 C 
ATOM      6  C   UNL     1      13.521  13.437  59.999  0.00  0.00    +0.000 C 
ATOM      7  C   UNL     1      14.730  13.268  56.139  0.00  0.00    +0.000 C 
ATOM      8  C   UNL     1      15.773  13.538  57.170  0.00  0.00    +0.000 C 
ATOM      9  C   UNL     1      13.502  15.514  58.635  0.00  0.00    +0.000 C 
ATOM     10  C   UNL     1      14.261  12.997  61.239  0.00  0.00    +0.000 C 
ATOM     11  C   UNL     1      16.685  13.171  60.466  0.00  0.00    +0.000 C 
ATOM     12  C   UNL     1      12.817  11.801  55.613  0.00  0.00    +0.000 C 
ATOM     13  C   UNL     1      15.627  12.912  61.581  0.00  0.00    +0.000 C 
ATOM     14  C   UNL     1      17.054  11.807  59.812  0.00  0.00    +0.000 C 
ATOM     15  C   UNL     1      17.943  13.774  61.158  0.00  0.00    +0.000 C 
ENDROOT
BRANCH   4  16
ATOM     16  O   UNL     1      12.689  14.133  55.397  0.00  0.00    +0.000 OA
ATOM     17  H   UNL     1      11.784  13.785  55.306  0.00  0.00    +0.000 HD
ENDBRANCH   4  16
BRANCH  13  18
ATOM     18  O   UNL     1      15.976  12.615  62.895  0.00  0.00    +0.000 OA
ATOM     19  H   UNL     1      16.503  11.790  62.947  0.00  0.00    +0.000 HD
ENDBRANCH  13  18
BRANCH   3  20
ATOM     20  C   UNL     1      11.465  13.025  57.987  0.00  0.00    +0.000 C 
ATOM     21  C   UNL     1      10.007  12.750  58.364  0.00  0.00    +0.000 C 
BRANCH  21  25
ATOM     22  C   UNL     1       7.853  10.158  59.613  0.00  0.00    +0.000 C 
ATOM     23  C   UNL     1       8.246  11.625  59.935  0.00  0.00    +0.000 C 
ATOM     24  C   UNL     1       6.731   9.739  58.707  0.00  0.00    +0.000 C 
ATOM     25  C   UNL     1       8.639  12.500  58.721  0.00  0.00    +0.000 C 
ATOM     26  C   UNL     1       6.325   8.282  58.897  0.00  0.00    +0.000 C 
ATOM     27  C   UNL     1       8.182   8.999  60.378  0.00  0.00    +0.000 C 
ATOM     28  C   UNL     1       7.259   7.892  59.947  0.00  0.00    +0.000 C 
ATOM     29  C   UNL     1       6.245  10.699  57.802  0.00  0.00    +0.000 C 
ATOM     30  C   UNL     1       7.601  12.969  57.803  0.00  0.00    +0.000 C 
ATOM     31  C   UNL     1       9.465  11.585  60.932  0.00  0.00    +0.000 C 
ATOM     32  C   UNL     1       7.059  12.290  60.712  0.00  0.00    +0.000 C 
ATOM     33  C   UNL     1       6.690  12.102  57.488  0.00  0.00    +0.000 C 
ATOM     34  C   UNL     1       6.418   7.479  57.608  0.00  0.00    +0.000 C 
ATOM     35  C   UNL     1       7.759  14.157  56.892  0.00  0.00    +0.000 C 
BRANCH  26  36
ATOM     36  O   UNL     1       4.997   8.200  59.346  0.00  0.00    +0.000 OA
ATOM     37  H   UNL     1       4.785   9.143  59.468  0.00  0.00    +0.000 HD
ENDBRANCH  26  36
ENDBRANCH  21  25
ENDBRANCH   3  20
TORSDOF 5
ENDMDL
MODEL 8
REMARK VINA RESULT:      -4.5      2.932      8.690
REMARK  Name = 342374_SipholenolA.pdbqt.pdb
REMARK  5 active torsions:
REMARK  status: ('A' for Active; 'I' for Inactive)
REMARK    1  A    between atoms: C_3  and  C_20
REMARK    2  A    between atoms: C_4  and  O_16
REMARK    3  A    between atoms: C_13  and  O_18
REMARK    4  A    between atoms: C_21  and  C_25
REMARK    5  A    between atoms: C_26  and  O_36
REMARK                            x       y       z     vdW  Elec       q    Type
REMARK                         _______ _______ _______ _____ _____    ______ ____
ROOT
ATOM      1  O   UNL     1      11.160   1.513  77.088  0.00  0.00    +0.000 OA
ATOM      2  C   UNL     1      12.249   3.624  76.002  0.00  0.00    +0.000 C 
ATOM      3  C   UNL     1      12.825   4.183  74.698  0.00  0.00    +0.000 C 
ATOM      4  C   UNL     1      13.733   3.319  73.840  0.00  0.00    +0.000 C 
ATOM      5  C   UNL     1      11.878   2.075  76.027  0.00  0.00    +0.000 C 
ATOM      6  C   UNL     1      10.943   4.238  76.287  0.00  0.00    +0.000 C 
ATOM      7  C   UNL     1      13.525   1.928  74.192  0.00  0.00    +0.000 C 
ATOM      8  C   UNL     1      12.661   1.247  75.199  0.00  0.00    +0.000 C 
ATOM      9  C   UNL     1      13.242   3.893  77.165  0.00  0.00    +0.000 C 
ATOM     10  C   UNL     1       9.562   3.893  76.787  0.00  0.00    +0.000 C 
ATOM     11  C   UNL     1       9.709   1.353  76.961  0.00  0.00    +0.000 C 
ATOM     12  C   UNL     1      13.477   3.564  72.346  0.00  0.00    +0.000 C 
ATOM     13  C   UNL     1       8.939   2.689  77.182  0.00  0.00    +0.000 C 
ATOM     14  C   UNL     1       9.305   0.776  75.573  0.00  0.00    +0.000 C 
ATOM     15  C   UNL     1       9.258   0.372  78.083  0.00  0.00    +0.000 C 
ENDROOT
BRANCH   4  16
ATOM     16  O   UNL     1      15.076   3.672  74.060  0.00  0.00    +0.000 OA
ATOM     17  H   UNL     1      15.407   3.740  73.147  0.00  0.00    +0.000 HD
ENDBRANCH   4  16
BRANCH  13  18
ATOM     18  O   UNL     1       7.675   2.742  77.761  0.00  0.00    +0.000 OA
ATOM     19  H   UNL     1       7.072   2.079  77.365  0.00  0.00    +0.000 HD
ENDBRANCH  13  18
BRANCH   3  20
ATOM     20  C   UNL     1      12.702   5.589  74.410  0.00  0.00    +0.000 C 
ATOM     21  C   UNL     1      12.575   7.088  74.119  0.00  0.00    +0.000 C 
BRANCH  21  25
ATOM     22  C   UNL     1      10.328   9.857  74.564  0.00  0.00    +0.000 C 
ATOM     23  C   UNL     1      11.804   9.473  74.858  0.00  0.00    +0.000 C 
ATOM     24  C   UNL     1       9.837  10.516  73.308  0.00  0.00    +0.000 C 
ATOM     25  C   UNL     1      12.459   8.493  73.855  0.00  0.00    +0.000 C 
ATOM     26  C   UNL     1       8.451  11.132  73.461  0.00  0.00    +0.000 C 
ATOM     27  C   UNL     1       9.284  10.030  75.522  0.00  0.00    +0.000 C 
ATOM     28  C   UNL     1       8.177  10.797  74.854  0.00  0.00    +0.000 C 
ATOM     29  C   UNL     1      10.672  10.446  72.178  0.00  0.00    +0.000 C 
ATOM     30  C   UNL     1      12.837   8.969  72.524  0.00  0.00    +0.000 C 
ATOM     31  C   UNL     1      11.851   8.821  76.291  0.00  0.00    +0.000 C 
ATOM     32  C   UNL     1      12.645  10.792  74.945  0.00  0.00    +0.000 C 
ATOM     33  C   UNL     1      11.983   9.748  71.938  0.00  0.00    +0.000 C 
ATOM     34  C   UNL     1       7.455  10.584  72.449  0.00  0.00    +0.000 C 
ATOM     35  C   UNL     1      13.861   8.294  71.651  0.00  0.00    +0.000 C 
BRANCH  26  36
ATOM     36  O   UNL     1       8.512  12.523  73.277  0.00  0.00    +0.000 OA
ATOM     37  H   UNL     1       8.689  12.821  74.187  0.00  0.00    +0.000 HD
ENDBRANCH  26  36
ENDBRANCH  21  25
ENDBRANCH   3  20
TORSDOF 5
ENDMDL
MODEL 9
REMARK VINA RESULT:      -4.4     14.933     18.461
REMARK  Name = 342374_SipholenolA.pdbqt.pdb
REMARK  5 active torsions:
REMARK  status: ('A' for Active; 'I' for Inactive)
REMARK    1  A    between atoms: C_3  and  C_20
REMARK    2  A    between atoms: C_4  and  O_16
REMARK    3  A    between atoms: C_13  and  O_18
REMARK    4  A    between atoms: C_21  and  C_25
REMARK    5  A    between atoms: C_26  and  O_36
REMARK                            x       y       z     vdW  Elec       q    Type
REMARK                         _______ _______ _______ _____ _____    ______ ____
ROOT
ATOM      1  O   UNL     1       5.503   4.842  60.062  0.00  0.00    +0.000 OA
ATOM      2  C   UNL     1       6.376   7.055  58.983  0.00  0.00    +0.000 C 
ATOM      3  C   UNL     1       6.024   8.169  57.994  0.00  0.00    +0.000 C 
ATOM      4  C   UNL     1       5.370   7.823  56.667  0.00  0.00    +0.000 C 
ATOM      5  C   UNL     1       5.388   5.808  59.055  0.00  0.00    +0.000 C 
ATOM      6  C   UNL     1       6.308   7.558  60.364  0.00  0.00    +0.000 C 
ATOM      7  C   UNL     1       4.773   6.506  56.768  0.00  0.00    +0.000 C 
ATOM      8  C   UNL     1       4.718   5.490  57.858  0.00  0.00    +0.000 C 
ATOM      9  C   UNL     1       7.799   6.516  58.671  0.00  0.00    +0.000 C 
ATOM     10  C   UNL     1       5.839   7.160  61.742  0.00  0.00    +0.000 C 
ATOM     11  C   UNL     1       4.660   4.952  61.255  0.00  0.00    +0.000 C 
ATOM     12  C   UNL     1       4.331   8.883  56.272  0.00  0.00    +0.000 C 
ATOM     13  C   UNL     1       5.182   6.023  62.259  0.00  0.00    +0.000 C 
ATOM     14  C   UNL     1       3.183   5.292  60.896  0.00  0.00    +0.000 C 
ATOM     15  C   UNL     1       4.715   3.576  61.982  0.00  0.00    +0.000 C 
ENDROOT
BRANCH   4  16
ATOM     16  O   UNL     1       6.333   7.834  55.643  0.00  0.00    +0.000 OA
ATOM     17  H   UNL     1       7.139   7.600  56.138  0.00  0.00    +0.000 HD
ENDBRANCH   4  16
BRANCH  13  18
ATOM     18  O   UNL     1       5.037   5.896  63.637  0.00  0.00    +0.000 OA
ATOM     19  H   UNL     1       4.511   5.102  63.870  0.00  0.00    +0.000 HD
ENDBRANCH  13  18
BRANCH   3  20
ATOM     20  C   UNL     1       6.522   9.503  58.216  0.00  0.00    +0.000 C 
ATOM     21  C   UNL     1       7.066  10.914  58.454  0.00  0.00    +0.000 C 
BRANCH  21  25
ATOM     22  C   UNL     1       7.717  13.267  61.092  0.00  0.00    +0.000 C 
ATOM     23  C   UNL     1       8.456  12.580  59.911  0.00  0.00    +0.000 C 
ATOM     24  C   UNL     1       6.974  14.569  61.012  0.00  0.00    +0.000 C 
ATOM     25  C   UNL     1       7.585  12.233  58.681  0.00  0.00    +0.000 C 
ATOM     26  C   UNL     1       6.708  15.188  62.379  0.00  0.00    +0.000 C 
ATOM     27  C   UNL     1       7.927  13.030  62.484  0.00  0.00    +0.000 C 
ATOM     28  C   UNL     1       7.328  14.185  63.238  0.00  0.00    +0.000 C 
ATOM     29  C   UNL     1       6.597  15.015  59.732  0.00  0.00    +0.000 C 
ATOM     30  C   UNL     1       7.133  13.303  57.791  0.00  0.00    +0.000 C 
ATOM     31  C   UNL     1       9.096  11.249  60.458  0.00  0.00    +0.000 C 
ATOM     32  C   UNL     1       9.649  13.501  59.480  0.00  0.00    +0.000 C 
ATOM     33  C   UNL     1       6.724  14.387  58.370  0.00  0.00    +0.000 C 
ATOM     34  C   UNL     1       5.226  15.434  62.628  0.00  0.00    +0.000 C 
ATOM     35  C   UNL     1       6.700  13.083  56.366  0.00  0.00    +0.000 C 
BRANCH  26  36
ATOM     36  O   UNL     1       7.362  16.425  62.491  0.00  0.00    +0.000 OA
ATOM     37  H   UNL     1       7.153  16.823  61.628  0.00  0.00    +0.000 HD
ENDBRANCH  26  36
ENDBRANCH  21  25
ENDBRANCH   3  20
TORSDOF 5
ENDMDL
