MODEL 1
REMARK VINA RESULT:      -2.8      0.000      0.000
REMARK  Name = 43806_Diaminocyclohexane.pdbqt.pdb
REMARK  2 active torsions:
REMARK  status: ('A' for Active; 'I' for Inactive)
REMARK    1  A    between atoms: C_1  and  N_7
REMARK    2  A    between atoms: C_2  and  N_10
REMARK                            x       y       z     vdW  Elec       q    Type
REMARK                         _______ _______ _______ _____ _____    ______ ____
ROOT
ATOM      1  C   UNL     1       9.057   3.640  58.360  0.00  0.00    +0.000 A 
ATOM      2  C   UNL     1       9.547   5.022  58.165  0.00  0.00    +0.000 A 
ATOM      3  C   UNL     1       7.642   3.514  58.543  0.00  0.00    +0.000 A 
ATOM      4  C   UNL     1       8.530   6.032  58.153  0.00  0.00    +0.000 A 
ATOM      5  C   UNL     1       6.501   4.545  58.554  0.00  0.00    +0.000 A 
ATOM      6  C   UNL     1       7.005   5.972  58.331  0.00  0.00    +0.000 A 
ENDROOT
BRANCH   1   7
ATOM      7  N   UNL     1       9.907   2.511  58.293  0.00  0.00    +0.000 N 
ATOM      8  H   UNL     1       9.488   1.665  58.666  0.00  0.00    +0.000 HD
ATOM      9  H   UNL     1      10.844   2.668  58.651  0.00  0.00    +0.000 HD
ENDBRANCH   1   7
BRANCH   2  10
ATOM     10  N   UNL     1      10.922   5.340  58.074  0.00  0.00    +0.000 N 
ATOM     11  H   UNL     1      11.220   5.587  57.136  0.00  0.00    +0.000 HD
ATOM     12  H   UNL     1      11.540   4.664  58.510  0.00  0.00    +0.000 HD
ENDBRANCH   2  10
TORSDOF 2
ENDMDL
MODEL 2
REMARK VINA RESULT:      -2.6      1.431      2.659
REMARK  Name = 43806_Diaminocyclohexane.pdbqt.pdb
REMARK  2 active torsions:
REMARK  status: ('A' for Active; 'I' for Inactive)
REMARK    1  A    between atoms: C_1  and  N_7
REMARK    2  A    between atoms: C_2  and  N_10
REMARK                            x       y       z     vdW  Elec       q    Type
REMARK                         _______ _______ _______ _____ _____    ______ ____
ROOT
ATOM      1  C   UNL     1       8.361   4.977  58.057  0.00  0.00    +0.000 A 
ATOM      2  C   UNL     1       9.763   4.550  58.258  0.00  0.00    +0.000 A 
ATOM      3  C   UNL     1       7.379   3.950  58.237  0.00  0.00    +0.000 A 
ATOM      4  C   UNL     1       9.934   3.178  58.638  0.00  0.00    +0.000 A 
ATOM      5  C   UNL     1       7.487   2.468  58.629  0.00  0.00    +0.000 A 
ATOM      6  C   UNL     1       8.935   2.031  58.859  0.00  0.00    +0.000 A 
ENDROOT
BRANCH   1   7
ATOM      7  N   UNL     1       8.003   6.318  57.783  0.00  0.00    +0.000 N 
ATOM      8  H   UNL     1       8.089   6.569  56.803  0.00  0.00    +0.000 HD
ATOM      9  H   UNL     1       8.433   7.003  58.397  0.00  0.00    +0.000 HD
ENDBRANCH   1   7
BRANCH   2  10
ATOM     10  N   UNL     1      10.865   5.405  58.019  0.00  0.00    +0.000 N 
ATOM     11  H   UNL     1      11.652   5.234  58.637  0.00  0.00    +0.000 HD
ATOM     12  H   UNL     1      10.629   6.390  57.959  0.00  0.00    +0.000 HD
ENDBRANCH   2  10
TORSDOF 2
ENDMDL
MODEL 3
REMARK VINA RESULT:      -2.5     10.836     11.730
REMARK  Name = 43806_Diaminocyclohexane.pdbqt.pdb
REMARK  2 active torsions:
REMARK  status: ('A' for Active; 'I' for Inactive)
REMARK    1  A    between atoms: C_1  and  N_7
REMARK    2  A    between atoms: C_2  and  N_10
REMARK                            x       y       z     vdW  Elec       q    Type
REMARK                         _______ _______ _______ _____ _____    ______ ____
ROOT
ATOM      1  C   UNL     1      17.655   0.544  54.004  0.00  0.00    +0.000 A 
ATOM      2  C   UNL     1      18.079  -0.168  55.230  0.00  0.00    +0.000 A 
ATOM      3  C   UNL     1      18.601   1.490  53.491  0.00  0.00    +0.000 A 
ATOM      4  C   UNL     1      19.388   0.168  55.707  0.00  0.00    +0.000 A 
ATOM      5  C   UNL     1      20.007   1.907  53.952  0.00  0.00    +0.000 A 
ATOM      6  C   UNL     1      20.453   1.155  55.207  0.00  0.00    +0.000 A 
ENDROOT
BRANCH   1   7
ATOM      7  N   UNL     1      16.440   0.260  53.336  0.00  0.00    +0.000 N 
ATOM      8  H   UNL     1      16.552   0.115  52.338  0.00  0.00    +0.000 HD
ATOM      9  H   UNL     1      15.682   0.900  53.551  0.00  0.00    +0.000 HD
ENDBRANCH   1   7
BRANCH   2  10
ATOM     10  N   UNL     1      17.229  -1.057  55.930  0.00  0.00    +0.000 N 
ATOM     11  H   UNL     1      17.564  -2.015  55.938  0.00  0.00    +0.000 HD
ATOM     12  H   UNL     1      16.250  -0.993  55.674  0.00  0.00    +0.000 HD
ENDBRANCH   2  10
TORSDOF 2
ENDMDL
MODEL 4
REMARK VINA RESULT:      -2.4     10.377     11.103
REMARK  Name = 43806_Diaminocyclohexane.pdbqt.pdb
REMARK  2 active torsions:
REMARK  status: ('A' for Active; 'I' for Inactive)
REMARK    1  A    between atoms: C_1  and  N_7
REMARK    2  A    between atoms: C_2  and  N_10
REMARK                            x       y       z     vdW  Elec       q    Type
REMARK                         _______ _______ _______ _____ _____    ______ ____
ROOT
ATOM      1  C   UNL     1      18.803   9.193  61.407  0.00  0.00    +0.000 A 
ATOM      2  C   UNL     1      18.046   9.464  60.165  0.00  0.00    +0.000 A 
ATOM      3  C   UNL     1      18.213   9.709  62.606  0.00  0.00    +0.000 A 
ATOM      4  C   UNL     1      16.815  10.176  60.345  0.00  0.00    +0.000 A 
ATOM      5  C   UNL     1      16.911  10.484  62.872  0.00  0.00    +0.000 A 
ATOM      6  C   UNL     1      16.119  10.746  61.590  0.00  0.00    +0.000 A 
ENDROOT
BRANCH   1   7
ATOM      7  N   UNL     1      19.983   8.413  61.428  0.00  0.00    +0.000 N 
ATOM      8  H   UNL     1      20.287   8.162  62.364  0.00  0.00    +0.000 HD
ATOM      9  H   UNL     1      20.741   8.781  60.861  0.00  0.00    +0.000 HD
ENDBRANCH   1   7
BRANCH   2  10
ATOM     10  N   UNL     1      18.534   9.121  58.882  0.00  0.00    +0.000 N 
ATOM     11  H   UNL     1      18.193   8.226  58.545  0.00  0.00    +0.000 HD
ATOM     12  H   UNL     1      19.538   9.216  58.774  0.00  0.00    +0.000 HD
ENDBRANCH   2  10
TORSDOF 2
ENDMDL
MODEL 5
REMARK VINA RESULT:      -2.4     10.567     11.446
REMARK  Name = 43806_Diaminocyclohexane.pdbqt.pdb
REMARK  2 active torsions:
REMARK  status: ('A' for Active; 'I' for Inactive)
REMARK    1  A    between atoms: C_1  and  N_7
REMARK    2  A    between atoms: C_2  and  N_10
REMARK                            x       y       z     vdW  Elec       q    Type
REMARK                         _______ _______ _______ _____ _____    ______ ____
ROOT
ATOM      1  C   UNL     1      17.926   9.597  56.095  0.00  0.00    +0.000 A 
ATOM      2  C   UNL     1      17.042   9.919  54.954  0.00  0.00    +0.000 A 
ATOM      3  C   UNL     1      19.132   8.901  55.756  0.00  0.00    +0.000 A 
ATOM      4  C   UNL     1      17.535   9.517  53.669  0.00  0.00    +0.000 A 
ATOM      5  C   UNL     1      19.717   8.432  54.414  0.00  0.00    +0.000 A 
ATOM      6  C   UNL     1      18.812   8.784  53.231  0.00  0.00    +0.000 A 
ENDROOT
BRANCH   1   7
ATOM      7  N   UNL     1      17.647  10.013  57.419  0.00  0.00    +0.000 N 
ATOM      8  H   UNL     1      18.363  10.614  57.814  0.00  0.00    +0.000 HD
ATOM      9  H   UNL     1      17.382   9.262  58.048  0.00  0.00    +0.000 HD
ENDBRANCH   1   7
BRANCH   2  10
ATOM     10  N   UNL     1      15.766  10.508  55.117  0.00  0.00    +0.000 N 
ATOM     11  H   UNL     1      15.801  11.458  55.473  0.00  0.00    +0.000 HD
ATOM     12  H   UNL     1      15.098   9.933  55.618  0.00  0.00    +0.000 HD
ENDBRANCH   2  10
TORSDOF 2
ENDMDL
MODEL 6
REMARK VINA RESULT:      -2.4     11.240     12.193
REMARK  Name = 43806_Diaminocyclohexane.pdbqt.pdb
REMARK  2 active torsions:
REMARK  status: ('A' for Active; 'I' for Inactive)
REMARK    1  A    between atoms: C_1  and  N_7
REMARK    2  A    between atoms: C_2  and  N_10
REMARK                            x       y       z     vdW  Elec       q    Type
REMARK                         _______ _______ _______ _____ _____    ______ ____
ROOT
ATOM      1  C   UNL     1      19.910   0.285  55.974  0.00  0.00    +0.000 A 
ATOM      2  C   UNL     1      18.582  -0.041  55.410  0.00  0.00    +0.000 A 
ATOM      3  C   UNL     1      20.668   1.249  55.234  0.00  0.00    +0.000 A 
ATOM      4  C   UNL     1      18.232   0.680  54.222  0.00  0.00    +0.000 A 
ATOM      5  C   UNL     1      20.364   2.049  53.957  0.00  0.00    +0.000 A 
ATOM      6  C   UNL     1      18.982   1.728  53.385  0.00  0.00    +0.000 A 
ENDROOT
BRANCH   1   7
ATOM      7  N   UNL     1      20.373  -0.253  57.199  0.00  0.00    +0.000 N 
ATOM      8  H   UNL     1      21.005  -1.039  57.083  0.00  0.00    +0.000 HD
ATOM      9  H   UNL     1      19.643  -0.441  57.879  0.00  0.00    +0.000 HD
ENDBRANCH   1   7
BRANCH   2  10
ATOM     10  N   UNL     1      17.747  -1.046  55.951  0.00  0.00    +0.000 N 
ATOM     11  H   UNL     1      18.236  -1.697  56.557  0.00  0.00    +0.000 HD
ATOM     12  H   UNL     1      17.161  -1.519  55.271  0.00  0.00    +0.000 HD
ENDBRANCH   2  10
TORSDOF 2
ENDMDL
MODEL 7
REMARK VINA RESULT:      -2.4     10.817     11.652
REMARK  Name = 43806_Diaminocyclohexane.pdbqt.pdb
REMARK  2 active torsions:
REMARK  status: ('A' for Active; 'I' for Inactive)
REMARK    1  A    between atoms: C_1  and  N_7
REMARK    2  A    between atoms: C_2  and  N_10
REMARK                            x       y       z     vdW  Elec       q    Type
REMARK                         _______ _______ _______ _____ _____    ______ ____
ROOT
ATOM      1  C   UNL     1      17.662   0.232  54.283  0.00  0.00    +0.000 A 
ATOM      2  C   UNL     1      18.012   1.225  53.244  0.00  0.00    +0.000 A 
ATOM      3  C   UNL     1      18.650   0.041  55.303  0.00  0.00    +0.000 A 
ATOM      4  C   UNL     1      19.275   1.878  53.427  0.00  0.00    +0.000 A 
ATOM      5  C   UNL     1      20.020   0.692  55.555  0.00  0.00    +0.000 A 
ATOM      6  C   UNL     1      20.373   1.735  54.492  0.00  0.00    +0.000 A 
ENDROOT
BRANCH   1   7
ATOM      7  N   UNL     1      16.411  -0.428  54.318  0.00  0.00    +0.000 N 
ATOM      8  H   UNL     1      16.185  -0.819  55.227  0.00  0.00    +0.000 HD
ATOM      9  H   UNL     1      16.264  -1.092  53.564  0.00  0.00    +0.000 HD
ENDBRANCH   1   7
BRANCH   2  10
ATOM     10  N   UNL     1      17.203   1.462  52.108  0.00  0.00    +0.000 N 
ATOM     11  H   UNL     1      17.085   0.646  51.517  0.00  0.00    +0.000 HD
ATOM     12  H   UNL     1      17.453   2.290  51.577  0.00  0.00    +0.000 HD
ENDBRANCH   2  10
TORSDOF 2
ENDMDL
MODEL 8
REMARK VINA RESULT:      -2.4     10.750     11.563
REMARK  Name = 43806_Diaminocyclohexane.pdbqt.pdb
REMARK  2 active torsions:
REMARK  status: ('A' for Active; 'I' for Inactive)
REMARK    1  A    between atoms: C_1  and  N_7
REMARK    2  A    between atoms: C_2  and  N_10
REMARK                            x       y       z     vdW  Elec       q    Type
REMARK                         _______ _______ _______ _____ _____    ______ ____
ROOT
ATOM      1  C   UNL     1      17.819  -0.561  55.551  0.00  0.00    +0.000 A 
ATOM      2  C   UNL     1      19.170  -0.208  56.042  0.00  0.00    +0.000 A 
ATOM      3  C   UNL     1      17.403   0.125  54.364  0.00  0.00    +0.000 A 
ATOM      4  C   UNL     1      19.880   0.744  55.240  0.00  0.00    +0.000 A 
ATOM      5  C   UNL     1      18.101   1.158  53.464  0.00  0.00    +0.000 A 
ATOM      6  C   UNL     1      19.506   1.506  53.959  0.00  0.00    +0.000 A 
ENDROOT
BRANCH   1   7
ATOM      7  N   UNL     1      17.021  -1.559  56.159  0.00  0.00    +0.000 N 
ATOM      8  H   UNL     1      16.967  -2.417  55.620  0.00  0.00    +0.000 HD
ATOM      9  H   UNL     1      16.110  -1.238  56.470  0.00  0.00    +0.000 HD
ENDBRANCH   1   7
BRANCH   2  10
ATOM     10  N   UNL     1      19.697  -0.709  57.256  0.00  0.00    +0.000 N 
ATOM     11  H   UNL     1      19.534  -1.702  57.389  0.00  0.00    +0.000 HD
ATOM     12  H   UNL     1      19.455  -0.164  58.077  0.00  0.00    +0.000 HD
ENDBRANCH   2  10
TORSDOF 2
ENDMDL
MODEL 9
REMARK VINA RESULT:      -2.3     12.803     13.487
REMARK  Name = 43806_Diaminocyclohexane.pdbqt.pdb
REMARK  2 active torsions:
REMARK  status: ('A' for Active; 'I' for Inactive)
REMARK    1  A    between atoms: C_1  and  N_7
REMARK    2  A    between atoms: C_2  and  N_10
REMARK                            x       y       z     vdW  Elec       q    Type
REMARK                         _______ _______ _______ _____ _____    ______ ____
ROOT
ATOM      1  C   UNL     1      14.181   9.158  68.180  0.00  0.00    +0.000 A 
ATOM      2  C   UNL     1      13.627  10.394  68.774  0.00  0.00    +0.000 A 
ATOM      3  C   UNL     1      15.421   8.713  68.744  0.00  0.00    +0.000 A 
ATOM      4  C   UNL     1      14.393  10.951  69.849  0.00  0.00    +0.000 A 
ATOM      5  C   UNL     1      16.299   9.260  69.882  0.00  0.00    +0.000 A 
ATOM      6  C   UNL     1      15.714  10.527  70.509  0.00  0.00    +0.000 A 
ENDROOT
BRANCH   1   7
ATOM      7  N   UNL     1      13.503   8.418  67.182  0.00  0.00    +0.000 N 
ATOM      8  H   UNL     1      12.971   7.636  67.550  0.00  0.00    +0.000 HD
ATOM      9  H   UNL     1      14.079   8.156  66.388  0.00  0.00    +0.000 HD
ENDBRANCH   1   7
BRANCH   2  10
ATOM     10  N   UNL     1      12.468  11.032  68.270  0.00  0.00    +0.000 N 
ATOM     11  H   UNL     1      11.953  11.551  68.974  0.00  0.00    +0.000 HD
ATOM     12  H   UNL     1      11.866  10.433  67.715  0.00  0.00    +0.000 HD
ENDBRANCH   2  10
TORSDOF 2
ENDMDL
