MODEL 1
REMARK VINA RESULT:      -5.8      0.000      0.000
REMARK  Name = 44234954_SipholenolL.pdbqt.pdb
REMARK  5 active torsions:
REMARK  status: ('A' for Active; 'I' for Inactive)
REMARK    1  A    between atoms: C_3  and  C_20
REMARK    2  A    between atoms: C_4  and  O_16
REMARK    3  A    between atoms: C_13  and  O_18
REMARK    4  A    between atoms: C_21  and  C_25
REMARK    5  A    between atoms: C_26  and  O_36
REMARK                            x       y       z     vdW  Elec       q    Type
REMARK                         _______ _______ _______ _____ _____    ______ ____
ROOT
ATOM      1  O   UNL     1       0.514   6.236  66.712  0.00  0.00    +0.000 OA
ATOM      2  C   UNL     1       1.745   5.590  64.508  0.00  0.00    +0.000 C 
ATOM      3  C   UNL     1       2.891   4.742  63.950  0.00  0.00    +0.000 C 
ATOM      4  C   UNL     1       3.036   3.297  64.391  0.00  0.00    +0.000 C 
ATOM      5  C   UNL     1       1.394   5.378  66.046  0.00  0.00    +0.000 C 
ATOM      6  C   UNL     1       2.090   7.019  64.494  0.00  0.00    +0.000 C 
ATOM      7  C   UNL     1       2.412   3.147  65.693  0.00  0.00    +0.000 C 
ATOM      8  C   UNL     1       1.626   4.082  66.551  0.00  0.00    +0.000 C 
ATOM      9  C   UNL     1       0.459   5.346  63.675  0.00  0.00    +0.000 C 
ATOM     10  C   UNL     1       2.001   8.255  65.353  0.00  0.00    +0.000 C 
ATOM     11  C   UNL     1       1.050   7.331  67.539  0.00  0.00    +0.000 C 
ATOM     12  C   UNL     1       2.524   2.321  63.335  0.00  0.00    +0.000 C 
ATOM     13  C   UNL     1       1.554   8.530  66.666  0.00  0.00    +0.000 C 
ATOM     14  C   UNL     1      -0.139   7.812  68.415  0.00  0.00    +0.000 C 
ATOM     15  C   UNL     1       2.227   6.834  68.434  0.00  0.00    +0.000 C 
ENDROOT
BRANCH   4  16
ATOM     16  O   UNL     1       4.410   2.999  64.526  0.00  0.00    +0.000 OA
ATOM     17  H   UNL     1       4.432   2.083  64.192  0.00  0.00    +0.000 HD
ENDBRANCH   4  16
BRANCH  13  18
ATOM     18  O   UNL     1       1.783   9.789  67.208  0.00  0.00    +0.000 OA
ATOM     19  H   UNL     1       1.394   9.888  68.095  0.00  0.00    +0.000 HD
ENDBRANCH  13  18
BRANCH   3  20
ATOM     20  C   UNL     1       3.793   5.278  62.968  0.00  0.00    +0.000 C 
ATOM     21  C   UNL     1       4.774   5.864  61.947  0.00  0.00    +0.000 C 
BRANCH  21  25
ATOM     22  C   UNL     1       6.150   5.624  59.776  0.00  0.00    +0.000 A 
ATOM     23  C   UNL     1       7.179   6.269  58.768  0.00  0.00    +0.000 A 
ATOM     24  C   UNL     1       5.559   4.171  59.548  0.00  0.00    +0.000 C 
ATOM     25  C   UNL     1       5.723   6.415  61.031  0.00  0.00    +0.000 A 
ATOM     26  C   UNL     1       7.721   5.674  57.448  0.00  0.00    +0.000 C 
ATOM     27  C   UNL     1       6.184   3.698  58.309  0.00  0.00    +0.000 C 
ATOM     28  C   UNL     1       7.154   4.342  57.355  0.00  0.00    +0.000 C 
ATOM     29  C   UNL     1       7.622   7.536  59.247  0.00  0.00    +0.000 A 
ATOM     30  C   UNL     1       6.272   7.759  61.365  0.00  0.00    +0.000 A 
ATOM     31  C   UNL     1       4.027   4.258  59.348  0.00  0.00    +0.000 C 
ATOM     32  C   UNL     1       5.973   3.244  60.711  0.00  0.00    +0.000 C 
ATOM     33  C   UNL     1       7.137   8.193  60.506  0.00  0.00    +0.000 A 
ATOM     34  C   UNL     1       7.381   6.561  56.258  0.00  0.00    +0.000 C 
ATOM     35  C   UNL     1       5.815   8.649  62.484  0.00  0.00    +0.000 C 
BRANCH  26  36
ATOM     36  O   UNL     1       9.121   5.587  57.511  0.00  0.00    +0.000 OA
ATOM     37  H   UNL     1       9.331   5.302  56.603  0.00  0.00    +0.000 HD
ENDBRANCH  26  36
ENDBRANCH  21  25
ENDBRANCH   3  20
TORSDOF 5
ENDMDL
MODEL 2
REMARK VINA RESULT:      -5.4      1.500      2.988
REMARK  Name = 44234954_SipholenolL.pdbqt.pdb
REMARK  5 active torsions:
REMARK  status: ('A' for Active; 'I' for Inactive)
REMARK    1  A    between atoms: C_3  and  C_20
REMARK    2  A    between atoms: C_4  and  O_16
REMARK    3  A    between atoms: C_13  and  O_18
REMARK    4  A    between atoms: C_21  and  C_25
REMARK    5  A    between atoms: C_26  and  O_36
REMARK                            x       y       z     vdW  Elec       q    Type
REMARK                         _______ _______ _______ _____ _____    ______ ____
ROOT
ATOM      1  O   UNL     1       0.740   5.264  66.866  0.00  0.00    +0.000 OA
ATOM      2  C   UNL     1       1.841   3.773  65.033  0.00  0.00    +0.000 C 
ATOM      3  C   UNL     1       2.977   2.778  64.786  0.00  0.00    +0.000 C 
ATOM      4  C   UNL     1       3.206   1.645  65.769  0.00  0.00    +0.000 C 
ATOM      5  C   UNL     1       1.605   4.213  66.545  0.00  0.00    +0.000 C 
ATOM      6  C   UNL     1       2.130   5.072  64.407  0.00  0.00    +0.000 C 
ATOM      7  C   UNL     1       2.679   2.041  67.061  0.00  0.00    +0.000 C 
ATOM      8  C   UNL     1       1.920   3.242  67.518  0.00  0.00    +0.000 C 
ATOM      9  C   UNL     1       0.511   3.200  64.478  0.00  0.00    +0.000 C 
ATOM     10  C   UNL     1       2.053   6.552  64.686  0.00  0.00    +0.000 C 
ATOM     11  C   UNL     1       1.289   6.606  67.125  0.00  0.00    +0.000 C 
ATOM     12  C   UNL     1       2.661   0.317  65.250  0.00  0.00    +0.000 C 
ATOM     13  C   UNL     1       1.687   7.341  65.801  0.00  0.00    +0.000 C 
ATOM     14  C   UNL     1       0.147   7.398  67.816  0.00  0.00    +0.000 C 
ATOM     15  C   UNL     1       2.543   6.530  68.051  0.00  0.00    +0.000 C 
ENDROOT
BRANCH   4  16
ATOM     16  O   UNL     1       4.597   1.438  65.907  0.00  0.00    +0.000 OA
ATOM     17  H   UNL     1       4.619   0.488  66.128  0.00  0.00    +0.000 HD
ENDBRANCH   4  16
BRANCH  13  18
ATOM     18  O   UNL     1       1.905   8.712  65.757  0.00  0.00    +0.000 OA
ATOM     19  H   UNL     1       2.841   8.945  65.890  0.00  0.00    +0.000 HD
ENDBRANCH  13  18
BRANCH   3  20
ATOM     20  C   UNL     1       3.789   2.866  63.603  0.00  0.00    +0.000 C 
ATOM     21  C   UNL     1       4.681   2.972  62.362  0.00  0.00    +0.000 C 
BRANCH  21  25
ATOM     22  C   UNL     1       5.602   4.361  60.390  0.00  0.00    +0.000 A 
ATOM     23  C   UNL     1       6.597   4.451  59.168  0.00  0.00    +0.000 A 
ATOM     24  C   UNL     1       4.630   5.556  60.763  0.00  0.00    +0.000 C 
ATOM     25  C   UNL     1       5.555   3.069  61.235  0.00  0.00    +0.000 A 
ATOM     26  C   UNL     1       6.827   5.644  58.212  0.00  0.00    +0.000 C 
ATOM     27  C   UNL     1       4.903   6.592  59.763  0.00  0.00    +0.000 C 
ATOM     28  C   UNL     1       5.871   6.658  58.612  0.00  0.00    +0.000 C 
ATOM     29  C   UNL     1       7.290   3.217  58.995  0.00  0.00    +0.000 A 
ATOM     30  C   UNL     1       6.382   1.870  60.925  0.00  0.00    +0.000 A 
ATOM     31  C   UNL     1       4.984   6.096  62.170  0.00  0.00    +0.000 C 
ATOM     32  C   UNL     1       3.161   5.100  60.634  0.00  0.00    +0.000 C 
ATOM     33  C   UNL     1       7.138   2.017  59.884  0.00  0.00    +0.000 A 
ATOM     34  C   UNL     1       8.272   6.121  58.259  0.00  0.00    +0.000 C 
ATOM     35  C   UNL     1       6.498   0.632  61.764  0.00  0.00    +0.000 C 
BRANCH  26  36
ATOM     36  O   UNL     1       6.567   5.244  56.891  0.00  0.00    +0.000 OA
ATOM     37  H   UNL     1       5.598   5.342  56.856  0.00  0.00    +0.000 HD
ENDBRANCH  26  36
ENDBRANCH  21  25
ENDBRANCH   3  20
TORSDOF 5
ENDMDL
MODEL 3
REMARK VINA RESULT:      -4.8     12.977     15.929
REMARK  Name = 44234954_SipholenolL.pdbqt.pdb
REMARK  5 active torsions:
REMARK  status: ('A' for Active; 'I' for Inactive)
REMARK    1  A    between atoms: C_3  and  C_20
REMARK    2  A    between atoms: C_4  and  O_16
REMARK    3  A    between atoms: C_13  and  O_18
REMARK    4  A    between atoms: C_21  and  C_25
REMARK    5  A    between atoms: C_26  and  O_36
REMARK                            x       y       z     vdW  Elec       q    Type
REMARK                         _______ _______ _______ _____ _____    ______ ____
ROOT
ATOM      1  O   UNL     1      11.508   1.319  76.874  0.00  0.00    +0.000 OA
ATOM      2  C   UNL     1       9.611   2.986  77.518  0.00  0.00    +0.000 C 
ATOM      3  C   UNL     1       8.098   3.207  77.442  0.00  0.00    +0.000 C 
ATOM      4  C   UNL     1       7.157   2.076  77.817  0.00  0.00    +0.000 C 
ATOM      5  C   UNL     1      10.141   1.562  77.044  0.00  0.00    +0.000 C 
ATOM      6  C   UNL     1      10.322   3.874  76.585  0.00  0.00    +0.000 C 
ATOM      7  C   UNL     1       7.852   0.816  77.628  0.00  0.00    +0.000 C 
ATOM      8  C   UNL     1       9.257   0.483  77.252  0.00  0.00    +0.000 C 
ATOM      9  C   UNL     1      10.105   3.234  78.967  0.00  0.00    +0.000 C 
ATOM     10  C   UNL     1      11.447   3.860  75.581  0.00  0.00    +0.000 C 
ATOM     11  C   UNL     1      12.098   1.389  75.527  0.00  0.00    +0.000 C 
ATOM     12  C   UNL     1       6.566   2.262  79.212  0.00  0.00    +0.000 C 
ATOM     13  C   UNL     1      12.305   2.867  75.055  0.00  0.00    +0.000 C 
ATOM     14  C   UNL     1      13.484   0.699  75.642  0.00  0.00    +0.000 C 
ATOM     15  C   UNL     1      11.203   0.652  74.483  0.00  0.00    +0.000 C 
ENDROOT
BRANCH   4  16
ATOM     16  O   UNL     1       6.047   2.101  76.944  0.00  0.00    +0.000 OA
ATOM     17  H   UNL     1       5.402   1.576  77.455  0.00  0.00    +0.000 HD
ENDBRANCH   4  16
BRANCH  13  18
ATOM     18  O   UNL     1      13.138   3.190  73.990  0.00  0.00    +0.000 OA
ATOM     19  H   UNL     1      12.817   2.829  73.145  0.00  0.00    +0.000 HD
ENDBRANCH  13  18
BRANCH   3  20
ATOM     20  C   UNL     1       7.558   4.489  77.081  0.00  0.00    +0.000 C 
ATOM     21  C   UNL     1       6.957   5.851  76.720  0.00  0.00    +0.000 C 
BRANCH  21  25
ATOM     22  C   UNL     1       4.872   7.233  76.078  0.00  0.00    +0.000 A 
ATOM     23  C   UNL     1       4.247   8.652  75.788  0.00  0.00    +0.000 A 
ATOM     24  C   UNL     1       4.006   5.908  75.996  0.00  0.00    +0.000 C 
ATOM     25  C   UNL     1       6.372   7.123  76.428  0.00  0.00    +0.000 A 
ATOM     26  C   UNL     1       2.779   8.997  75.447  0.00  0.00    +0.000 C 
ATOM     27  C   UNL     1       2.663   6.357  75.616  0.00  0.00    +0.000 C 
ATOM     28  C   UNL     1       2.089   7.724  75.360  0.00  0.00    +0.000 C 
ATOM     29  C   UNL     1       5.253   9.662  75.840  0.00  0.00    +0.000 A 
ATOM     30  C   UNL     1       7.282   8.301  76.467  0.00  0.00    +0.000 A 
ATOM     31  C   UNL     1       3.946   5.238  77.390  0.00  0.00    +0.000 C 
ATOM     32  C   UNL     1       4.561   4.981  74.894  0.00  0.00    +0.000 C 
ATOM     33  C   UNL     1       6.695   9.418  76.177  0.00  0.00    +0.000 A 
ATOM     34  C   UNL     1       2.178   9.943  76.476  0.00  0.00    +0.000 C 
ATOM     35  C   UNL     1       8.711   8.304  76.926  0.00  0.00    +0.000 C 
BRANCH  26  36
ATOM     36  O   UNL     1       2.726   9.649  74.205  0.00  0.00    +0.000 OA
ATOM     37  H   UNL     1       3.345   9.106  73.683  0.00  0.00    +0.000 HD
ENDBRANCH  26  36
ENDBRANCH  21  25
ENDBRANCH   3  20
TORSDOF 5
ENDMDL
MODEL 4
REMARK VINA RESULT:      -4.7      2.304      4.158
REMARK  Name = 44234954_SipholenolL.pdbqt.pdb
REMARK  5 active torsions:
REMARK  status: ('A' for Active; 'I' for Inactive)
REMARK    1  A    between atoms: C_3  and  C_20
REMARK    2  A    between atoms: C_4  and  O_16
REMARK    3  A    between atoms: C_13  and  O_18
REMARK    4  A    between atoms: C_21  and  C_25
REMARK    5  A    between atoms: C_26  and  O_36
REMARK                            x       y       z     vdW  Elec       q    Type
REMARK                         _______ _______ _______ _____ _____    ______ ____
ROOT
ATOM      1  O   UNL     1       0.050   5.091  66.643  0.00  0.00    +0.000 OA
ATOM      2  C   UNL     1       1.756   5.165  64.675  0.00  0.00    +0.000 C 
ATOM      3  C   UNL     1       1.904   4.904  63.174  0.00  0.00    +0.000 C 
ATOM      4  C   UNL     1       0.857   5.437  62.214  0.00  0.00    +0.000 C 
ATOM      5  C   UNL     1       0.280   5.076  65.264  0.00  0.00    +0.000 C 
ATOM      6  C   UNL     1       2.434   4.124  65.463  0.00  0.00    +0.000 C 
ATOM      7  C   UNL     1      -0.390   5.602  62.937  0.00  0.00    +0.000 C 
ATOM      8  C   UNL     1      -0.753   5.441  64.377  0.00  0.00    +0.000 C 
ATOM      9  C   UNL     1       2.339   6.559  65.025  0.00  0.00    +0.000 C 
ATOM     10  C   UNL     1       2.233   3.256  66.679  0.00  0.00    +0.000 C 
ATOM     11  C   UNL     1      -0.165   3.822  67.360  0.00  0.00    +0.000 C 
ATOM     12  C   UNL     1       1.331   6.693  61.489  0.00  0.00    +0.000 C 
ATOM     13  C   UNL     1       1.175   3.049  67.595  0.00  0.00    +0.000 C 
ATOM     14  C   UNL     1      -0.767   4.217  68.736  0.00  0.00    +0.000 C 
ATOM     15  C   UNL     1      -1.147   2.895  66.577  0.00  0.00    +0.000 C 
ENDROOT
BRANCH   4  16
ATOM     16  O   UNL     1       0.649   4.484  61.192  0.00  0.00    +0.000 OA
ATOM     17  H   UNL     1       0.594   3.664  61.718  0.00  0.00    +0.000 HD
ENDBRANCH   4  16
BRANCH  13  18
ATOM     18  O   UNL     1       1.278   2.020  68.522  0.00  0.00    +0.000 OA
ATOM     19  H   UNL     1       1.946   1.357  68.270  0.00  0.00    +0.000 HD
ENDBRANCH  13  18
BRANCH   3  20
ATOM     20  C   UNL     1       3.054   4.213  62.657  0.00  0.00    +0.000 C 
ATOM     21  C   UNL     1       4.266   3.480  62.073  0.00  0.00    +0.000 C 
BRANCH  21  25
ATOM     22  C   UNL     1       6.045   3.377  60.205  0.00  0.00    +0.000 A 
ATOM     23  C   UNL     1       7.297   2.637  59.591  0.00  0.00    +0.000 A 
ATOM     24  C   UNL     1       5.430   4.673  59.532  0.00  0.00    +0.000 C 
ATOM     25  C   UNL     1       5.385   2.814  61.483  0.00  0.00    +0.000 A 
ATOM     26  C   UNL     1       8.123   3.034  58.346  0.00  0.00    +0.000 C 
ATOM     27  C   UNL     1       6.258   4.913  58.346  0.00  0.00    +0.000 C 
ATOM     28  C   UNL     1       7.460   4.197  57.790  0.00  0.00    +0.000 C 
ATOM     29  C   UNL     1       7.593   1.456  60.332  0.00  0.00    +0.000 A 
ATOM     30  C   UNL     1       5.850   1.567  62.151  0.00  0.00    +0.000 A 
ATOM     31  C   UNL     1       5.562   5.875  60.499  0.00  0.00    +0.000 C 
ATOM     32  C   UNL     1       3.977   4.399  59.090  0.00  0.00    +0.000 C 
ATOM     33  C   UNL     1       6.854   1.005  61.558  0.00  0.00    +0.000 A 
ATOM     34  C   UNL     1       9.582   3.283  58.704  0.00  0.00    +0.000 C 
ATOM     35  C   UNL     1       5.357   1.027  63.461  0.00  0.00    +0.000 C 
BRANCH  26  36
ATOM     36  O   UNL     1       8.100   1.985  57.413  0.00  0.00    +0.000 OA
ATOM     37  H   UNL     1       7.389   2.284  56.816  0.00  0.00    +0.000 HD
ENDBRANCH  26  36
ENDBRANCH  21  25
ENDBRANCH   3  20
TORSDOF 5
ENDMDL
MODEL 5
REMARK VINA RESULT:      -4.6     14.704     17.287
REMARK  Name = 44234954_SipholenolL.pdbqt.pdb
REMARK  5 active torsions:
REMARK  status: ('A' for Active; 'I' for Inactive)
REMARK    1  A    between atoms: C_3  and  C_20
REMARK    2  A    between atoms: C_4  and  O_16
REMARK    3  A    between atoms: C_13  and  O_18
REMARK    4  A    between atoms: C_21  and  C_25
REMARK    5  A    between atoms: C_26  and  O_36
REMARK                            x       y       z     vdW  Elec       q    Type
REMARK                         _______ _______ _______ _____ _____    ______ ____
ROOT
ATOM      1  O   UNL     1      12.177  -3.988  52.550  0.00  0.00    +0.000 OA
ATOM      2  C   UNL     1      14.370  -3.137  53.673  0.00  0.00    +0.000 C 
ATOM      3  C   UNL     1      14.902  -2.229  54.784  0.00  0.00    +0.000 C 
ATOM      4  C   UNL     1      14.285  -2.301  56.169  0.00  0.00    +0.000 C 
ATOM      5  C   UNL     1      12.793  -3.354  53.634  0.00  0.00    +0.000 C 
ATOM      6  C   UNL     1      14.603  -2.543  52.348  0.00  0.00    +0.000 C 
ATOM      7  C   UNL     1      12.928  -2.800  56.044  0.00  0.00    +0.000 C 
ATOM      8  C   UNL     1      12.140  -3.307  54.882  0.00  0.00    +0.000 C 
ATOM      9  C   UNL     1      15.052  -4.527  53.759  0.00  0.00    +0.000 C 
ATOM     10  C   UNL     1      13.912  -2.315  51.027  0.00  0.00    +0.000 C 
ATOM     11  C   UNL     1      11.552  -3.179  51.491  0.00  0.00    +0.000 C 
ATOM     12  C   UNL     1      15.155  -3.090  57.144  0.00  0.00    +0.000 C 
ATOM     13  C   UNL     1      12.616  -2.563  50.521  0.00  0.00    +0.000 C 
ATOM     14  C   UNL     1      10.652  -4.160  50.692  0.00  0.00    +0.000 C 
ATOM     15  C   UNL     1      10.699  -2.022  52.098  0.00  0.00    +0.000 C 
ENDROOT
BRANCH   4  16
ATOM     16  O   UNL     1      14.226  -0.997  56.708  0.00  0.00    +0.000 OA
ATOM     17  H   UNL     1      15.105  -0.933  57.127  0.00  0.00    +0.000 HD
ENDBRANCH   4  16
BRANCH  13  18
ATOM     18  O   UNL     1      12.268  -2.054  49.276  0.00  0.00    +0.000 OA
ATOM     19  H   UNL     1      11.682  -2.652  48.780  0.00  0.00    +0.000 HD
ENDBRANCH  13  18
BRANCH   3  20
ATOM     20  C   UNL     1      16.019  -1.355  54.550  0.00  0.00    +0.000 C 
ATOM     21  C   UNL     1      17.202  -0.407  54.330  0.00  0.00    +0.000 C 
BRANCH  21  25
ATOM     22  C   UNL     1      18.375   1.444  52.966  0.00  0.00    +0.000 A 
ATOM     23  C   UNL     1      19.591   2.441  52.835  0.00  0.00    +0.000 A 
ATOM     24  C   UNL     1      17.229   1.380  51.873  0.00  0.00    +0.000 C 
ATOM     25  C   UNL     1      18.307   0.487  54.176  0.00  0.00    +0.000 A 
ATOM     26  C   UNL     1      19.848   3.493  51.732  0.00  0.00    +0.000 C 
ATOM     27  C   UNL     1      17.610   2.375  50.866  0.00  0.00    +0.000 C 
ATOM     28  C   UNL     1      18.773   3.326  50.773  0.00  0.00    +0.000 C 
ATOM     29  C   UNL     1      20.522   2.236  53.896  0.00  0.00    +0.000 A 
ATOM     30  C   UNL     1      19.367   0.427  55.220  0.00  0.00    +0.000 A 
ATOM     31  C   UNL     1      15.879   1.789  52.510  0.00  0.00    +0.000 C 
ATOM     32  C   UNL     1      17.199  -0.018  51.220  0.00  0.00    +0.000 C 
ATOM     33  C   UNL     1      20.345   1.249  55.012  0.00  0.00    +0.000 A 
ATOM     34  C   UNL     1      19.928   4.898  52.314  0.00  0.00    +0.000 C 
ATOM     35  C   UNL     1      19.316  -0.370  56.490  0.00  0.00    +0.000 C 
BRANCH  26  36
ATOM     36  O   UNL     1      21.080   3.232  51.111  0.00  0.00    +0.000 OA
ATOM     37  H   UNL     1      21.612   3.985  51.430  0.00  0.00    +0.000 HD
ENDBRANCH  26  36
ENDBRANCH  21  25
ENDBRANCH   3  20
TORSDOF 5
ENDMDL
MODEL 6
REMARK VINA RESULT:      -4.5      6.176     10.594
REMARK  Name = 44234954_SipholenolL.pdbqt.pdb
REMARK  5 active torsions:
REMARK  status: ('A' for Active; 'I' for Inactive)
REMARK    1  A    between atoms: C_3  and  C_20
REMARK    2  A    between atoms: C_4  and  O_16
REMARK    3  A    between atoms: C_13  and  O_18
REMARK    4  A    between atoms: C_21  and  C_25
REMARK    5  A    between atoms: C_26  and  O_36
REMARK                            x       y       z     vdW  Elec       q    Type
REMARK                         _______ _______ _______ _____ _____    ______ ____
ROOT
ATOM      1  O   UNL     1       4.340  -2.664  68.799  0.00  0.00    +0.000 OA
ATOM      2  C   UNL     1       2.683  -0.828  67.977  0.00  0.00    +0.000 C 
ATOM      3  C   UNL     1       2.609   0.612  67.464  0.00  0.00    +0.000 C 
ATOM      4  C   UNL     1       3.569   1.070  66.381  0.00  0.00    +0.000 C 
ATOM      5  C   UNL     1       4.141  -1.443  68.148  0.00  0.00    +0.000 C 
ATOM      6  C   UNL     1       2.176  -0.925  69.354  0.00  0.00    +0.000 C 
ATOM      7  C   UNL     1       4.757   0.238  66.435  0.00  0.00    +0.000 C 
ATOM      8  C   UNL     1       5.114  -0.962  67.248  0.00  0.00    +0.000 C 
ATOM      9  C   UNL     1       1.866  -1.760  67.044  0.00  0.00    +0.000 C 
ATOM     10  C   UNL     1       2.498  -1.567  70.680  0.00  0.00    +0.000 C 
ATOM     11  C   UNL     1       4.753  -2.678  70.213  0.00  0.00    +0.000 C 
ATOM     12  C   UNL     1       2.903   1.124  65.010  0.00  0.00    +0.000 C 
ATOM     13  C   UNL     1       3.558  -2.363  71.174  0.00  0.00    +0.000 C 
ATOM     14  C   UNL     1       5.252  -4.122  70.488  0.00  0.00    +0.000 C 
ATOM     15  C   UNL     1       5.891  -1.644  70.475  0.00  0.00    +0.000 C 
ENDROOT
BRANCH   4  16
ATOM     16  O   UNL     1       3.955   2.403  66.651  0.00  0.00    +0.000 OA
ATOM     17  H   UNL     1       3.123   2.875  66.459  0.00  0.00    +0.000 HD
ENDBRANCH   4  16
BRANCH  13  18
ATOM     18  O   UNL     1       3.613  -2.644  72.533  0.00  0.00    +0.000 OA
ATOM     19  H   UNL     1       3.989  -3.524  72.716  0.00  0.00    +0.000 HD
ENDBRANCH  13  18
BRANCH   3  20
ATOM     20  C   UNL     1       1.603   1.516  67.949  0.00  0.00    +0.000 C 
ATOM     21  C   UNL     1       0.513   2.478  68.434  0.00  0.00    +0.000 C 
BRANCH  21  25
ATOM     22  C   UNL     1      -0.700   4.743  68.187  0.00  0.00    +0.000 A 
ATOM     23  C   UNL     1      -1.882   5.683  68.645  0.00  0.00    +0.000 A 
ATOM     24  C   UNL     1       0.338   5.191  67.076  0.00  0.00    +0.000 C 
ATOM     25  C   UNL     1      -0.533   3.359  68.850  0.00  0.00    +0.000 A 
ATOM     26  C   UNL     1      -2.250   7.085  68.106  0.00  0.00    +0.000 C 
ATOM     27  C   UNL     1      -0.081   6.541  66.689  0.00  0.00    +0.000 C 
ATOM     28  C   UNL     1      -1.225   7.412  67.133  0.00  0.00    +0.000 C 
ATOM     29  C   UNL     1      -2.612   5.084  69.714  0.00  0.00    +0.000 A 
ATOM     30  C   UNL     1      -1.418   2.875  69.946  0.00  0.00    +0.000 A 
ATOM     31  C   UNL     1       0.229   4.250  65.852  0.00  0.00    +0.000 C 
ATOM     32  C   UNL     1       1.759   5.253  67.676  0.00  0.00    +0.000 C 
ATOM     33  C   UNL     1      -2.333   3.726  70.286  0.00  0.00    +0.000 A 
ATOM     34  C   UNL     1      -3.659   7.106  67.532  0.00  0.00    +0.000 C 
ATOM     35  C   UNL     1      -1.412   1.501  70.550  0.00  0.00    +0.000 C 
BRANCH  26  36
ATOM     36  O   UNL     1      -2.217   8.016  69.157  0.00  0.00    +0.000 OA
ATOM     37  H   UNL     1      -1.288   7.942  69.442  0.00  0.00    +0.000 HD
ENDBRANCH  26  36
ENDBRANCH  21  25
ENDBRANCH   3  20
TORSDOF 5
ENDMDL
MODEL 7
REMARK VINA RESULT:      -4.4     14.765     18.428
REMARK  Name = 44234954_SipholenolL.pdbqt.pdb
REMARK  5 active torsions:
REMARK  status: ('A' for Active; 'I' for Inactive)
REMARK    1  A    between atoms: C_3  and  C_20
REMARK    2  A    between atoms: C_4  and  O_16
REMARK    3  A    between atoms: C_13  and  O_18
REMARK    4  A    between atoms: C_21  and  C_25
REMARK    5  A    between atoms: C_26  and  O_36
REMARK                            x       y       z     vdW  Elec       q    Type
REMARK                         _______ _______ _______ _____ _____    ______ ____
ROOT
ATOM      1  O   UNL     1      13.101  -3.439  50.307  0.00  0.00    +0.000 OA
ATOM      2  C   UNL     1      14.628  -2.448  52.172  0.00  0.00    +0.000 C 
ATOM      3  C   UNL     1      14.748  -1.293  53.169  0.00  0.00    +0.000 C 
ATOM      4  C   UNL     1      13.552  -0.915  54.023  0.00  0.00    +0.000 C 
ATOM      5  C   UNL     1      13.250  -2.558  51.383  0.00  0.00    +0.000 C 
ATOM      6  C   UNL     1      15.575  -2.285  51.058  0.00  0.00    +0.000 C 
ATOM      7  C   UNL     1      12.344  -1.334  53.337  0.00  0.00    +0.000 C 
ATOM      8  C   UNL     1      12.111  -2.104  52.079  0.00  0.00    +0.000 C 
ATOM      9  C   UNL     1      14.887  -3.795  52.895  0.00  0.00    +0.000 C 
ATOM     10  C   UNL     1      15.652  -2.406  49.557  0.00  0.00    +0.000 C 
ATOM     11  C   UNL     1      13.231  -2.934  48.929  0.00  0.00    +0.000 C 
ATOM     12  C   UNL     1      13.676  -1.442  55.450  0.00  0.00    +0.000 C 
ATOM     13  C   UNL     1      14.727  -2.702  48.530  0.00  0.00    +0.000 C 
ATOM     14  C   UNL     1      12.633  -4.042  48.020  0.00  0.00    +0.000 C 
ATOM     15  C   UNL     1      12.451  -1.594  48.747  0.00  0.00    +0.000 C 
ENDROOT
BRANCH   4  16
ATOM     16  O   UNL     1      13.516   0.491  54.156  0.00  0.00    +0.000 OA
ATOM     17  H   UNL     1      12.757   0.709  53.583  0.00  0.00    +0.000 HD
ENDBRANCH   4  16
BRANCH  13  18
ATOM     18  O   UNL     1      15.120  -2.557  47.205  0.00  0.00    +0.000 OA
ATOM     19  H   UNL     1      14.756  -1.753  46.795  0.00  0.00    +0.000 HD
ENDBRANCH  13  18
BRANCH   3  20
ATOM     20  C   UNL     1      15.997  -0.605  53.352  0.00  0.00    +0.000 C 
ATOM     21  C   UNL     1      17.315   0.155  53.525  0.00  0.00    +0.000 C 
BRANCH  21  25
ATOM     22  C   UNL     1      18.937   1.939  52.600  0.00  0.00    +0.000 A 
ATOM     23  C   UNL     1      20.259   2.775  52.802  0.00  0.00    +0.000 A 
ATOM     24  C   UNL     1      18.028   2.113  51.313  0.00  0.00    +0.000 C 
ATOM     25  C   UNL     1      18.523   0.907  53.672  0.00  0.00    +0.000 A 
ATOM     26  C   UNL     1      20.846   3.869  51.880  0.00  0.00    +0.000 C 
ATOM     27  C   UNL     1      18.712   3.125  50.502  0.00  0.00    +0.000 C 
ATOM     28  C   UNL     1      19.970   3.920  50.725  0.00  0.00    +0.000 C 
ATOM     29  C   UNL     1      20.933   2.367  53.990  0.00  0.00    +0.000 A 
ATOM     30  C   UNL     1      19.342   0.627  54.883  0.00  0.00    +0.000 A 
ATOM     31  C   UNL     1      16.635   2.643  51.726  0.00  0.00    +0.000 C 
ATOM     32  C   UNL     1      17.971   0.786  50.525  0.00  0.00    +0.000 C 
ATOM     33  C   UNL     1      20.429   1.327  54.947  0.00  0.00    +0.000 A 
ATOM     34  C   UNL     1      20.969   5.201  52.607  0.00  0.00    +0.000 C 
ATOM     35  C   UNL     1      18.951  -0.254  56.033  0.00  0.00    +0.000 C 
BRANCH  26  36
ATOM     36  O   UNL     1      22.139   3.499  51.475  0.00  0.00    +0.000 OA
ATOM     37  H   UNL     1      22.001   3.359  50.520  0.00  0.00    +0.000 HD
ENDBRANCH  26  36
ENDBRANCH  21  25
ENDBRANCH   3  20
TORSDOF 5
ENDMDL
MODEL 8
REMARK VINA RESULT:      -4.4      2.043      4.565
REMARK  Name = 44234954_SipholenolL.pdbqt.pdb
REMARK  5 active torsions:
REMARK  status: ('A' for Active; 'I' for Inactive)
REMARK    1  A    between atoms: C_3  and  C_20
REMARK    2  A    between atoms: C_4  and  O_16
REMARK    3  A    between atoms: C_13  and  O_18
REMARK    4  A    between atoms: C_21  and  C_25
REMARK    5  A    between atoms: C_26  and  O_36
REMARK                            x       y       z     vdW  Elec       q    Type
REMARK                         _______ _______ _______ _____ _____    ______ ____
ROOT
ATOM      1  O   UNL     1      -0.146   4.312  67.013  0.00  0.00    +0.000 OA
ATOM      2  C   UNL     1       1.323   6.376  66.404  0.00  0.00    +0.000 C 
ATOM      3  C   UNL     1       1.270   7.777  65.791  0.00  0.00    +0.000 C 
ATOM      4  C   UNL     1       0.187   8.746  66.231  0.00  0.00    +0.000 C 
ATOM      5  C   UNL     1      -0.077   5.661  66.654  0.00  0.00    +0.000 C 
ATOM      6  C   UNL     1       1.964   5.421  65.487  0.00  0.00    +0.000 C 
ATOM      7  C   UNL     1      -0.944   7.981  66.724  0.00  0.00    +0.000 C 
ATOM      8  C   UNL     1      -1.156   6.520  66.945  0.00  0.00    +0.000 C 
ATOM      9  C   UNL     1       2.095   6.421  67.749  0.00  0.00    +0.000 C 
ATOM     10  C   UNL     1       1.806   4.020  64.954  0.00  0.00    +0.000 C 
ATOM     11  C   UNL     1      -0.420   3.296  65.982  0.00  0.00    +0.000 C 
ATOM     12  C   UNL     1       0.714   9.788  67.212  0.00  0.00    +0.000 C 
ATOM     13  C   UNL     1       0.843   2.996  65.107  0.00  0.00    +0.000 C 
ATOM     14  C   UNL     1      -0.813   2.009  66.758  0.00  0.00    +0.000 C 
ATOM     15  C   UNL     1      -1.582   3.748  65.044  0.00  0.00    +0.000 C 
ENDROOT
BRANCH   4  16
ATOM     16  O   UNL     1      -0.242   9.488  65.107  0.00  0.00    +0.000 OA
ATOM     17  H   UNL     1       0.469  10.153  65.046  0.00  0.00    +0.000 HD
ENDBRANCH   4  16
BRANCH  13  18
ATOM     18  O   UNL     1       0.934   1.861  64.311  0.00  0.00    +0.000 OA
ATOM     19  H   UNL     1       0.160   1.751  63.730  0.00  0.00    +0.000 HD
ENDBRANCH  13  18
BRANCH   3  20
ATOM     20  C   UNL     1       2.268   8.208  64.851  0.00  0.00    +0.000 C 
ATOM     21  C   UNL     1       3.354   8.677  63.877  0.00  0.00    +0.000 C 
BRANCH  21  25
ATOM     22  C   UNL     1       4.929   8.176  61.893  0.00  0.00    +0.000 A 
ATOM     23  C   UNL     1       6.065   8.689  60.927  0.00  0.00    +0.000 A 
ATOM     24  C   UNL     1       4.327   6.714  61.770  0.00  0.00    +0.000 C 
ATOM     25  C   UNL     1       4.401   9.109  63.005  0.00  0.00    +0.000 A 
ATOM     26  C   UNL     1       6.719   7.942  59.741  0.00  0.00    +0.000 C 
ATOM     27  C   UNL     1       5.058   6.097  60.659  0.00  0.00    +0.000 C 
ATOM     28  C   UNL     1       6.132   6.617  59.741  0.00  0.00    +0.000 C 
ATOM     29  C   UNL     1       6.490   9.997  61.304  0.00  0.00    +0.000 A 
ATOM     30  C   UNL     1       4.946  10.474  63.240  0.00  0.00    +0.000 A 
ATOM     31  C   UNL     1       2.824   6.798  61.410  0.00  0.00    +0.000 C 
ATOM     32  C   UNL     1       4.605   5.919  63.064  0.00  0.00    +0.000 C 
ATOM     33  C   UNL     1       5.901  10.798  62.428  0.00  0.00    +0.000 A 
ATOM     34  C   UNL     1       6.518   8.694  58.433  0.00  0.00    +0.000 C 
ATOM     35  C   UNL     1       4.405  11.491  64.202  0.00  0.00    +0.000 C 
BRANCH  26  36
ATOM     36  O   UNL     1       8.104   7.845  59.953  0.00  0.00    +0.000 OA
ATOM     37  H   UNL     1       8.151   7.046  60.508  0.00  0.00    +0.000 HD
ENDBRANCH  26  36
ENDBRANCH  21  25
ENDBRANCH   3  20
TORSDOF 5
ENDMDL
MODEL 9
REMARK VINA RESULT:      -4.2      2.629      5.589
REMARK  Name = 44234954_SipholenolL.pdbqt.pdb
REMARK  5 active torsions:
REMARK  status: ('A' for Active; 'I' for Inactive)
REMARK    1  A    between atoms: C_3  and  C_20
REMARK    2  A    between atoms: C_4  and  O_16
REMARK    3  A    between atoms: C_13  and  O_18
REMARK    4  A    between atoms: C_21  and  C_25
REMARK    5  A    between atoms: C_26  and  O_36
REMARK                            x       y       z     vdW  Elec       q    Type
REMARK                         _______ _______ _______ _____ _____    ______ ____
ROOT
ATOM      1  O   UNL     1      -0.209   4.701  65.966  0.00  0.00    +0.000 OA
ATOM      2  C   UNL     1       1.562   6.530  65.411  0.00  0.00    +0.000 C 
ATOM      3  C   UNL     1       1.746   7.888  64.731  0.00  0.00    +0.000 C 
ATOM      4  C   UNL     1       0.760   9.007  65.014  0.00  0.00    +0.000 C 
ATOM      5  C   UNL     1       0.065   6.008  65.553  0.00  0.00    +0.000 C 
ATOM      6  C   UNL     1       2.159   5.451  64.609  0.00  0.00    +0.000 C 
ATOM      7  C   UNL     1      -0.500   8.417  65.427  0.00  0.00    +0.000 C 
ATOM      8  C   UNL     1      -0.918   7.009  65.694  0.00  0.00    +0.000 C 
ATOM      9  C   UNL     1       2.205   6.559  66.822  0.00  0.00    +0.000 C 
ATOM     10  C   UNL     1       1.873   4.050  64.129  0.00  0.00    +0.000 C 
ATOM     11  C   UNL     1      -0.513   3.667  64.962  0.00  0.00    +0.000 C 
ATOM     12  C   UNL     1       1.322  10.032  65.993  0.00  0.00    +0.000 C 
ATOM     13  C   UNL     1       0.777   3.163  64.232  0.00  0.00    +0.000 C 
ATOM     14  C   UNL     1      -1.138   2.487  65.753  0.00  0.00    +0.000 C 
ATOM     15  C   UNL     1      -1.516   4.202  63.892  0.00  0.00    +0.000 C 
ENDROOT
BRANCH   4  16
ATOM     16  O   UNL     1       0.536   9.728  63.820  0.00  0.00    +0.000 OA
ATOM     17  H   UNL     1       1.329  10.296  63.799  0.00  0.00    +0.000 HD
ENDBRANCH   4  16
BRANCH  13  18
ATOM     18  O   UNL     1       0.795   1.980  63.503  0.00  0.00    +0.000 OA
ATOM     19  H   UNL     1       0.072   1.933  62.854  0.00  0.00    +0.000 HD
ENDBRANCH  13  18
BRANCH   3  20
ATOM     20  C   UNL     1       2.875   8.137  63.876  0.00  0.00    +0.000 C 
ATOM     21  C   UNL     1       4.084   8.368  62.965  0.00  0.00    +0.000 C 
BRANCH  21  25
ATOM     22  C   UNL     1       5.776   9.942  61.813  0.00  0.00    +0.000 A 
ATOM     23  C   UNL     1       7.038  10.094  60.879  0.00  0.00    +0.000 A 
ATOM     24  C   UNL     1       5.054  11.201  62.450  0.00  0.00    +0.000 C 
ATOM     25  C   UNL     1       5.211   8.534  62.101  0.00  0.00    +0.000 A 
ATOM     26  C   UNL     1       7.779  11.391  60.480  0.00  0.00    +0.000 C 
ATOM     27  C   UNL     1       5.808  12.359  61.958  0.00  0.00    +0.000 C 
ATOM     28  C   UNL     1       7.022  12.474  61.076  0.00  0.00    +0.000 C 
ATOM     29  C   UNL     1       7.438   8.824  60.368  0.00  0.00    +0.000 A 
ATOM     30  C   UNL     1       5.780   7.296  61.499  0.00  0.00    +0.000 A 
ATOM     31  C   UNL     1       5.160  11.139  63.992  0.00  0.00    +0.000 C 
ATOM     32  C   UNL     1       3.600  11.290  61.939  0.00  0.00    +0.000 C 
ATOM     33  C   UNL     1       6.787   7.517  60.715  0.00  0.00    +0.000 A 
ATOM     34  C   UNL     1       9.236  11.355  60.920  0.00  0.00    +0.000 C 
ATOM     35  C   UNL     1       5.383   5.887  61.827  0.00  0.00    +0.000 C 
BRANCH  26  36
ATOM     36  O   UNL     1       7.773  11.524  59.081  0.00  0.00    +0.000 OA
ATOM     37  H   UNL     1       6.909  11.951  58.940  0.00  0.00    +0.000 HD
ENDBRANCH  26  36
ENDBRANCH  21  25
ENDBRANCH   3  20
TORSDOF 5
ENDMDL
