MODEL 1
REMARK VINA RESULT:      -3.6      0.000      0.000
REMARK  Name = 442793_6gingerol.pdbqt.pdb
REMARK  7 active torsions:
REMARK  status: ('A' for Active; 'I' for Inactive)
REMARK    1  A    between atoms: C_1  and  C_3
REMARK    2  A    between atoms: C_5  and  O_6
REMARK    3  A    between atoms: C_5  and  C_8
REMARK    4  A    between atoms: C_9  and  C_10
REMARK    5  A    between atoms: C_13  and  C_14
REMARK    6  A    between atoms: C_17  and  O_20
REMARK    7  A    between atoms: C_19  and  O_22
REMARK                            x       y       z     vdW  Elec       q    Type
REMARK                         _______ _______ _______ _____ _____    ______ ____
ROOT
ATOM      1  C   UNL     1      17.670   9.510  66.618  0.00  0.00    +0.000 C 
ATOM      2  C   UNL     1      18.334   9.214  65.267  0.00  0.00    +0.000 C 
ENDROOT
BRANCH   2   3
ATOM      3  C   UNL     1      18.950   8.936  64.014  0.00  0.00    +0.000 A 
ATOM      4  C   UNL     1      18.459   9.530  62.853  0.00  0.00    +0.000 A 
ATOM      5  C   UNL     1      20.040   8.072  63.953  0.00  0.00    +0.000 A 
ATOM      6  C   UNL     1      19.052   9.266  61.615  0.00  0.00    +0.000 A 
ATOM      7  C   UNL     1      20.641   7.801  62.726  0.00  0.00    +0.000 A 
ATOM      8  C   UNL     1      20.146   8.396  61.567  0.00  0.00    +0.000 A 
BRANCH   6   9
ATOM      9  O   UNL     1      18.632   9.806  60.424  0.00  0.00    +0.000 OA
ATOM     10  C   UNL     1      17.260   9.691  60.157  0.00  0.00    +0.000 C 
ENDBRANCH   6   9
BRANCH   8  11
ATOM     11  O   UNL     1      20.741   8.126  60.366  0.00  0.00    +0.000 OA
ATOM     12  H   UNL     1      20.203   7.465  59.892  0.00  0.00    +0.000 HD
ENDBRANCH   8  11
ENDBRANCH   2   3
BRANCH   1  14
ATOM     13  O   UNL     1      17.656  10.392  68.756  0.00  0.00    +0.000 OA
ATOM     14  C   UNL     1      17.047   9.786  67.888  0.00  0.00    +0.000 C 
ATOM     15  C   UNL     1      15.702   9.339  68.126  0.00  0.00    +0.000 C 
ATOM     16  C   UNL     1      14.382   8.901  68.367  0.00  0.00    +0.000 C 
BRANCH  16  17
ATOM     17  O   UNL     1      13.655   8.463  67.286  0.00  0.00    +0.000 OA
ATOM     18  H   UNL     1      13.625   9.128  66.577  0.00  0.00    +0.000 HD
ENDBRANCH  16  17
BRANCH  16  19
ATOM     19  C   UNL     1      13.781   8.888  69.649  0.00  0.00    +0.000 C 
ATOM     20  C   UNL     1      13.125   8.884  71.034  0.00  0.00    +0.000 C 
BRANCH  20  21
ATOM     21  C   UNL     1      12.469   8.885  72.418  0.00  0.00    +0.000 C 
ATOM     22  C   UNL     1      11.814   8.886  73.803  0.00  0.00    +0.000 C 
ATOM     23  C   UNL     1      11.166   8.888  75.191  0.00  0.00    +0.000 C 
ENDBRANCH  20  21
ENDBRANCH  16  19
ENDBRANCH   1  14
TORSDOF 7
ENDMDL
MODEL 2
REMARK VINA RESULT:      -3.6      6.919     12.282
REMARK  Name = 442793_6gingerol.pdbqt.pdb
REMARK  7 active torsions:
REMARK  status: ('A' for Active; 'I' for Inactive)
REMARK    1  A    between atoms: C_1  and  C_3
REMARK    2  A    between atoms: C_5  and  O_6
REMARK    3  A    between atoms: C_5  and  C_8
REMARK    4  A    between atoms: C_9  and  C_10
REMARK    5  A    between atoms: C_13  and  C_14
REMARK    6  A    between atoms: C_17  and  O_20
REMARK    7  A    between atoms: C_19  and  O_22
REMARK                            x       y       z     vdW  Elec       q    Type
REMARK                         _______ _______ _______ _____ _____    ______ ____
ROOT
ATOM      1  C   UNL     1      12.787  12.321  60.372  0.00  0.00    +0.000 C 
ATOM      2  C   UNL     1      11.528  12.530  61.223  0.00  0.00    +0.000 C 
ENDROOT
BRANCH   2   3
ATOM      3  C   UNL     1      10.359  12.722  62.013  0.00  0.00    +0.000 A 
ATOM      4  C   UNL     1       9.131  12.242  61.562  0.00  0.00    +0.000 A 
ATOM      5  C   UNL     1      10.447  13.387  63.233  0.00  0.00    +0.000 A 
ATOM      6  C   UNL     1       7.975  12.423  62.326  0.00  0.00    +0.000 A 
ATOM      7  C   UNL     1       9.303  13.574  64.004  0.00  0.00    +0.000 A 
ATOM      8  C   UNL     1       8.076  13.093  63.549  0.00  0.00    +0.000 A 
BRANCH   6   9
ATOM      9  O   UNL     1       6.726  11.984  61.958  0.00  0.00    +0.000 OA
ATOM     10  C   UNL     1       6.278  12.418  60.701  0.00  0.00    +0.000 C 
ENDBRANCH   6   9
BRANCH   8  11
ATOM     11  O   UNL     1       6.957  13.280  64.312  0.00  0.00    +0.000 OA
ATOM     12  H   UNL     1       6.187  13.371  63.720  0.00  0.00    +0.000 HD
ENDBRANCH   8  11
ENDBRANCH   2   3
BRANCH   1  14
ATOM     13  O   UNL     1      14.043  12.597  58.450  0.00  0.00    +0.000 OA
ATOM     14  C   UNL     1      13.970  12.121  59.573  0.00  0.00    +0.000 C 
ATOM     15  C   UNL     1      15.062  11.356  60.106  0.00  0.00    +0.000 C 
ATOM     16  C   UNL     1      16.138  10.603  60.625  0.00  0.00    +0.000 C 
BRANCH  16  17
ATOM     17  O   UNL     1      16.119  10.318  61.969  0.00  0.00    +0.000 OA
ATOM     18  H   UNL     1      16.315  11.103  62.509  0.00  0.00    +0.000 HD
ENDBRANCH  16  17
BRANCH  16  19
ATOM     19  C   UNL     1      17.218  10.134  59.839  0.00  0.00    +0.000 C 
ATOM     20  C   UNL     1      18.382   9.617  58.986  0.00  0.00    +0.000 C 
BRANCH  20  21
ATOM     21  C   UNL     1      19.543   9.096  58.134  0.00  0.00    +0.000 C 
ATOM     22  C   UNL     1      20.703   8.572  57.281  0.00  0.00    +0.000 C 
ATOM     23  C   UNL     1      21.859   8.041  56.428  0.00  0.00    +0.000 C 
ENDBRANCH  20  21
ENDBRANCH  16  19
ENDBRANCH   1  14
TORSDOF 7
ENDMDL
MODEL 3
REMARK VINA RESULT:      -3.6      6.243      7.681
REMARK  Name = 442793_6gingerol.pdbqt.pdb
REMARK  7 active torsions:
REMARK  status: ('A' for Active; 'I' for Inactive)
REMARK    1  A    between atoms: C_1  and  C_3
REMARK    2  A    between atoms: C_5  and  O_6
REMARK    3  A    between atoms: C_5  and  C_8
REMARK    4  A    between atoms: C_9  and  C_10
REMARK    5  A    between atoms: C_13  and  C_14
REMARK    6  A    between atoms: C_17  and  O_20
REMARK    7  A    between atoms: C_19  and  O_22
REMARK                            x       y       z     vdW  Elec       q    Type
REMARK                         _______ _______ _______ _____ _____    ______ ____
ROOT
ATOM      1  C   UNL     1      10.042  13.342  63.541  0.00  0.00    +0.000 C 
ATOM      2  C   UNL     1      10.901  13.051  62.303  0.00  0.00    +0.000 C 
ENDROOT
BRANCH   2   3
ATOM      3  C   UNL     1      11.697  12.778  61.155  0.00  0.00    +0.000 A 
ATOM      4  C   UNL     1      13.041  12.442  61.307  0.00  0.00    +0.000 A 
ATOM      5  C   UNL     1      11.131  12.847  59.885  0.00  0.00    +0.000 A 
ATOM      6  C   UNL     1      13.836  12.172  60.189  0.00  0.00    +0.000 A 
ATOM      7  C   UNL     1      11.911  12.581  58.763  0.00  0.00    +0.000 A 
ATOM      8  C   UNL     1      13.256  12.246  58.919  0.00  0.00    +0.000 A 
BRANCH   6   9
ATOM      9  O   UNL     1      15.167  11.836  60.248  0.00  0.00    +0.000 OA
ATOM     10  C   UNL     1      15.486  10.775  61.110  0.00  0.00    +0.000 C 
ENDBRANCH   6   9
BRANCH   8  11
ATOM     11  O   UNL     1      14.016  11.985  57.813  0.00  0.00    +0.000 OA
ATOM     12  H   UNL     1      14.487  12.801  57.558  0.00  0.00    +0.000 HD
ENDBRANCH   8  11
ENDBRANCH   2   3
BRANCH   1  14
ATOM     13  O   UNL     1       8.262  14.348  64.621  0.00  0.00    +0.000 OA
ATOM     14  C   UNL     1       9.235  13.613  64.703  0.00  0.00    +0.000 C 
ATOM     15  C   UNL     1       9.583  13.013  65.961  0.00  0.00    +0.000 C 
ATOM     16  C   UNL     1       9.923  12.427  67.200  0.00  0.00    +0.000 C 
BRANCH  16  17
ATOM     17  O   UNL     1      10.851  11.415  67.188  0.00  0.00    +0.000 OA
ATOM     18  H   UNL     1      11.750  11.747  67.360  0.00  0.00    +0.000 HD
ENDBRANCH  16  17
BRANCH  16  19
ATOM     19  C   UNL     1       9.362  12.829  68.437  0.00  0.00    +0.000 C 
ATOM     20  C   UNL     1       8.746  13.263  69.772  0.00  0.00    +0.000 C 
BRANCH  20  21
ATOM     21  C   UNL     1       8.125  13.698  71.103  0.00  0.00    +0.000 C 
ATOM     22  C   UNL     1       7.506  14.132  72.435  0.00  0.00    +0.000 C 
ATOM     23  C   UNL     1       6.893  14.568  73.770  0.00  0.00    +0.000 C 
ENDBRANCH  20  21
ENDBRANCH  16  19
ENDBRANCH   1  14
TORSDOF 7
ENDMDL
MODEL 4
REMARK VINA RESULT:      -3.5      7.285     12.025
REMARK  Name = 442793_6gingerol.pdbqt.pdb
REMARK  7 active torsions:
REMARK  status: ('A' for Active; 'I' for Inactive)
REMARK    1  A    between atoms: C_1  and  C_3
REMARK    2  A    between atoms: C_5  and  O_6
REMARK    3  A    between atoms: C_5  and  C_8
REMARK    4  A    between atoms: C_9  and  C_10
REMARK    5  A    between atoms: C_13  and  C_14
REMARK    6  A    between atoms: C_17  and  O_20
REMARK    7  A    between atoms: C_19  and  O_22
REMARK                            x       y       z     vdW  Elec       q    Type
REMARK                         _______ _______ _______ _____ _____    ______ ____
ROOT
ATOM      1  C   UNL     1      16.069  10.750  60.691  0.00  0.00    +0.000 C 
ATOM      2  C   UNL     1      14.869  11.673  60.939  0.00  0.00    +0.000 C 
ENDROOT
BRANCH   2   3
ATOM      3  C   UNL     1      13.755  12.530  61.166  0.00  0.00    +0.000 A 
ATOM      4  C   UNL     1      12.578  12.343  60.444  0.00  0.00    +0.000 A 
ATOM      5  C   UNL     1      13.845  13.551  62.108  0.00  0.00    +0.000 A 
ATOM      6  C   UNL     1      11.475  13.176  60.655  0.00  0.00    +0.000 A 
ATOM      7  C   UNL     1      12.754  14.388  62.328  0.00  0.00    +0.000 A 
ATOM      8  C   UNL     1      11.578  14.198  61.603  0.00  0.00    +0.000 A 
BRANCH   6   9
ATOM      9  O   UNL     1      10.280  13.063  59.987  0.00  0.00    +0.000 OA
ATOM     10  C   UNL     1       9.717  11.778  59.967  0.00  0.00    +0.000 C 
ENDBRANCH   6   9
BRANCH   8  11
ATOM     11  O   UNL     1      10.511  15.024  61.825  0.00  0.00    +0.000 OA
ATOM     12  H   UNL     1      10.455  15.665  61.092  0.00  0.00    +0.000 HD
ENDBRANCH   8  11
ENDBRANCH   2   3
BRANCH   1  14
ATOM     13  O   UNL     1      17.704   9.267  61.381  0.00  0.00    +0.000 OA
ATOM     14  C   UNL     1      17.194   9.881  60.456  0.00  0.00    +0.000 C 
ATOM     15  C   UNL     1      17.715   9.744  59.124  0.00  0.00    +0.000 C 
ATOM     16  C   UNL     1      18.232   9.607  57.817  0.00  0.00    +0.000 C 
BRANCH  16  17
ATOM     17  O   UNL     1      17.475  10.101  56.783  0.00  0.00    +0.000 OA
ATOM     18  H   UNL     1      17.978  10.136  55.951  0.00  0.00    +0.000 HD
ENDBRANCH  16  17
BRANCH  16  19
ATOM     19  C   UNL     1      19.476   8.996  57.526  0.00  0.00    +0.000 C 
ATOM     20  C   UNL     1      20.819   8.332  57.201  0.00  0.00    +0.000 C 
BRANCH  20  21
ATOM     21  C   UNL     1      22.158   7.667  56.871  0.00  0.00    +0.000 C 
ATOM     22  C   UNL     1      23.499   7.003  56.541  0.00  0.00    +0.000 C 
ATOM     23  C   UNL     1      24.843   6.346  56.210  0.00  0.00    +0.000 C 
ENDBRANCH  20  21
ENDBRANCH  16  19
ENDBRANCH   1  14
TORSDOF 7
ENDMDL
MODEL 5
REMARK VINA RESULT:      -3.5      6.605     10.876
REMARK  Name = 442793_6gingerol.pdbqt.pdb
REMARK  7 active torsions:
REMARK  status: ('A' for Active; 'I' for Inactive)
REMARK    1  A    between atoms: C_1  and  C_3
REMARK    2  A    between atoms: C_5  and  O_6
REMARK    3  A    between atoms: C_5  and  C_8
REMARK    4  A    between atoms: C_9  and  C_10
REMARK    5  A    between atoms: C_13  and  C_14
REMARK    6  A    between atoms: C_17  and  O_20
REMARK    7  A    between atoms: C_19  and  O_22
REMARK                            x       y       z     vdW  Elec       q    Type
REMARK                         _______ _______ _______ _____ _____    ______ ____
ROOT
ATOM      1  C   UNL     1      19.100   8.720  55.897  0.00  0.00    +0.000 C 
ATOM      2  C   UNL     1      18.777   8.641  54.400  0.00  0.00    +0.000 C 
ENDROOT
BRANCH   2   3
ATOM      3  C   UNL     1      18.479   8.566  53.009  0.00  0.00    +0.000 A 
ATOM      4  C   UNL     1      18.420   7.325  52.378  0.00  0.00    +0.000 A 
ATOM      5  C   UNL     1      18.249   9.733  52.285  0.00  0.00    +0.000 A 
ATOM      6  C   UNL     1      18.130   7.236  51.014  0.00  0.00    +0.000 A 
ATOM      7  C   UNL     1      17.959   9.658  50.925  0.00  0.00    +0.000 A 
ATOM      8  C   UNL     1      17.901   8.414  50.297  0.00  0.00    +0.000 A 
BRANCH   6   9
ATOM      9  O   UNL     1      18.052   6.056  50.314  0.00  0.00    +0.000 OA
ATOM     10  C   UNL     1      18.713   4.963  50.895  0.00  0.00    +0.000 C 
ENDBRANCH   6   9
BRANCH   8  11
ATOM     11  O   UNL     1      17.615   8.349  48.962  0.00  0.00    +0.000 OA
ATOM     12  H   UNL     1      16.947   9.027  48.751  0.00  0.00    +0.000 HD
ENDBRANCH   8  11
ENDBRANCH   2   3
BRANCH   1  14
ATOM     13  O   UNL     1      20.407   8.248  57.746  0.00  0.00    +0.000 OA
ATOM     14  C   UNL     1      19.406   8.792  57.303  0.00  0.00    +0.000 C 
ATOM     15  C   UNL     1      18.523   9.506  58.183  0.00  0.00    +0.000 C 
ATOM     16  C   UNL     1      17.657  10.205  59.052  0.00  0.00    +0.000 C 
BRANCH  16  17
ATOM     17  O   UNL     1      16.702  11.010  58.480  0.00  0.00    +0.000 OA
ATOM     18  H   UNL     1      16.999  11.935  58.416  0.00  0.00    +0.000 HD
ENDBRANCH  16  17
BRANCH  16  19
ATOM     19  C   UNL     1      17.723  10.116  60.464  0.00  0.00    +0.000 C 
ATOM     20  C   UNL     1      17.794  10.010  61.991  0.00  0.00    +0.000 C 
BRANCH  20  21
ATOM     21  C   UNL     1      17.864   9.898  63.517  0.00  0.00    +0.000 C 
ATOM     22  C   UNL     1      17.935   9.786  65.043  0.00  0.00    +0.000 C 
ATOM     23  C   UNL     1      18.014   9.676  66.569  0.00  0.00    +0.000 C 
ENDBRANCH  20  21
ENDBRANCH  16  19
ENDBRANCH   1  14
TORSDOF 7
ENDMDL
MODEL 6
REMARK VINA RESULT:      -3.5      8.702     14.390
REMARK  Name = 442793_6gingerol.pdbqt.pdb
REMARK  7 active torsions:
REMARK  status: ('A' for Active; 'I' for Inactive)
REMARK    1  A    between atoms: C_1  and  C_3
REMARK    2  A    between atoms: C_5  and  O_6
REMARK    3  A    between atoms: C_5  and  C_8
REMARK    4  A    between atoms: C_9  and  C_10
REMARK    5  A    between atoms: C_13  and  C_14
REMARK    6  A    between atoms: C_17  and  O_20
REMARK    7  A    between atoms: C_19  and  O_22
REMARK                            x       y       z     vdW  Elec       q    Type
REMARK                         _______ _______ _______ _____ _____    ______ ____
ROOT
ATOM      1  C   UNL     1      14.716  12.642  56.780  0.00  0.00    +0.000 C 
ATOM      2  C   UNL     1      14.042  12.829  58.145  0.00  0.00    +0.000 C 
ENDROOT
BRANCH   2   3
ATOM      3  C   UNL     1      13.414  13.003  59.411  0.00  0.00    +0.000 A 
ATOM      4  C   UNL     1      12.268  12.274  59.724  0.00  0.00    +0.000 A 
ATOM      5  C   UNL     1      13.945  13.902  60.331  0.00  0.00    +0.000 A 
ATOM      6  C   UNL     1      11.640  12.435  60.962  0.00  0.00    +0.000 A 
ATOM      7  C   UNL     1      13.330  14.073  61.569  0.00  0.00    +0.000 A 
ATOM      8  C   UNL     1      12.184  13.341  61.877  0.00  0.00    +0.000 A 
BRANCH   6   9
ATOM      9  O   UNL     1      10.510  11.758  61.351  0.00  0.00    +0.000 OA
ATOM     10  C   UNL     1       9.493  11.673  60.388  0.00  0.00    +0.000 C 
ENDBRANCH   6   9
BRANCH   8  11
ATOM     11  O   UNL     1      11.584  13.513  63.094  0.00  0.00    +0.000 OA
ATOM     12  H   UNL     1      12.150  14.087  63.643  0.00  0.00    +0.000 HD
ENDBRANCH   8  11
ENDBRANCH   2   3
BRANCH   1  14
ATOM     13  O   UNL     1      15.180  13.291  54.610  0.00  0.00    +0.000 OA
ATOM     14  C   UNL     1      15.347  12.467  55.496  0.00  0.00    +0.000 C 
ATOM     15  C   UNL     1      16.172  11.314  55.265  0.00  0.00    +0.000 C 
ATOM     16  C   UNL     1      16.982  10.182  55.032  0.00  0.00    +0.000 C 
BRANCH  16  17
ATOM     17  O   UNL     1      17.349   9.432  56.123  0.00  0.00    +0.000 OA
ATOM     18  H   UNL     1      16.575   9.093  56.606  0.00  0.00    +0.000 HD
ENDBRANCH  16  17
BRANCH  16  19
ATOM     19  C   UNL     1      17.427   9.786  53.747  0.00  0.00    +0.000 C 
ATOM     20  C   UNL     1      17.900   9.352  52.356  0.00  0.00    +0.000 C 
BRANCH  20  21
ATOM     21  C   UNL     1      18.369   8.913  50.965  0.00  0.00    +0.000 C 
ATOM     22  C   UNL     1      18.839   8.472  49.575  0.00  0.00    +0.000 C 
ATOM     23  C   UNL     1      19.308   8.025  48.187  0.00  0.00    +0.000 C 
ENDBRANCH  20  21
ENDBRANCH  16  19
ENDBRANCH   1  14
TORSDOF 7
ENDMDL
MODEL 7
REMARK VINA RESULT:      -3.5      8.014      9.216
REMARK  Name = 442793_6gingerol.pdbqt.pdb
REMARK  7 active torsions:
REMARK  status: ('A' for Active; 'I' for Inactive)
REMARK    1  A    between atoms: C_1  and  C_3
REMARK    2  A    between atoms: C_5  and  O_6
REMARK    3  A    between atoms: C_5  and  C_8
REMARK    4  A    between atoms: C_9  and  C_10
REMARK    5  A    between atoms: C_13  and  C_14
REMARK    6  A    between atoms: C_17  and  O_20
REMARK    7  A    between atoms: C_19  and  O_22
REMARK                            x       y       z     vdW  Elec       q    Type
REMARK                         _______ _______ _______ _____ _____    ______ ____
ROOT
ATOM      1  C   UNL     1      10.179  12.748  62.362  0.00  0.00    +0.000 C 
ATOM      2  C   UNL     1      11.303  12.595  61.330  0.00  0.00    +0.000 C 
ENDROOT
BRANCH   2   3
ATOM      3  C   UNL     1      12.349  12.453  60.374  0.00  0.00    +0.000 A 
ATOM      4  C   UNL     1      13.630  12.098  60.794  0.00  0.00    +0.000 A 
ATOM      5  C   UNL     1      12.089  12.670  59.024  0.00  0.00    +0.000 A 
ATOM      6  C   UNL     1      14.667  11.955  59.868  0.00  0.00    +0.000 A 
ATOM      7  C   UNL     1      13.113  12.531  58.090  0.00  0.00    +0.000 A 
ATOM      8  C   UNL     1      14.393  12.176  58.515  0.00  0.00    +0.000 A 
BRANCH   6   9
ATOM      9  O   UNL     1      15.955  11.609  60.195  0.00  0.00    +0.000 OA
ATOM     10  C   UNL     1      16.127  10.307  60.687  0.00  0.00    +0.000 C 
ENDBRANCH   6   9
BRANCH   8  11
ATOM     11  O   UNL     1      15.393  12.041  57.593  0.00  0.00    +0.000 OA
ATOM     12  H   UNL     1      15.155  12.551  56.796  0.00  0.00    +0.000 HD
ENDBRANCH   8  11
ENDBRANCH   2   3
BRANCH   1  14
ATOM     13  O   UNL     1       9.343  13.439  64.405  0.00  0.00    +0.000 OA
ATOM     14  C   UNL     1       9.125  12.893  63.334  0.00  0.00    +0.000 C 
ATOM     15  C   UNL     1       7.814  12.386  63.035  0.00  0.00    +0.000 C 
ATOM     16  C   UNL     1       6.525  11.889  62.748  0.00  0.00    +0.000 C 
BRANCH  16  17
ATOM     17  O   UNL     1       6.263  11.525  61.449  0.00  0.00    +0.000 OA
ATOM     18  H   UNL     1       5.713  10.724  61.401  0.00  0.00    +0.000 HD
ENDBRANCH  16  17
BRANCH  16  19
ATOM     19  C   UNL     1       5.504  11.746  63.719  0.00  0.00    +0.000 C 
ATOM     20  C   UNL     1       4.406  11.593  64.777  0.00  0.00    +0.000 C 
BRANCH  20  21
ATOM     21  C   UNL     1       3.313  11.441  65.839  0.00  0.00    +0.000 C 
ATOM     22  C   UNL     1       2.219  11.287  66.901  0.00  0.00    +0.000 C 
ATOM     23  C   UNL     1       1.127  11.126  67.963  0.00  0.00    +0.000 C 
ENDBRANCH  20  21
ENDBRANCH  16  19
ENDBRANCH   1  14
TORSDOF 7
ENDMDL
MODEL 8
REMARK VINA RESULT:      -3.4      9.176     15.957
REMARK  Name = 442793_6gingerol.pdbqt.pdb
REMARK  7 active torsions:
REMARK  status: ('A' for Active; 'I' for Inactive)
REMARK    1  A    between atoms: C_1  and  C_3
REMARK    2  A    between atoms: C_5  and  O_6
REMARK    3  A    between atoms: C_5  and  C_8
REMARK    4  A    between atoms: C_9  and  C_10
REMARK    5  A    between atoms: C_13  and  C_14
REMARK    6  A    between atoms: C_17  and  O_20
REMARK    7  A    between atoms: C_19  and  O_22
REMARK                            x       y       z     vdW  Elec       q    Type
REMARK                         _______ _______ _______ _____ _____    ______ ____
ROOT
ATOM      1  C   UNL     1      11.630   2.019  74.865  0.00  0.00    +0.000 C 
ATOM      2  C   UNL     1      10.302   2.018  75.634  0.00  0.00    +0.000 C 
ENDROOT
BRANCH   2   3
ATOM      3  C   UNL     1       9.071   2.019  76.349  0.00  0.00    +0.000 A 
ATOM      4  C   UNL     1       8.268   0.880  76.349  0.00  0.00    +0.000 A 
ATOM      5  C   UNL     1       8.672   3.158  77.043  0.00  0.00    +0.000 A 
ATOM      6  C   UNL     1       7.055   0.867  77.045  0.00  0.00    +0.000 A 
ATOM      7  C   UNL     1       7.467   3.158  77.741  0.00  0.00    +0.000 A 
ATOM      8  C   UNL     1       6.667   2.016  77.738  0.00  0.00    +0.000 A 
BRANCH   6   9
ATOM      9  O   UNL     1       6.205  -0.211  77.097  0.00  0.00    +0.000 OA
ATOM     10  C   UNL     1       6.613  -1.341  76.372  0.00  0.00    +0.000 C 
ENDBRANCH   6   9
BRANCH   8  11
ATOM     11  O   UNL     1       5.484   2.023  78.425  0.00  0.00    +0.000 OA
ATOM     12  H   UNL     1       5.355   2.908  78.815  0.00  0.00    +0.000 HD
ENDBRANCH   8  11
ENDBRANCH   2   3
BRANCH   1  14
ATOM     13  O   UNL     1      13.876   2.519  74.641  0.00  0.00    +0.000 OA
ATOM     14  C   UNL     1      12.877   2.023  74.143  0.00  0.00    +0.000 C 
ATOM     15  C   UNL     1      12.935   1.442  72.831  0.00  0.00    +0.000 C 
ATOM     16  C   UNL     1      12.998   0.873  71.540  0.00  0.00    +0.000 C 
BRANCH  16  17
ATOM     17  O   UNL     1      11.934   0.104  71.136  0.00  0.00    +0.000 OA
ATOM     18  H   UNL     1      12.036  -0.825  71.404  0.00  0.00    +0.000 HD
ENDBRANCH  16  17
BRANCH  16  19
ATOM     19  C   UNL     1      14.088   1.056  70.654  0.00  0.00    +0.000 C 
ATOM     20  C   UNL     1      15.261   1.258  69.689  0.00  0.00    +0.000 C 
BRANCH  20  21
ATOM     21  C   UNL     1      16.429   1.460  68.719  0.00  0.00    +0.000 C 
ATOM     22  C   UNL     1      17.596   1.663  67.747  0.00  0.00    +0.000 C 
ATOM     23  C   UNL     1      18.758   1.868  66.770  0.00  0.00    +0.000 C 
ENDBRANCH  20  21
ENDBRANCH  16  19
ENDBRANCH   1  14
TORSDOF 7
ENDMDL
MODEL 9
REMARK VINA RESULT:      -3.3      8.046     14.667
REMARK  Name = 442793_6gingerol.pdbqt.pdb
REMARK  7 active torsions:
REMARK  status: ('A' for Active; 'I' for Inactive)
REMARK    1  A    between atoms: C_1  and  C_3
REMARK    2  A    between atoms: C_5  and  O_6
REMARK    3  A    between atoms: C_5  and  C_8
REMARK    4  A    between atoms: C_9  and  C_10
REMARK    5  A    between atoms: C_13  and  C_14
REMARK    6  A    between atoms: C_17  and  O_20
REMARK    7  A    between atoms: C_19  and  O_22
REMARK                            x       y       z     vdW  Elec       q    Type
REMARK                         _______ _______ _______ _____ _____    ______ ____
ROOT
ATOM      1  C   UNL     1      12.231   3.332  75.109  0.00  0.00    +0.000 C 
ATOM      2  C   UNL     1      10.897   2.746  75.589  0.00  0.00    +0.000 C 
ENDROOT
BRANCH   2   3
ATOM      3  C   UNL     1       9.657   2.205  76.033  0.00  0.00    +0.000 A 
ATOM      4  C   UNL     1       8.765   3.007  76.744  0.00  0.00    +0.000 A 
ATOM      5  C   UNL     1       9.340   0.879  75.757  0.00  0.00    +0.000 A 
ATOM      6  C   UNL     1       7.545   2.490  77.188  0.00  0.00    +0.000 A 
ATOM      7  C   UNL     1       8.127   0.350  76.192  0.00  0.00    +0.000 A 
ATOM      8  C   UNL     1       7.238   1.156  76.904  0.00  0.00    +0.000 A 
BRANCH   6   9
ATOM      9  O   UNL     1       6.611   3.207  77.894  0.00  0.00    +0.000 OA
ATOM     10  C   UNL     1       5.986   4.248  77.189  0.00  0.00    +0.000 C 
ENDBRANCH   6   9
BRANCH   8  11
ATOM     11  O   UNL     1       6.049   0.631  77.329  0.00  0.00    +0.000 OA
ATOM     12  H   UNL     1       5.541   1.332  77.777  0.00  0.00    +0.000 HD
ENDBRANCH   8  11
ENDBRANCH   2   3
BRANCH   1  14
ATOM     13  O   UNL     1      14.535   3.320  74.916  0.00  0.00    +0.000 OA
ATOM     14  C   UNL     1      13.483   3.885  74.658  0.00  0.00    +0.000 C 
ATOM     15  C   UNL     1      13.485   5.107  73.904  0.00  0.00    +0.000 C 
ATOM     16  C   UNL     1      13.492   6.310  73.164  0.00  0.00    +0.000 C 
BRANCH  16  17
ATOM     17  O   UNL     1      12.288   6.761  72.679  0.00  0.00    +0.000 OA
ATOM     18  H   UNL     1      11.823   6.074  72.170  0.00  0.00    +0.000 HD
ENDBRANCH  16  17
BRANCH  16  19
ATOM     19  C   UNL     1      14.663   7.063  72.903  0.00  0.00    +0.000 C 
ATOM     20  C   UNL     1      15.924   7.884  72.614  0.00  0.00    +0.000 C 
BRANCH  20  21
ATOM     21  C   UNL     1      17.182   8.707  72.321  0.00  0.00    +0.000 C 
ATOM     22  C   UNL     1      18.442   9.529  72.028  0.00  0.00    +0.000 C 
ATOM     23  C   UNL     1      19.705  10.346  71.739  0.00  0.00    +0.000 C 
ENDBRANCH  20  21
ENDBRANCH  16  19
ENDBRANCH   1  14
TORSDOF 7
ENDMDL
