MODEL 1
REMARK VINA RESULT:      -5.7      0.000      0.000
REMARK  Name = 44423609_SipholenoneA.pdbqt.pdb
REMARK  4 active torsions:
REMARK  status: ('A' for Active; 'I' for Inactive)
REMARK    1  A    between atoms: C_3  and  C_19
REMARK    2  A    between atoms: C_5  and  O_17
REMARK    3  A    between atoms: C_20  and  C_24
REMARK    4  A    between atoms: C_25  and  O_35
REMARK                            x       y       z     vdW  Elec       q    Type
REMARK                         _______ _______ _______ _____ _____    ______ ____
ROOT
ATOM      1  O   UNL     1      15.594   1.560  72.229  0.00  0.00    +0.000 OA
ATOM      2  O   UNL     1      13.421  -0.919  70.547  0.00  0.00    +0.000 OA
ATOM      3  C   UNL     1      13.193   3.695  74.529  0.00  0.00    +0.000 C 
ATOM      4  C   UNL     1      13.960   2.468  74.039  0.00  0.00    +0.000 C 
ATOM      5  C   UNL     1      13.835   5.071  74.467  0.00  0.00    +0.000 C 
ATOM      6  C   UNL     1      14.995   2.659  72.853  0.00  0.00    +0.000 C 
ATOM      7  C   UNL     1      14.984   5.015  73.583  0.00  0.00    +0.000 C 
ATOM      8  C   UNL     1      15.601   3.928  72.768  0.00  0.00    +0.000 C 
ATOM      9  C   UNL     1      13.040   1.482  73.449  0.00  0.00    +0.000 C 
ATOM     10  C   UNL     1      14.718   1.821  75.232  0.00  0.00    +0.000 C 
ATOM     11  C   UNL     1      12.824   6.128  74.010  0.00  0.00    +0.000 C 
ATOM     12  C   UNL     1      12.970   0.482  72.315  0.00  0.00    +0.000 C 
ATOM     13  C   UNL     1      15.036   1.034  70.978  0.00  0.00    +0.000 C 
ATOM     14  C   UNL     1      13.778   0.055  71.197  0.00  0.00    +0.000 C 
ATOM     15  C   UNL     1      16.215   0.250  70.314  0.00  0.00    +0.000 C 
ATOM     16  C   UNL     1      14.609   2.214  70.027  0.00  0.00    +0.000 C 
ENDROOT
BRANCH   5  17
ATOM     17  O   UNL     1      14.245   5.461  75.754  0.00  0.00    +0.000 OA
ATOM     18  H   UNL     1      14.768   6.258  75.552  0.00  0.00    +0.000 HD
ENDBRANCH   5  17
BRANCH   3  19
ATOM     19  C   UNL     1      11.978   3.512  75.280  0.00  0.00    +0.000 C 
ATOM     20  C   UNL     1      10.681   3.324  76.070  0.00  0.00    +0.000 C 
BRANCH  20  24
ATOM     21  C   UNL     1       7.705   5.059  77.215  0.00  0.00    +0.000 C 
ATOM     22  C   UNL     1       8.915   4.256  77.755  0.00  0.00    +0.000 C 
ATOM     23  C   UNL     1       6.337   4.499  76.924  0.00  0.00    +0.000 C 
ATOM     24  C   UNL     1       9.463   3.158  76.811  0.00  0.00    +0.000 C 
ATOM     25  C   UNL     1       5.368   5.581  76.444  0.00  0.00    +0.000 C 
ATOM     26  C   UNL     1       7.633   6.459  76.960  0.00  0.00    +0.000 C 
ATOM     27  C   UNL     1       6.230   6.755  76.511  0.00  0.00    +0.000 C 
ATOM     28  C   UNL     1       6.311   3.123  76.615  0.00  0.00    +0.000 C 
ATOM     29  C   UNL     1       8.683   1.940  76.584  0.00  0.00    +0.000 C 
ATOM     30  C   UNL     1      10.073   5.279  78.071  0.00  0.00    +0.000 C 
ATOM     31  C   UNL     1       8.514   3.622  79.130  0.00  0.00    +0.000 C 
ATOM     32  C   UNL     1       7.398   2.087  76.503  0.00  0.00    +0.000 C 
ATOM     33  C   UNL     1       4.104   5.629  77.286  0.00  0.00    +0.000 C 
ATOM     34  C   UNL     1       9.259   0.665  76.024  0.00  0.00    +0.000 C 
BRANCH  25  35
ATOM     35  O   UNL     1       4.974   5.336  75.116  0.00  0.00    +0.000 OA
ATOM     36  H   UNL     1       4.613   4.436  75.198  0.00  0.00    +0.000 HD
ENDBRANCH  25  35
ENDBRANCH  20  24
ENDBRANCH   3  19
TORSDOF 4
ENDMDL
MODEL 2
REMARK VINA RESULT:      -5.4     14.596     20.364
REMARK  Name = 44423609_SipholenoneA.pdbqt.pdb
REMARK  4 active torsions:
REMARK  status: ('A' for Active; 'I' for Inactive)
REMARK    1  A    between atoms: C_3  and  C_19
REMARK    2  A    between atoms: C_5  and  O_17
REMARK    3  A    between atoms: C_20  and  C_24
REMARK    4  A    between atoms: C_25  and  O_35
REMARK                            x       y       z     vdW  Elec       q    Type
REMARK                         _______ _______ _______ _____ _____    ______ ____
ROOT
ATOM      1  O   UNL     1      19.098   0.993  51.971  0.00  0.00    +0.000 OA
ATOM      2  O   UNL     1      21.588   2.839  53.992  0.00  0.00    +0.000 OA
ATOM      3  C   UNL     1      17.340  -1.512  54.471  0.00  0.00    +0.000 C 
ATOM      4  C   UNL     1      17.729  -0.169  53.854  0.00  0.00    +0.000 C 
ATOM      5  C   UNL     1      17.065  -2.710  53.578  0.00  0.00    +0.000 C 
ATOM      6  C   UNL     1      18.548  -0.181  52.496  0.00  0.00    +0.000 C 
ATOM      7  C   UNL     1      17.592  -2.441  52.254  0.00  0.00    +0.000 C 
ATOM      8  C   UNL     1      18.317  -1.285  51.652  0.00  0.00    +0.000 C 
ATOM      9  C   UNL     1      18.660   0.557  54.734  0.00  0.00    +0.000 C 
ATOM     10  C   UNL     1      16.452   0.688  53.631  0.00  0.00    +0.000 C 
ATOM     11  C   UNL     1      17.667  -3.987  54.175  0.00  0.00    +0.000 C 
ATOM     12  C   UNL     1      19.872   1.460  54.661  0.00  0.00    +0.000 C 
ATOM     13  C   UNL     1      20.506   1.320  52.224  0.00  0.00    +0.000 C 
ATOM     14  C   UNL     1      20.759   2.002  53.658  0.00  0.00    +0.000 C 
ATOM     15  C   UNL     1      20.895   2.314  51.082  0.00  0.00    +0.000 C 
ATOM     16  C   UNL     1      21.400   0.030  52.103  0.00  0.00    +0.000 C 
ENDROOT
BRANCH   5  17
ATOM     17  O   UNL     1      15.680  -2.936  53.502  0.00  0.00    +0.000 OA
ATOM     18  H   UNL     1      15.435  -2.923  54.445  0.00  0.00    +0.000 HD
ENDBRANCH   5  17
BRANCH   3  19
ATOM     19  C   UNL     1      16.985  -1.568  55.866  0.00  0.00    +0.000 C 
ATOM     20  C   UNL     1      16.609  -1.641  57.347  0.00  0.00    +0.000 C 
BRANCH  20  24
ATOM     21  C   UNL     1      17.787  -0.937  60.708  0.00  0.00    +0.000 C 
ATOM     22  C   UNL     1      17.267  -2.105  59.833  0.00  0.00    +0.000 C 
ATOM     23  C   UNL     1      16.954  -0.104  61.648  0.00  0.00    +0.000 C 
ATOM     24  C   UNL     1      16.248  -1.716  58.734  0.00  0.00    +0.000 C 
ATOM     25  C   UNL     1      17.798   0.936  62.388  0.00  0.00    +0.000 C 
ATOM     26  C   UNL     1      19.129  -0.479  60.840  0.00  0.00    +0.000 C 
ATOM     27  C   UNL     1      19.120   0.631  61.854  0.00  0.00    +0.000 C 
ATOM     28  C   UNL     1      15.585  -0.024  61.318  0.00  0.00    +0.000 C 
ATOM     29  C   UNL     1      14.890  -1.317  59.112  0.00  0.00    +0.000 C 
ATOM     30  C   UNL     1      18.513  -2.790  59.151  0.00  0.00    +0.000 C 
ATOM     31  C   UNL     1      16.643  -3.189  60.775  0.00  0.00    +0.000 C 
ATOM     32  C   UNL     1      14.778  -0.604  60.187  0.00  0.00    +0.000 C 
ATOM     33  C   UNL     1      17.643   0.829  63.895  0.00  0.00    +0.000 C 
ATOM     34  C   UNL     1      13.725  -1.298  58.157  0.00  0.00    +0.000 C 
BRANCH  25  35
ATOM     35  O   UNL     1      17.409   2.237  62.021  0.00  0.00    +0.000 OA
ATOM     36  H   UNL     1      18.158   2.753  62.366  0.00  0.00    +0.000 HD
ENDBRANCH  25  35
ENDBRANCH  20  24
ENDBRANCH   3  19
TORSDOF 4
ENDMDL
MODEL 3
REMARK VINA RESULT:      -5.2     16.491     19.415
REMARK  Name = 44423609_SipholenoneA.pdbqt.pdb
REMARK  4 active torsions:
REMARK  status: ('A' for Active; 'I' for Inactive)
REMARK    1  A    between atoms: C_3  and  C_19
REMARK    2  A    between atoms: C_5  and  O_17
REMARK    3  A    between atoms: C_20  and  C_24
REMARK    4  A    between atoms: C_25  and  O_35
REMARK                            x       y       z     vdW  Elec       q    Type
REMARK                         _______ _______ _______ _____ _____    ______ ____
ROOT
ATOM      1  O   UNL     1      18.682  11.465  55.809  0.00  0.00    +0.000 OA
ATOM      2  O   UNL     1      19.746   9.968  59.022  0.00  0.00    +0.000 OA
ATOM      3  C   UNL     1      14.818  12.192  56.199  0.00  0.00    +0.000 C 
ATOM      4  C   UNL     1      16.317  12.337  56.455  0.00  0.00    +0.000 C 
ATOM      5  C   UNL     1      14.305  11.945  54.790  0.00  0.00    +0.000 C 
ATOM      6  C   UNL     1      17.314  11.531  55.522  0.00  0.00    +0.000 C 
ATOM      7  C   UNL     1      15.411  11.518  53.955  0.00  0.00    +0.000 C 
ATOM      8  C   UNL     1      16.861  11.281  54.212  0.00  0.00    +0.000 C 
ATOM      9  C   UNL     1      16.673  11.796  57.777  0.00  0.00    +0.000 C 
ATOM     10  C   UNL     1      16.712  13.839  56.386  0.00  0.00    +0.000 C 
ATOM     11  C   UNL     1      13.171  10.914  54.794  0.00  0.00    +0.000 C 
ATOM     12  C   UNL     1      17.783  11.031  58.466  0.00  0.00    +0.000 C 
ATOM     13  C   UNL     1      19.225  10.306  56.528  0.00  0.00    +0.000 C 
ATOM     14  C   UNL     1      19.031  10.391  58.122  0.00  0.00    +0.000 C 
ATOM     15  C   UNL     1      20.748  10.296  56.174  0.00  0.00    +0.000 C 
ATOM     16  C   UNL     1      18.570   8.976  56.000  0.00  0.00    +0.000 C 
ENDROOT
BRANCH   5  17
ATOM     17  O   UNL     1      13.748  13.128  54.274  0.00  0.00    +0.000 OA
ATOM     18  H   UNL     1      12.930  12.789  53.868  0.00  0.00    +0.000 HD
ENDBRANCH   5  17
BRANCH   3  19
ATOM     19  C   UNL     1      13.889  12.546  57.241  0.00  0.00    +0.000 C 
ATOM     20  C   UNL     1      12.895  12.930  58.341  0.00  0.00    +0.000 C 
BRANCH  20  24
ATOM     21  C   UNL     1       9.404  12.751  59.316  0.00  0.00    +0.000 C 
ATOM     22  C   UNL     1      10.530  13.781  59.051  0.00  0.00    +0.000 C 
ATOM     23  C   UNL     1       9.016  12.198  60.663  0.00  0.00    +0.000 C 
ATOM     24  C   UNL     1      11.966  13.299  59.370  0.00  0.00    +0.000 C 
ATOM     25  C   UNL     1       7.832  11.235  60.566  0.00  0.00    +0.000 C 
ATOM     26  C   UNL     1       8.495  12.191  58.371  0.00  0.00    +0.000 C 
ATOM     27  C   UNL     1       7.558  11.298  59.135  0.00  0.00    +0.000 C 
ATOM     28  C   UNL     1      10.048  12.198  61.625  0.00  0.00    +0.000 C 
ATOM     29  C   UNL     1      12.379  13.119  60.763  0.00  0.00    +0.000 C 
ATOM     30  C   UNL     1      10.458  14.196  57.531  0.00  0.00    +0.000 C 
ATOM     31  C   UNL     1      10.213  15.080  59.866  0.00  0.00    +0.000 C 
ATOM     32  C   UNL     1      11.487  12.635  61.570  0.00  0.00    +0.000 C 
ATOM     33  C   UNL     1       6.691  11.637  61.484  0.00  0.00    +0.000 C 
ATOM     34  C   UNL     1      13.816  13.041  61.210  0.00  0.00    +0.000 C 
BRANCH  25  35
ATOM     35  O   UNL     1       8.223   9.935  60.934  0.00  0.00    +0.000 OA
ATOM     36  H   UNL     1       8.469   9.568  60.067  0.00  0.00    +0.000 HD
ENDBRANCH  25  35
ENDBRANCH  20  24
ENDBRANCH   3  19
TORSDOF 4
ENDMDL
MODEL 4
REMARK VINA RESULT:      -5.2      2.481      3.563
REMARK  Name = 44423609_SipholenoneA.pdbqt.pdb
REMARK  4 active torsions:
REMARK  status: ('A' for Active; 'I' for Inactive)
REMARK    1  A    between atoms: C_3  and  C_19
REMARK    2  A    between atoms: C_5  and  O_17
REMARK    3  A    between atoms: C_20  and  C_24
REMARK    4  A    between atoms: C_25  and  O_35
REMARK                            x       y       z     vdW  Elec       q    Type
REMARK                         _______ _______ _______ _____ _____    ______ ____
ROOT
ATOM      1  O   UNL     1      16.514   6.449  70.556  0.00  0.00    +0.000 OA
ATOM      2  O   UNL     1      15.879   3.199  68.904  0.00  0.00    +0.000 OA
ATOM      3  C   UNL     1      13.784   6.752  73.397  0.00  0.00    +0.000 C 
ATOM      4  C   UNL     1      15.010   6.207  72.666  0.00  0.00    +0.000 C 
ATOM      5  C   UNL     1      13.505   8.245  73.411  0.00  0.00    +0.000 C 
ATOM      6  C   UNL     1      15.519   6.985  71.382  0.00  0.00    +0.000 C 
ATOM      7  C   UNL     1      14.300   8.882  72.379  0.00  0.00    +0.000 C 
ATOM      8  C   UNL     1      15.268   8.371  71.365  0.00  0.00    +0.000 C 
ATOM      9  C   UNL     1      14.727   4.880  72.094  0.00  0.00    +0.000 C 
ATOM     10  C   UNL     1      16.201   6.100  73.660  0.00  0.00    +0.000 C 
ATOM     11  C   UNL     1      12.010   8.525  73.224  0.00  0.00    +0.000 C 
ATOM     12  C   UNL     1      15.037   4.046  70.870  0.00  0.00    +0.000 C 
ATOM     13  C   UNL     1      16.141   5.719  69.339  0.00  0.00    +0.000 C 
ATOM     14  C   UNL     1      15.728   4.188  69.610  0.00  0.00    +0.000 C 
ATOM     15  C   UNL     1      17.414   5.777  68.433  0.00  0.00    +0.000 C 
ATOM     16  C   UNL     1      14.957   6.447  68.601  0.00  0.00    +0.000 C 
ENDROOT
BRANCH   5  17
ATOM     17  O   UNL     1      13.842   8.778  74.667  0.00  0.00    +0.000 OA
ATOM     18  H   UNL     1      14.221   9.639  74.412  0.00  0.00    +0.000 HD
ENDBRANCH   5  17
BRANCH   3  19
ATOM     19  C   UNL     1      13.048   5.883  74.279  0.00  0.00    +0.000 C 
ATOM     20  C   UNL     1      12.255   4.965  75.212  0.00  0.00    +0.000 C 
BRANCH  20  24
ATOM     21  C   UNL     1       9.373   4.860  77.417  0.00  0.00    +0.000 C 
ATOM     22  C   UNL     1      10.904   4.623  77.422  0.00  0.00    +0.000 C 
ATOM     23  C   UNL     1       8.320   3.796  77.243  0.00  0.00    +0.000 C 
ATOM     24  C   UNL     1      11.507   4.112  76.091  0.00  0.00    +0.000 C 
ATOM     25  C   UNL     1       6.906   4.374  77.334  0.00  0.00    +0.000 C 
ATOM     26  C   UNL     1       8.681   6.085  77.637  0.00  0.00    +0.000 C 
ATOM     27  C   UNL     1       7.211   5.775  77.595  0.00  0.00    +0.000 C 
ATOM     28  C   UNL     1       8.738   2.655  76.528  0.00  0.00    +0.000 C 
ATOM     29  C   UNL     1      11.238   2.741  75.651  0.00  0.00    +0.000 C 
ATOM     30  C   UNL     1      11.603   5.983  77.808  0.00  0.00    +0.000 C 
ATOM     31  C   UNL     1      11.246   3.622  78.578  0.00  0.00    +0.000 C 
ATOM     32  C   UNL     1      10.046   2.287  75.879  0.00  0.00    +0.000 C 
ATOM     33  C   UNL     1       6.066   3.665  78.382  0.00  0.00    +0.000 C 
ATOM     34  C   UNL     1      12.056   2.016  74.614  0.00  0.00    +0.000 C 
BRANCH  25  35
ATOM     35  O   UNL     1       6.238   4.237  76.104  0.00  0.00    +0.000 OA
ATOM     36  H   UNL     1       6.624   3.404  75.781  0.00  0.00    +0.000 HD
ENDBRANCH  25  35
ENDBRANCH  20  24
ENDBRANCH   3  19
TORSDOF 4
ENDMDL
MODEL 5
REMARK VINA RESULT:      -4.8     21.351     24.369
REMARK  Name = 44423609_SipholenoneA.pdbqt.pdb
REMARK  4 active torsions:
REMARK  status: ('A' for Active; 'I' for Inactive)
REMARK    1  A    between atoms: C_3  and  C_19
REMARK    2  A    between atoms: C_5  and  O_17
REMARK    3  A    between atoms: C_20  and  C_24
REMARK    4  A    between atoms: C_25  and  O_35
REMARK                            x       y       z     vdW  Elec       q    Type
REMARK                         _______ _______ _______ _____ _____    ______ ____
ROOT
ATOM      1  O   UNL     1      18.966  11.943  54.512  0.00  0.00    +0.000 OA
ATOM      2  O   UNL     1      15.381  11.074  54.805  0.00  0.00    +0.000 OA
ATOM      3  C   UNL     1      20.838   8.531  53.830  0.00  0.00    +0.000 C 
ATOM      4  C   UNL     1      19.915   9.716  53.556  0.00  0.00    +0.000 C 
ATOM      5  C   UNL     1      22.157   8.742  54.554  0.00  0.00    +0.000 C 
ATOM      6  C   UNL     1      19.912  10.915  54.593  0.00  0.00    +0.000 C 
ATOM      7  C   UNL     1      22.137  10.041  55.198  0.00  0.00    +0.000 C 
ATOM      8  C   UNL     1      21.121  11.130  55.284  0.00  0.00    +0.000 C 
ATOM      9  C   UNL     1      18.504   9.299  53.609  0.00  0.00    +0.000 C 
ATOM     10  C   UNL     1      20.229  10.304  52.151  0.00  0.00    +0.000 C 
ATOM     11  C   UNL     1      22.415   7.617  55.562  0.00  0.00    +0.000 C 
ATOM     12  C   UNL     1      17.151   9.808  54.059  0.00  0.00    +0.000 C 
ATOM     13  C   UNL     1      17.757  11.894  55.342  0.00  0.00    +0.000 C 
ATOM     14  C   UNL     1      16.598  10.960  54.734  0.00  0.00    +0.000 C 
ATOM     15  C   UNL     1      17.265  13.376  55.418  0.00  0.00    +0.000 C 
ATOM     16  C   UNL     1      18.107  11.397  56.794  0.00  0.00    +0.000 C 
ENDROOT
BRANCH   5  17
ATOM     17  O   UNL     1      23.217   8.684  53.633  0.00  0.00    +0.000 OA
ATOM     18  H   UNL     1      22.944   9.363  52.989  0.00  0.00    +0.000 HD
ENDBRANCH   5  17
BRANCH   3  19
ATOM     19  C   UNL     1      20.579   7.272  53.179  0.00  0.00    +0.000 C 
ATOM     20  C   UNL     1      20.311   5.939  52.477  0.00  0.00    +0.000 C 
BRANCH  20  24
ATOM     21  C   UNL     1      19.968   2.365  53.010  0.00  0.00    +0.000 C 
ATOM     22  C   UNL     1      20.794   3.387  52.191  0.00  0.00    +0.000 C 
ATOM     23  C   UNL     1      18.740   1.637  52.525  0.00  0.00    +0.000 C 
ATOM     24  C   UNL     1      20.055   4.693  51.811  0.00  0.00    +0.000 C 
ATOM     25  C   UNL     1      18.200   0.667  53.578  0.00  0.00    +0.000 C 
ATOM     26  C   UNL     1      20.238   1.876  54.320  0.00  0.00    +0.000 C 
ATOM     27  C   UNL     1      19.181   0.857  54.639  0.00  0.00    +0.000 C 
ATOM     28  C   UNL     1      18.015   2.301  51.515  0.00  0.00    +0.000 C 
ATOM     29  C   UNL     1      18.992   4.660  50.805  0.00  0.00    +0.000 C 
ATOM     30  C   UNL     1      22.078   3.755  53.030  0.00  0.00    +0.000 C 
ATOM     31  C   UNL     1      21.316   2.677  50.896  0.00  0.00    +0.000 C 
ATOM     32  C   UNL     1      18.216   3.622  50.821  0.00  0.00    +0.000 C 
ATOM     33  C   UNL     1      18.064  -0.746  53.037  0.00  0.00    +0.000 C 
ATOM     34  C   UNL     1      18.482   5.879  50.080  0.00  0.00    +0.000 C 
BRANCH  25  35
ATOM     35  O   UNL     1      16.924   1.070  54.011  0.00  0.00    +0.000 OA
ATOM     36  H   UNL     1      16.912   1.993  53.701  0.00  0.00    +0.000 HD
ENDBRANCH  25  35
ENDBRANCH  20  24
ENDBRANCH   3  19
TORSDOF 4
ENDMDL
MODEL 6
REMARK VINA RESULT:      -4.6     15.321     20.515
REMARK  Name = 44423609_SipholenoneA.pdbqt.pdb
REMARK  4 active torsions:
REMARK  status: ('A' for Active; 'I' for Inactive)
REMARK    1  A    between atoms: C_3  and  C_19
REMARK    2  A    between atoms: C_5  and  O_17
REMARK    3  A    between atoms: C_20  and  C_24
REMARK    4  A    between atoms: C_25  and  O_35
REMARK                            x       y       z     vdW  Elec       q    Type
REMARK                         _______ _______ _______ _____ _____    ______ ____
ROOT
ATOM      1  O   UNL     1      17.819  -1.483  51.498  0.00  0.00    +0.000 OA
ATOM      2  O   UNL     1      20.862  -3.383  52.405  0.00  0.00    +0.000 OA
ATOM      3  C   UNL     1      15.563  -1.469  54.742  0.00  0.00    +0.000 C 
ATOM      4  C   UNL     1      16.758  -1.140  53.849  0.00  0.00    +0.000 C 
ATOM      5  C   UNL     1      14.163  -1.519  54.155  0.00  0.00    +0.000 C 
ATOM      6  C   UNL     1      16.697  -1.581  52.328  0.00  0.00    +0.000 C 
ATOM      7  C   UNL     1      14.261  -1.595  52.710  0.00  0.00    +0.000 C 
ATOM      8  C   UNL     1      15.409  -1.642  51.759  0.00  0.00    +0.000 C 
ATOM      9  C   UNL     1      17.959  -1.862  54.300  0.00  0.00    +0.000 C 
ATOM     10  C   UNL     1      17.028   0.391  53.889  0.00  0.00    +0.000 C 
ATOM     11  C   UNL     1      13.370  -2.698  54.728  0.00  0.00    +0.000 C 
ATOM     12  C   UNL     1      19.182  -2.559  53.743  0.00  0.00    +0.000 C 
ATOM     13  C   UNL     1      18.671  -2.656  51.275  0.00  0.00    +0.000 C 
ATOM     14  C   UNL     1      19.733  -2.913  52.455  0.00  0.00    +0.000 C 
ATOM     15  C   UNL     1      19.422  -2.356  49.937  0.00  0.00    +0.000 C 
ATOM     16  C   UNL     1      17.790  -3.947  51.086  0.00  0.00    +0.000 C 
ENDROOT
BRANCH   5  17
ATOM     17  O   UNL     1      13.454  -0.363  54.523  0.00  0.00    +0.000 OA
ATOM     18  H   UNL     1      14.093   0.334  54.286  0.00  0.00    +0.000 HD
ENDBRANCH   5  17
BRANCH   3  19
ATOM     19  C   UNL     1      15.735  -1.476  56.172  0.00  0.00    +0.000 C 
ATOM     20  C   UNL     1      15.928  -1.487  57.690  0.00  0.00    +0.000 C 
BRANCH  20  24
ATOM     21  C   UNL     1      18.376  -0.983  60.322  0.00  0.00    +0.000 C 
ATOM     22  C   UNL     1      17.402  -2.054  59.772  0.00  0.00    +0.000 C 
ATOM     23  C   UNL     1      18.090  -0.034  61.457  0.00  0.00    +0.000 C 
ATOM     24  C   UNL     1      16.111  -1.509  59.113  0.00  0.00    +0.000 C 
ATOM     25  C   UNL     1      19.291   0.861  61.769  0.00  0.00    +0.000 C 
ATOM     26  C   UNL     1      19.721  -0.739  59.919  0.00  0.00    +0.000 C 
ATOM     27  C   UNL     1      20.255   0.356  60.799  0.00  0.00    +0.000 C 
ATOM     28  C   UNL     1      16.725   0.258  61.659  0.00  0.00    +0.000 C 
ATOM     29  C   UNL     1      15.069  -0.906  59.947  0.00  0.00    +0.000 C 
ATOM     30  C   UNL     1      18.185  -2.923  58.714  0.00  0.00    +0.000 C 
ATOM     31  C   UNL     1      17.030  -3.031  60.939  0.00  0.00    +0.000 C 
ATOM     32  C   UNL     1      15.476  -0.186  60.946  0.00  0.00    +0.000 C 
ATOM     33  C   UNL     1      19.703   0.775  63.229  0.00  0.00    +0.000 C 
ATOM     34  C   UNL     1      13.646  -0.704  59.498  0.00  0.00    +0.000 C 
BRANCH  25  35
ATOM     35  O   UNL     1      18.985   2.207  61.502  0.00  0.00    +0.000 OA
ATOM     36  H   UNL     1      18.067   2.125  61.190  0.00  0.00    +0.000 HD
ENDBRANCH  25  35
ENDBRANCH  20  24
ENDBRANCH   3  19
TORSDOF 4
ENDMDL
MODEL 7
REMARK VINA RESULT:      -4.6     16.860     21.442
REMARK  Name = 44423609_SipholenoneA.pdbqt.pdb
REMARK  4 active torsions:
REMARK  status: ('A' for Active; 'I' for Inactive)
REMARK    1  A    between atoms: C_3  and  C_19
REMARK    2  A    between atoms: C_5  and  O_17
REMARK    3  A    between atoms: C_20  and  C_24
REMARK    4  A    between atoms: C_25  and  O_35
REMARK                            x       y       z     vdW  Elec       q    Type
REMARK                         _______ _______ _______ _____ _____    ______ ____
ROOT
ATOM      1  O   UNL     1       8.945  13.735  60.470  0.00  0.00    +0.000 OA
ATOM      2  O   UNL     1       6.957  12.010  57.868  0.00  0.00    +0.000 OA
ATOM      3  C   UNL     1      12.726  13.159  59.479  0.00  0.00    +0.000 C 
ATOM      4  C   UNL     1      11.301  13.697  59.366  0.00  0.00    +0.000 C 
ATOM      5  C   UNL     1      13.399  13.060  60.838  0.00  0.00    +0.000 C 
ATOM      6  C   UNL     1      10.308  13.440  60.575  0.00  0.00    +0.000 C 
ATOM      7  C   UNL     1      12.388  13.169  61.872  0.00  0.00    +0.000 C 
ATOM      8  C   UNL     1      10.905  13.338  61.847  0.00  0.00    +0.000 C 
ATOM      9  C   UNL     1      10.580  13.031  58.268  0.00  0.00    +0.000 C 
ATOM     10  C   UNL     1      11.344  15.229  59.104  0.00  0.00    +0.000 C 
ATOM     11  C   UNL     1      14.193  11.756  60.963  0.00  0.00    +0.000 C 
ATOM     12  C   UNL     1       9.200  12.516  57.919  0.00  0.00    +0.000 C 
ATOM     13  C   UNL     1       7.990  12.676  60.126  0.00  0.00    +0.000 C 
ATOM     14  C   UNL     1       7.909  12.370  58.549  0.00  0.00    +0.000 C 
ATOM     15  C   UNL     1       6.610  13.201  60.641  0.00  0.00    +0.000 C 
ATOM     16  C   UNL     1       8.346  11.346  60.890  0.00  0.00    +0.000 C 
ENDROOT
BRANCH   5  17
ATOM     17  O   UNL     1      14.337  14.098  60.979  0.00  0.00    +0.000 OA
ATOM     18  H   UNL     1      13.770  14.822  61.302  0.00  0.00    +0.000 HD
ENDBRANCH   5  17
BRANCH   3  19
ATOM     19  C   UNL     1      13.513  12.994  58.284  0.00  0.00    +0.000 C 
ATOM     20  C   UNL     1      14.354  12.829  57.016  0.00  0.00    +0.000 C 
BRANCH  20  24
ATOM     21  C   UNL     1      17.556  11.674  55.755  0.00  0.00    +0.000 C 
ATOM     22  C   UNL     1      16.665  12.940  55.802  0.00  0.00    +0.000 C 
ATOM     23  C   UNL     1      17.615  10.682  54.622  0.00  0.00    +0.000 C 
ATOM     24  C   UNL     1      15.138  12.684  55.823  0.00  0.00    +0.000 C 
ATOM     25  C   UNL     1      18.635   9.573  54.888  0.00  0.00    +0.000 C 
ATOM     26  C   UNL     1      18.515  11.248  56.718  0.00  0.00    +0.000 C 
ATOM     27  C   UNL     1      19.157  10.000  56.180  0.00  0.00    +0.000 C 
ATOM     28  C   UNL     1      16.446  10.605  53.837  0.00  0.00    +0.000 C 
ATOM     29  C   UNL     1      14.469  12.187  54.619  0.00  0.00    +0.000 C 
ATOM     30  C   UNL     1      17.060  13.762  57.089  0.00  0.00    +0.000 C 
ATOM     31  C   UNL     1      17.033  13.850  54.581  0.00  0.00    +0.000 C 
ATOM     32  C   UNL     1      15.122  11.318  53.914  0.00  0.00    +0.000 C 
ATOM     33  C   UNL     1      19.649   9.449  53.764  0.00  0.00    +0.000 C 
ATOM     34  C   UNL     1      12.982  12.270  54.390  0.00  0.00    +0.000 C 
BRANCH  25  35
ATOM     35  O   UNL     1      17.991   8.329  55.005  0.00  0.00    +0.000 OA
ATOM     36  H   UNL     1      18.570   7.885  55.648  0.00  0.00    +0.000 HD
ENDBRANCH  25  35
ENDBRANCH  20  24
ENDBRANCH   3  19
TORSDOF 4
ENDMDL
MODEL 8
REMARK VINA RESULT:      -4.3     21.253     24.123
REMARK  Name = 44423609_SipholenoneA.pdbqt.pdb
REMARK  4 active torsions:
REMARK  status: ('A' for Active; 'I' for Inactive)
REMARK    1  A    between atoms: C_3  and  C_19
REMARK    2  A    between atoms: C_5  and  O_17
REMARK    3  A    between atoms: C_20  and  C_24
REMARK    4  A    between atoms: C_25  and  O_35
REMARK                            x       y       z     vdW  Elec       q    Type
REMARK                         _______ _______ _______ _____ _____    ______ ____
ROOT
ATOM      1  O   UNL     1      24.440   5.277  53.634  0.00  0.00    +0.000 OA
ATOM      2  O   UNL     1      22.195   8.056  52.668  0.00  0.00    +0.000 OA
ATOM      3  C   UNL     1      22.064   2.339  54.789  0.00  0.00    +0.000 C 
ATOM      4  C   UNL     1      22.724   3.331  53.834  0.00  0.00    +0.000 C 
ATOM      5  C   UNL     1      22.878   1.689  55.896  0.00  0.00    +0.000 C 
ATOM      6  C   UNL     1      23.913   4.222  54.387  0.00  0.00    +0.000 C 
ATOM      7  C   UNL     1      24.110   2.434  56.073  0.00  0.00    +0.000 C 
ATOM      8  C   UNL     1      24.680   3.647  55.419  0.00  0.00    +0.000 C 
ATOM      9  C   UNL     1      21.766   4.370  53.421  0.00  0.00    +0.000 C 
ATOM     10  C   UNL     1      23.242   2.576  52.577  0.00  0.00    +0.000 C 
ATOM     11  C   UNL     1      22.072   1.616  57.197  0.00  0.00    +0.000 C 
ATOM     12  C   UNL     1      21.710   5.851  53.110  0.00  0.00    +0.000 C 
ATOM     13  C   UNL     1      23.978   6.650  53.872  0.00  0.00    +0.000 C 
ATOM     14  C   UNL     1      22.590   6.996  53.138  0.00  0.00    +0.000 C 
ATOM     15  C   UNL     1      25.121   7.557  53.311  0.00  0.00    +0.000 C 
ATOM     16  C   UNL     1      23.824   6.919  55.415  0.00  0.00    +0.000 C 
ENDROOT
BRANCH   5  17
ATOM     17  O   UNL     1      23.172   0.359  55.549  0.00  0.00    +0.000 OA
ATOM     18  H   UNL     1      24.135   0.335  55.694  0.00  0.00    +0.000 HD
ENDBRANCH   5  17
BRANCH   3  19
ATOM     19  C   UNL     1      20.753   1.830  54.480  0.00  0.00    +0.000 C 
ATOM     20  C   UNL     1      19.356   1.301  54.145  0.00  0.00    +0.000 C 
BRANCH  20  24
ATOM     21  C   UNL     1      17.109   0.510  51.406  0.00  0.00    +0.000 C 
ATOM     22  C   UNL     1      17.197   1.392  52.676  0.00  0.00    +0.000 C 
ATOM     23  C   UNL     1      16.460  -0.848  51.322  0.00  0.00    +0.000 C 
ATOM     24  C   UNL     1      18.043   0.812  53.836  0.00  0.00    +0.000 C 
ATOM     25  C   UNL     1      16.514  -1.419  49.903  0.00  0.00    +0.000 C 
ATOM     26  C   UNL     1      17.554   0.829  50.091  0.00  0.00    +0.000 C 
ATOM     27  C   UNL     1      17.181  -0.327  49.205  0.00  0.00    +0.000 C 
ATOM     28  C   UNL     1      16.417  -1.563  52.536  0.00  0.00    +0.000 C 
ATOM     29  C   UNL     1      17.541  -0.334  54.597  0.00  0.00    +0.000 C 
ATOM     30  C   UNL     1      17.801   2.787  52.255  0.00  0.00    +0.000 C 
ATOM     31  C   UNL     1      15.743   1.687  53.176  0.00  0.00    +0.000 C 
ATOM     32  C   UNL     1      16.912  -1.243  53.921  0.00  0.00    +0.000 C 
ATOM     33  C   UNL     1      15.138  -1.801  49.388  0.00  0.00    +0.000 C 
ATOM     34  C   UNL     1      18.059  -0.732  55.955  0.00  0.00    +0.000 C 
BRANCH  25  35
ATOM     35  O   UNL     1      17.308  -2.580  49.871  0.00  0.00    +0.000 OA
ATOM     36  H   UNL     1      16.624  -3.268  49.944  0.00  0.00    +0.000 HD
ENDBRANCH  25  35
ENDBRANCH  20  24
ENDBRANCH   3  19
TORSDOF 4
ENDMDL
MODEL 9
REMARK VINA RESULT:      -4.2     15.923     18.196
REMARK  Name = 44423609_SipholenoneA.pdbqt.pdb
REMARK  4 active torsions:
REMARK  status: ('A' for Active; 'I' for Inactive)
REMARK    1  A    between atoms: C_3  and  C_19
REMARK    2  A    between atoms: C_5  and  O_17
REMARK    3  A    between atoms: C_20  and  C_24
REMARK    4  A    between atoms: C_25  and  O_35
REMARK                            x       y       z     vdW  Elec       q    Type
REMARK                         _______ _______ _______ _____ _____    ______ ____
ROOT
ATOM      1  O   UNL     1      10.236  14.832  60.893  0.00  0.00    +0.000 OA
ATOM      2  O   UNL     1      13.024  12.507  61.610  0.00  0.00    +0.000 OA
ATOM      3  C   UNL     1       7.626  12.748  58.781  0.00  0.00    +0.000 C 
ATOM      4  C   UNL     1       8.449  13.165  59.998  0.00  0.00    +0.000 C 
ATOM      5  C   UNL     1       7.060  13.803  57.845  0.00  0.00    +0.000 C 
ATOM      6  C   UNL     1       9.317  14.487  59.895  0.00  0.00    +0.000 C 
ATOM      7  C   UNL     1       7.735  15.063  58.093  0.00  0.00    +0.000 C 
ATOM      8  C   UNL     1       8.819  15.481  59.029  0.00  0.00    +0.000 C 
ATOM      9  C   UNL     1       9.493  12.168  60.285  0.00  0.00    +0.000 C 
ATOM     10  C   UNL     1       7.514  13.306  61.233  0.00  0.00    +0.000 C 
ATOM     11  C   UNL     1       7.199  13.369  56.382  0.00  0.00    +0.000 C 
ATOM     12  C   UNL     1      10.926  12.082  60.766  0.00  0.00    +0.000 C 
ATOM     13  C   UNL     1      11.655  14.496  60.730  0.00  0.00    +0.000 C 
ATOM     14  C   UNL     1      12.004  12.976  61.121  0.00  0.00    +0.000 C 
ATOM     15  C   UNL     1      12.409  15.480  61.683  0.00  0.00    +0.000 C 
ATOM     16  C   UNL     1      12.117  14.766  59.250  0.00  0.00    +0.000 C 
ENDROOT
BRANCH   5  17
ATOM     17  O   UNL     1       5.681  13.950  58.074  0.00  0.00    +0.000 OA
ATOM     18  H   UNL     1       5.395  13.019  58.101  0.00  0.00    +0.000 HD
ENDBRANCH   5  17
BRANCH   3  19
ATOM     19  C   UNL     1       7.174  11.385  58.670  0.00  0.00    +0.000 C 
ATOM     20  C   UNL     1       6.686   9.938  58.562  0.00  0.00    +0.000 C 
BRANCH  20  24
ATOM     21  C   UNL     1       5.675   7.064  60.535  0.00  0.00    +0.000 C 
ATOM     22  C   UNL     1       6.705   7.483  59.456  0.00  0.00    +0.000 C 
ATOM     23  C   UNL     1       4.354   6.387  60.274  0.00  0.00    +0.000 C 
ATOM     24  C   UNL     1       6.232   8.580  58.471  0.00  0.00    +0.000 C 
ATOM     25  C   UNL     1       3.607   6.075  61.571  0.00  0.00    +0.000 C 
ATOM     26  C   UNL     1       5.803   7.172  61.950  0.00  0.00    +0.000 C 
ATOM     27  C   UNL     1       4.566   6.568  62.553  0.00  0.00    +0.000 C 
ATOM     28  C   UNL     1       3.801   6.635  59.000  0.00  0.00    +0.000 C 
ATOM     29  C   UNL     1       5.219   8.262  57.463  0.00  0.00    +0.000 C 
ATOM     30  C   UNL     1       8.002   7.990  60.197  0.00  0.00    +0.000 C 
ATOM     31  C   UNL     1       7.137   6.205  58.660  0.00  0.00    +0.000 C 
ATOM     32  C   UNL     1       4.267   7.466  57.835  0.00  0.00    +0.000 C 
ATOM     33  C   UNL     1       3.235   4.606  61.677  0.00  0.00    +0.000 C 
ATOM     34  C   UNL     1       4.969   9.095  56.232  0.00  0.00    +0.000 C 
BRANCH  25  35
ATOM     35  O   UNL     1       2.411   6.812  61.640  0.00  0.00    +0.000 OA
ATOM     36  H   UNL     1       2.341   6.953  62.601  0.00  0.00    +0.000 HD
ENDBRANCH  25  35
ENDBRANCH  20  24
ENDBRANCH   3  19
TORSDOF 4
ENDMDL
