MODEL 1
REMARK VINA RESULT:      -3.8      0.000      0.000
REMARK  Name = 445154_Resveratrol.pdbqt.pdb
REMARK  5 active torsions:
REMARK  status: ('A' for Active; 'I' for Inactive)
REMARK    1  A    between atoms: C_1  and  C_11
REMARK    2  A    between atoms: C_4  and  O_7
REMARK    3  A    between atoms: C_5  and  O_9
REMARK    4  A    between atoms: C_12  and  C_13
REMARK    5  A    between atoms: C_18  and  O_19
REMARK                            x       y       z     vdW  Elec       q    Type
REMARK                         _______ _______ _______ _____ _____    ______ ____
ROOT
ATOM      1  C   UNL     1       6.654   7.847  60.719  0.00  0.00    +0.000 A 
ATOM      2  C   UNL     1       6.145   7.607  61.995  0.00  0.00    +0.000 A 
ATOM      3  C   UNL     1       6.452   6.921  59.697  0.00  0.00    +0.000 A 
ATOM      4  C   UNL     1       5.737   5.756  59.961  0.00  0.00    +0.000 A 
ATOM      5  C   UNL     1       5.434   6.436  62.238  0.00  0.00    +0.000 A 
ATOM      6  C   UNL     1       5.223   5.503  61.228  0.00  0.00    +0.000 A 
ENDROOT
BRANCH   4   7
ATOM      7  O   UNL     1       5.523   4.832  58.979  0.00  0.00    +0.000 OA
ATOM      8  H   UNL     1       4.621   4.959  58.633  0.00  0.00    +0.000 HD
ENDBRANCH   4   7
BRANCH   5   9
ATOM      9  O   UNL     1       4.944   6.222  63.494  0.00  0.00    +0.000 OA
ATOM     10  H   UNL     1       5.419   6.812  64.106  0.00  0.00    +0.000 HD
ENDBRANCH   5   9
BRANCH   1  11
ATOM     11  C   UNL     1       7.386   9.043  60.458  0.00  0.00    +0.000 C 
ATOM     12  C   UNL     1       8.003  10.050  60.237  0.00  0.00    +0.000 C 
BRANCH  12  13
ATOM     13  C   UNL     1       8.734  11.246  59.975  0.00  0.00    +0.000 A 
ATOM     14  C   UNL     1       8.390  12.046  58.886  0.00  0.00    +0.000 A 
ATOM     15  C   UNL     1       9.792  11.612  60.807  0.00  0.00    +0.000 A 
ATOM     16  C   UNL     1       9.102  13.214  58.628  0.00  0.00    +0.000 A 
ATOM     17  C   UNL     1      10.506  12.779  60.553  0.00  0.00    +0.000 A 
ATOM     18  C   UNL     1      10.156  13.571  59.464  0.00  0.00    +0.000 A 
BRANCH  18  19
ATOM     19  O   UNL     1      10.871  14.710  59.234  0.00  0.00    +0.000 OA
ATOM     20  H   UNL     1      10.250  15.414  58.977  0.00  0.00    +0.000 HD
ENDBRANCH  18  19
ENDBRANCH  12  13
ENDBRANCH   1  11
TORSDOF 5
ENDMDL
MODEL 2
REMARK VINA RESULT:      -3.8     10.107     12.248
REMARK  Name = 445154_Resveratrol.pdbqt.pdb
REMARK  5 active torsions:
REMARK  status: ('A' for Active; 'I' for Inactive)
REMARK    1  A    between atoms: C_1  and  C_11
REMARK    2  A    between atoms: C_4  and  O_7
REMARK    3  A    between atoms: C_5  and  O_9
REMARK    4  A    between atoms: C_12  and  C_13
REMARK    5  A    between atoms: C_18  and  O_19
REMARK                            x       y       z     vdW  Elec       q    Type
REMARK                         _______ _______ _______ _____ _____    ______ ____
ROOT
ATOM      1  C   UNL     1      18.281   9.438  56.272  0.00  0.00    +0.000 A 
ATOM      2  C   UNL     1      17.386  10.049  55.394  0.00  0.00    +0.000 A 
ATOM      3  C   UNL     1      19.344   8.683  55.779  0.00  0.00    +0.000 A 
ATOM      4  C   UNL     1      19.504   8.544  54.402  0.00  0.00    +0.000 A 
ATOM      5  C   UNL     1      17.564   9.898  54.023  0.00  0.00    +0.000 A 
ATOM      6  C   UNL     1      18.620   9.148  53.515  0.00  0.00    +0.000 A 
ENDROOT
BRANCH   4   7
ATOM      7  O   UNL     1      20.535   7.811  53.891  0.00  0.00    +0.000 OA
ATOM      8  H   UNL     1      21.145   8.420  53.438  0.00  0.00    +0.000 HD
ENDBRANCH   4   7
BRANCH   5   9
ATOM      9  O   UNL     1      16.676  10.505  53.182  0.00  0.00    +0.000 OA
ATOM     10  H   UNL     1      16.309   9.824  52.590  0.00  0.00    +0.000 HD
ENDBRANCH   5   9
BRANCH   1  11
ATOM     11  C   UNL     1      18.109   9.585  57.680  0.00  0.00    +0.000 C 
ATOM     12  C   UNL     1      17.963   9.709  58.867  0.00  0.00    +0.000 C 
BRANCH  12  13
ATOM     13  C   UNL     1      17.791   9.855  60.275  0.00  0.00    +0.000 A 
ATOM     14  C   UNL     1      18.761   9.364  61.148  0.00  0.00    +0.000 A 
ATOM     15  C   UNL     1      16.653  10.487  60.774  0.00  0.00    +0.000 A 
ATOM     16  C   UNL     1      18.595   9.506  62.523  0.00  0.00    +0.000 A 
ATOM     17  C   UNL     1      16.483  10.630  62.149  0.00  0.00    +0.000 A 
ATOM     18  C   UNL     1      17.456  10.138  63.012  0.00  0.00    +0.000 A 
BRANCH  18  19
ATOM     19  O   UNL     1      17.267  10.290  64.355  0.00  0.00    +0.000 OA
ATOM     20  H   UNL     1      17.624  11.157  64.617  0.00  0.00    +0.000 HD
ENDBRANCH  18  19
ENDBRANCH  12  13
ENDBRANCH   1  11
TORSDOF 5
ENDMDL
MODEL 3
REMARK VINA RESULT:      -3.8     10.077     12.303
REMARK  Name = 445154_Resveratrol.pdbqt.pdb
REMARK  5 active torsions:
REMARK  status: ('A' for Active; 'I' for Inactive)
REMARK    1  A    between atoms: C_1  and  C_11
REMARK    2  A    between atoms: C_4  and  O_7
REMARK    3  A    between atoms: C_5  and  O_9
REMARK    4  A    between atoms: C_12  and  C_13
REMARK    5  A    between atoms: C_18  and  O_19
REMARK                            x       y       z     vdW  Elec       q    Type
REMARK                         _______ _______ _______ _____ _____    ______ ____
ROOT
ATOM      1  C   UNL     1      18.443   9.362  56.328  0.00  0.00    +0.000 A 
ATOM      2  C   UNL     1      19.562   8.660  55.882  0.00  0.00    +0.000 A 
ATOM      3  C   UNL     1      17.541   9.902  55.412  0.00  0.00    +0.000 A 
ATOM      4  C   UNL     1      17.768   9.733  54.048  0.00  0.00    +0.000 A 
ATOM      5  C   UNL     1      19.770   8.503  54.515  0.00  0.00    +0.000 A 
ATOM      6  C   UNL     1      18.879   9.034  53.588  0.00  0.00    +0.000 A 
ENDROOT
BRANCH   4   7
ATOM      7  O   UNL     1      16.902  10.249  53.128  0.00  0.00    +0.000 OA
ATOM      8  H   UNL     1      16.433  10.997  53.539  0.00  0.00    +0.000 HD
ENDBRANCH   4   7
BRANCH   5   9
ATOM      9  O   UNL     1      20.872   7.811  54.102  0.00  0.00    +0.000 OA
ATOM     10  H   UNL     1      21.348   8.363  53.456  0.00  0.00    +0.000 HD
ENDBRANCH   5   9
BRANCH   1  11
ATOM     11  C   UNL     1      18.219   9.532  57.726  0.00  0.00    +0.000 C 
ATOM     12  C   UNL     1      18.030   9.674  58.904  0.00  0.00    +0.000 C 
BRANCH  12  13
ATOM     13  C   UNL     1      17.805   9.842  60.303  0.00  0.00    +0.000 A 
ATOM     14  C   UNL     1      16.644  10.472  60.749  0.00  0.00    +0.000 A 
ATOM     15  C   UNL     1      18.748   9.377  61.219  0.00  0.00    +0.000 A 
ATOM     16  C   UNL     1      16.422  10.637  62.113  0.00  0.00    +0.000 A 
ATOM     17  C   UNL     1      18.530   9.541  62.585  0.00  0.00    +0.000 A 
ATOM     18  C   UNL     1      17.369  10.170  63.021  0.00  0.00    +0.000 A 
BRANCH  18  19
ATOM     19  O   UNL     1      17.178  10.319  64.364  0.00  0.00    +0.000 OA
ATOM     20  H   UNL     1      16.233  10.184  64.554  0.00  0.00    +0.000 HD
ENDBRANCH  18  19
ENDBRANCH  12  13
ENDBRANCH   1  11
TORSDOF 5
ENDMDL
MODEL 4
REMARK VINA RESULT:      -3.8      6.430      9.353
REMARK  Name = 445154_Resveratrol.pdbqt.pdb
REMARK  5 active torsions:
REMARK  status: ('A' for Active; 'I' for Inactive)
REMARK    1  A    between atoms: C_1  and  C_11
REMARK    2  A    between atoms: C_4  and  O_7
REMARK    3  A    between atoms: C_5  and  O_9
REMARK    4  A    between atoms: C_12  and  C_13
REMARK    5  A    between atoms: C_18  and  O_19
REMARK                            x       y       z     vdW  Elec       q    Type
REMARK                         _______ _______ _______ _____ _____    ______ ____
ROOT
ATOM      1  C   UNL     1      16.467  10.555  61.144  0.00  0.00    +0.000 A 
ATOM      2  C   UNL     1      17.027  10.401  62.412  0.00  0.00    +0.000 A 
ATOM      3  C   UNL     1      17.130  10.066  60.019  0.00  0.00    +0.000 A 
ATOM      4  C   UNL     1      18.355   9.421  60.173  0.00  0.00    +0.000 A 
ATOM      5  C   UNL     1      18.252   9.754  62.543  0.00  0.00    +0.000 A 
ATOM      6  C   UNL     1      18.926   9.260  61.431  0.00  0.00    +0.000 A 
ENDROOT
BRANCH   4   7
ATOM      7  O   UNL     1      19.026   8.932  59.090  0.00  0.00    +0.000 OA
ATOM      8  H   UNL     1      18.595   9.272  58.286  0.00  0.00    +0.000 HD
ENDBRANCH   4   7
BRANCH   5   9
ATOM      9  O   UNL     1      18.782   9.614  63.794  0.00  0.00    +0.000 OA
ATOM     10  H   UNL     1      18.382   8.826  64.203  0.00  0.00    +0.000 HD
ENDBRANCH   5   9
BRANCH   1  11
ATOM     11  C   UNL     1      15.213  11.217  60.996  0.00  0.00    +0.000 C 
ATOM     12  C   UNL     1      14.155  11.774  60.871  0.00  0.00    +0.000 C 
BRANCH  12  13
ATOM     13  C   UNL     1      12.901  12.436  60.723  0.00  0.00    +0.000 A 
ATOM     14  C   UNL     1      12.348  13.126  61.802  0.00  0.00    +0.000 A 
ATOM     15  C   UNL     1      12.230  12.391  59.501  0.00  0.00    +0.000 A 
ATOM     16  C   UNL     1      11.124  13.773  61.660  0.00  0.00    +0.000 A 
ATOM     17  C   UNL     1      11.006  13.037  59.356  0.00  0.00    +0.000 A 
ATOM     18  C   UNL     1      10.462  13.723  60.437  0.00  0.00    +0.000 A 
BRANCH  18  19
ATOM     19  O   UNL     1       9.261  14.348  60.270  0.00  0.00    +0.000 OA
ATOM     20  H   UNL     1       8.597  13.883  60.808  0.00  0.00    +0.000 HD
ENDBRANCH  18  19
ENDBRANCH  12  13
ENDBRANCH   1  11
TORSDOF 5
ENDMDL
MODEL 5
REMARK VINA RESULT:      -3.7     14.279     15.054
REMARK  Name = 445154_Resveratrol.pdbqt.pdb
REMARK  5 active torsions:
REMARK  status: ('A' for Active; 'I' for Inactive)
REMARK    1  A    between atoms: C_1  and  C_11
REMARK    2  A    between atoms: C_4  and  O_7
REMARK    3  A    between atoms: C_5  and  O_9
REMARK    4  A    between atoms: C_12  and  C_13
REMARK    5  A    between atoms: C_18  and  O_19
REMARK                            x       y       z     vdW  Elec       q    Type
REMARK                         _______ _______ _______ _____ _____    ______ ____
ROOT
ATOM      1  C   UNL     1      15.584  -0.085  53.288  0.00  0.00    +0.000 A 
ATOM      2  C   UNL     1      14.527  -0.201  54.189  0.00  0.00    +0.000 A 
ATOM      3  C   UNL     1      15.380  -0.338  51.931  0.00  0.00    +0.000 A 
ATOM      4  C   UNL     1      14.114  -0.706  51.486  0.00  0.00    +0.000 A 
ATOM      5  C   UNL     1      13.269  -0.571  53.724  0.00  0.00    +0.000 A 
ATOM      6  C   UNL     1      13.050  -0.825  52.374  0.00  0.00    +0.000 A 
ENDROOT
BRANCH   4   7
ATOM      7  O   UNL     1      13.885  -0.959  50.164  0.00  0.00    +0.000 OA
ATOM      8  H   UNL     1      14.065  -0.143  49.664  0.00  0.00    +0.000 HD
ENDBRANCH   4   7
BRANCH   5   9
ATOM      9  O   UNL     1      12.248  -0.678  54.625  0.00  0.00    +0.000 OA
ATOM     10  H   UNL     1      11.441  -0.920  54.137  0.00  0.00    +0.000 HD
ENDBRANCH   5   9
BRANCH   1  11
ATOM     11  C   UNL     1      16.878   0.292  53.752  0.00  0.00    +0.000 C 
ATOM     12  C   UNL     1      17.969   0.610  54.143  0.00  0.00    +0.000 C 
BRANCH  12  13
ATOM     13  C   UNL     1      19.263   0.989  54.607  0.00  0.00    +0.000 A 
ATOM     14  C   UNL     1      20.011   1.925  53.894  0.00  0.00    +0.000 A 
ATOM     15  C   UNL     1      19.778   0.421  55.772  0.00  0.00    +0.000 A 
ATOM     16  C   UNL     1      21.274   2.296  54.345  0.00  0.00    +0.000 A 
ATOM     17  C   UNL     1      21.041   0.789  56.227  0.00  0.00    +0.000 A 
ATOM     18  C   UNL     1      21.780   1.724  55.509  0.00  0.00    +0.000 A 
BRANCH  18  19
ATOM     19  O   UNL     1      23.015   2.069  55.974  0.00  0.00    +0.000 OA
ATOM     20  H   UNL     1      23.342   2.818  55.445  0.00  0.00    +0.000 HD
ENDBRANCH  18  19
ENDBRANCH  12  13
ENDBRANCH   1  11
TORSDOF 5
ENDMDL
MODEL 6
REMARK VINA RESULT:      -3.6      5.906      8.744
REMARK  Name = 445154_Resveratrol.pdbqt.pdb
REMARK  5 active torsions:
REMARK  status: ('A' for Active; 'I' for Inactive)
REMARK    1  A    between atoms: C_1  and  C_11
REMARK    2  A    between atoms: C_4  and  O_7
REMARK    3  A    between atoms: C_5  and  O_9
REMARK    4  A    between atoms: C_12  and  C_13
REMARK    5  A    between atoms: C_18  and  O_19
REMARK                            x       y       z     vdW  Elec       q    Type
REMARK                         _______ _______ _______ _____ _____    ______ ____
ROOT
ATOM      1  C   UNL     1      12.393  12.957  61.569  0.00  0.00    +0.000 A 
ATOM      2  C   UNL     1      11.140  12.492  61.172  0.00  0.00    +0.000 A 
ATOM      3  C   UNL     1      12.496  14.075  62.396  0.00  0.00    +0.000 A 
ATOM      4  C   UNL     1      11.338  14.722  62.821  0.00  0.00    +0.000 A 
ATOM      5  C   UNL     1       9.996  13.152  61.606  0.00  0.00    +0.000 A 
ATOM      6  C   UNL     1      10.082  14.269  62.432  0.00  0.00    +0.000 A 
ENDROOT
BRANCH   4   7
ATOM      7  O   UNL     1      11.409  15.818  63.630  0.00  0.00    +0.000 OA
ATOM      8  H   UNL     1      10.869  15.646  64.422  0.00  0.00    +0.000 HD
ENDBRANCH   4   7
BRANCH   5   9
ATOM      9  O   UNL     1       8.780  12.679  61.204  0.00  0.00    +0.000 OA
ATOM     10  H   UNL     1       8.692  11.765  61.528  0.00  0.00    +0.000 HD
ENDBRANCH   5   9
BRANCH   1  11
ATOM     11  C   UNL     1      13.574  12.289  61.130  0.00  0.00    +0.000 C 
ATOM     12  C   UNL     1      14.569  11.727  60.759  0.00  0.00    +0.000 C 
BRANCH  12  13
ATOM     13  C   UNL     1      15.750  11.059  60.321  0.00  0.00    +0.000 A 
ATOM     14  C   UNL     1      16.492  11.582  59.262  0.00  0.00    +0.000 A 
ATOM     15  C   UNL     1      16.160   9.884  60.951  0.00  0.00    +0.000 A 
ATOM     16  C   UNL     1      17.645  10.933  58.832  0.00  0.00    +0.000 A 
ATOM     17  C   UNL     1      17.313   9.231  60.523  0.00  0.00    +0.000 A 
ATOM     18  C   UNL     1      18.046   9.760  59.467  0.00  0.00    +0.000 A 
BRANCH  18  19
ATOM     19  O   UNL     1      19.172   9.103  59.066  0.00  0.00    +0.000 OA
ATOM     20  H   UNL     1      19.143   9.010  58.098  0.00  0.00    +0.000 HD
ENDBRANCH  18  19
ENDBRANCH  12  13
ENDBRANCH   1  11
TORSDOF 5
ENDMDL
MODEL 7
REMARK VINA RESULT:      -3.6      9.587     12.461
REMARK  Name = 445154_Resveratrol.pdbqt.pdb
REMARK  5 active torsions:
REMARK  status: ('A' for Active; 'I' for Inactive)
REMARK    1  A    between atoms: C_1  and  C_11
REMARK    2  A    between atoms: C_4  and  O_7
REMARK    3  A    between atoms: C_5  and  O_9
REMARK    4  A    between atoms: C_12  and  C_13
REMARK    5  A    between atoms: C_18  and  O_19
REMARK                            x       y       z     vdW  Elec       q    Type
REMARK                         _______ _______ _______ _____ _____    ______ ____
ROOT
ATOM      1  C   UNL     1       2.235   7.951  68.905  0.00  0.00    +0.000 A 
ATOM      2  C   UNL     1       2.514   6.734  68.283  0.00  0.00    +0.000 A 
ATOM      3  C   UNL     1       1.503   8.930  68.235  0.00  0.00    +0.000 A 
ATOM      4  C   UNL     1       1.051   8.682  66.941  0.00  0.00    +0.000 A 
ATOM      5  C   UNL     1       2.055   6.507  66.990  0.00  0.00    +0.000 A 
ATOM      6  C   UNL     1       1.322   7.473  66.309  0.00  0.00    +0.000 A 
ENDROOT
BRANCH   4   7
ATOM      7  O   UNL     1       0.332   9.621  66.262  0.00  0.00    +0.000 OA
ATOM      8  H   UNL     1      -0.583   9.299  66.176  0.00  0.00    +0.000 HD
ENDBRANCH   4   7
BRANCH   5   9
ATOM      9  O   UNL     1       2.339   5.308  66.401  0.00  0.00    +0.000 OA
ATOM     10  H   UNL     1       2.874   4.786  67.026  0.00  0.00    +0.000 HD
ENDBRANCH   5   9
BRANCH   1  11
ATOM     11  C   UNL     1       2.702   8.197  70.230  0.00  0.00    +0.000 C 
ATOM     12  C   UNL     1       3.094   8.404  71.347  0.00  0.00    +0.000 C 
BRANCH  12  13
ATOM     13  C   UNL     1       3.560   8.649  72.672  0.00  0.00    +0.000 A 
ATOM     14  C   UNL     1       4.339   9.775  72.938  0.00  0.00    +0.000 A 
ATOM     15  C   UNL     1       3.235   7.762  73.699  0.00  0.00    +0.000 A 
ATOM     16  C   UNL     1       4.794  10.016  74.231  0.00  0.00    +0.000 A 
ATOM     17  C   UNL     1       3.689   8.000  74.993  0.00  0.00    +0.000 A 
ATOM     18  C   UNL     1       4.466   9.126  75.249  0.00  0.00    +0.000 A 
BRANCH  18  19
ATOM     19  O   UNL     1       4.899   9.338  76.525  0.00  0.00    +0.000 OA
ATOM     20  H   UNL     1       4.216   9.014  77.137  0.00  0.00    +0.000 HD
ENDBRANCH  18  19
ENDBRANCH  12  13
ENDBRANCH   1  11
TORSDOF 5
ENDMDL
MODEL 8
REMARK VINA RESULT:      -3.5      6.075      9.151
REMARK  Name = 445154_Resveratrol.pdbqt.pdb
REMARK  5 active torsions:
REMARK  status: ('A' for Active; 'I' for Inactive)
REMARK    1  A    between atoms: C_1  and  C_11
REMARK    2  A    between atoms: C_4  and  O_7
REMARK    3  A    between atoms: C_5  and  O_9
REMARK    4  A    between atoms: C_12  and  C_13
REMARK    5  A    between atoms: C_18  and  O_19
REMARK                            x       y       z     vdW  Elec       q    Type
REMARK                         _______ _______ _______ _____ _____    ______ ____
ROOT
ATOM      1  C   UNL     1      13.004  12.165  59.317  0.00  0.00    +0.000 A 
ATOM      2  C   UNL     1      13.056  12.470  57.957  0.00  0.00    +0.000 A 
ATOM      3  C   UNL     1      11.826  12.360  60.036  0.00  0.00    +0.000 A 
ATOM      4  C   UNL     1      10.701  12.861  59.385  0.00  0.00    +0.000 A 
ATOM      5  C   UNL     1      11.922  12.970  57.326  0.00  0.00    +0.000 A 
ATOM      6  C   UNL     1      10.738  13.169  58.029  0.00  0.00    +0.000 A 
ENDROOT
BRANCH   4   7
ATOM      7  O   UNL     1       9.534  13.062  60.063  0.00  0.00    +0.000 OA
ATOM      8  H   UNL     1       9.750  13.209  61.001  0.00  0.00    +0.000 HD
ENDBRANCH   4   7
BRANCH   5   9
ATOM      9  O   UNL     1      11.995  13.261  55.994  0.00  0.00    +0.000 OA
ATOM     10  H   UNL     1      12.440  14.122  55.899  0.00  0.00    +0.000 HD
ENDBRANCH   5   9
BRANCH   1  11
ATOM     11  C   UNL     1      14.160  11.653  59.976  0.00  0.00    +0.000 C 
ATOM     12  C   UNL     1      15.134  11.221  60.533  0.00  0.00    +0.000 C 
BRANCH  12  13
ATOM     13  C   UNL     1      16.289  10.709  61.193  0.00  0.00    +0.000 A 
ATOM     14  C   UNL     1      16.642  11.192  62.452  0.00  0.00    +0.000 A 
ATOM     15  C   UNL     1      17.064   9.726  60.577  0.00  0.00    +0.000 A 
ATOM     16  C   UNL     1      17.769  10.693  63.099  0.00  0.00    +0.000 A 
ATOM     17  C   UNL     1      18.192   9.224  61.220  0.00  0.00    +0.000 A 
ATOM     18  C   UNL     1      18.536   9.712  62.476  0.00  0.00    +0.000 A 
BRANCH  18  19
ATOM     19  O   UNL     1      19.646   9.205  63.087  0.00  0.00    +0.000 OA
ATOM     20  H   UNL     1      19.639   8.238  62.978  0.00  0.00    +0.000 HD
ENDBRANCH  18  19
ENDBRANCH  12  13
ENDBRANCH   1  11
TORSDOF 5
ENDMDL
MODEL 9
REMARK VINA RESULT:      -3.4     15.200     16.574
REMARK  Name = 445154_Resveratrol.pdbqt.pdb
REMARK  5 active torsions:
REMARK  status: ('A' for Active; 'I' for Inactive)
REMARK    1  A    between atoms: C_1  and  C_11
REMARK    2  A    between atoms: C_4  and  O_7
REMARK    3  A    between atoms: C_5  and  O_9
REMARK    4  A    between atoms: C_12  and  C_13
REMARK    5  A    between atoms: C_18  and  O_19
REMARK                            x       y       z     vdW  Elec       q    Type
REMARK                         _______ _______ _______ _____ _____    ______ ____
ROOT
ATOM      1  C   UNL     1      20.580   0.891  55.701  0.00  0.00    +0.000 A 
ATOM      2  C   UNL     1      20.703   0.116  56.853  0.00  0.00    +0.000 A 
ATOM      3  C   UNL     1      21.635   1.701  55.284  0.00  0.00    +0.000 A 
ATOM      4  C   UNL     1      22.812   1.728  56.027  0.00  0.00    +0.000 A 
ATOM      5  C   UNL     1      21.887   0.158  57.582  0.00  0.00    +0.000 A 
ATOM      6  C   UNL     1      22.950   0.960  57.178  0.00  0.00    +0.000 A 
ENDROOT
BRANCH   4   7
ATOM      7  O   UNL     1      23.862   2.511  55.642  0.00  0.00    +0.000 OA
ATOM      8  H   UNL     1      24.036   2.344  54.699  0.00  0.00    +0.000 HD
ENDBRANCH   4   7
BRANCH   5   9
ATOM      9  O   UNL     1      21.986  -0.611  58.706  0.00  0.00    +0.000 OA
ATOM     10  H   UNL     1      21.087  -0.752  59.052  0.00  0.00    +0.000 HD
ENDBRANCH   5   9
BRANCH   1  11
ATOM     11  C   UNL     1      19.370   0.858  54.946  0.00  0.00    +0.000 C 
ATOM     12  C   UNL     1      18.351   0.831  54.310  0.00  0.00    +0.000 C 
BRANCH  12  13
ATOM     13  C   UNL     1      17.142   0.798  53.555  0.00  0.00    +0.000 A 
ATOM     14  C   UNL     1      16.902   1.772  52.585  0.00  0.00    +0.000 A 
ATOM     15  C   UNL     1      16.202  -0.205  53.788  0.00  0.00    +0.000 A 
ATOM     16  C   UNL     1      15.723   1.742  51.846  0.00  0.00    +0.000 A 
ATOM     17  C   UNL     1      15.022  -0.238  53.052  0.00  0.00    +0.000 A 
ATOM     18  C   UNL     1      14.791   0.737  52.086  0.00  0.00    +0.000 A 
BRANCH  18  19
ATOM     19  O   UNL     1      13.626   0.684  51.377  0.00  0.00    +0.000 OA
ATOM     20  H   UNL     1      13.470   1.559  50.981  0.00  0.00    +0.000 HD
ENDBRANCH  18  19
ENDBRANCH  12  13
ENDBRANCH   1  11
TORSDOF 5
ENDMDL
