MODEL 1
REMARK VINA RESULT:      -5.2      0.000      0.000
REMARK  Name = 448438_Violaxanthin.pdbqt.pdb
REMARK  16 active torsions:
REMARK  status: ('A' for Active; 'I' for Inactive)
REMARK    1  A    between atoms: C_1  and  C_5
REMARK    2  A    between atoms: C_2  and  C_27
REMARK    3  A    between atoms: C_3  and  C_5
REMARK    4  A    between atoms: C_3  and  C_7
REMARK    5  A    between atoms: C_6  and  C_10
REMARK    6  A    between atoms: C_8  and  C_10
REMARK    7  A    between atoms: C_8  and  C_12
REMARK    8  A    between atoms: C_11  and  C_14
REMARK    9  A    between atoms: C_19  and  O_23
REMARK   10  A    between atoms: C_25  and  C_27
REMARK   11  A    between atoms: C_25  and  C_29
REMARK   12  A    between atoms: C_28  and  C_32
REMARK   13  A    between atoms: C_30  and  C_32
REMARK   14  A    between atoms: C_30  and  C_34
REMARK   15  A    between atoms: C_33  and  C_36
REMARK   16  A    between atoms: C_41  and  O_45
REMARK                            x       y       z     vdW  Elec       q    Type
REMARK                         _______ _______ _______ _____ _____    ______ ____
ROOT
ATOM      1  C   UNL     1       5.356   4.359  76.273  0.00  0.00    +0.000 C 
ATOM      2  C   UNL     1       6.328   3.724  76.575  0.00  0.00    +0.000 C 
ENDROOT
BRANCH   2   3
ATOM      3  C   UNL     1       7.569   2.910  76.960  0.00  0.00    +0.000 C 
BRANCH   3   4
ATOM      4  C   UNL     1       8.616   2.221  77.286  0.00  0.00    +0.000 C 
ATOM      5  C   UNL     1       8.739   1.663  78.673  0.00  0.00    +0.000 C 
BRANCH   4   7
ATOM      6  C   UNL     1      10.566   1.910  75.570  0.00  0.00    +0.000 C 
ATOM      7  C   UNL     1       9.670   2.053  76.359  0.00  0.00    +0.000 C 
BRANCH   6   8
ATOM      8  C   UNL     1      11.709   1.726  74.565  0.00  0.00    +0.000 C 
BRANCH   8   9
ATOM      9  C   UNL     1      12.674   1.567  73.713  0.00  0.00    +0.000 C 
ATOM     10  C   UNL     1      12.962   0.208  73.155  0.00  0.00    +0.000 C 
BRANCH   9  12
ATOM     11  C   UNL     1      13.961   3.662  72.810  0.00  0.00    +0.000 C 
ATOM     12  C   UNL     1      13.372   2.698  73.220  0.00  0.00    +0.000 C 
BRANCH  11  14
ATOM     13  O   UNL     1      16.031   4.485  71.979  0.00  0.00    +0.000 OA
ATOM     14  C   UNL     1      14.665   4.842  72.331  0.00  0.00    +0.000 C 
ATOM     15  C   UNL     1      15.203   4.873  70.884  0.00  0.00    +0.000 C 
ATOM     16  C   UNL     1      14.471   6.209  73.070  0.00  0.00    +0.000 C 
ATOM     17  C   UNL     1      15.570   6.147  70.358  0.00  0.00    +0.000 C 
ATOM     18  C   UNL     1      15.064   7.255  72.225  0.00  0.00    +0.000 C 
ATOM     19  C   UNL     1      15.583   7.431  70.927  0.00  0.00    +0.000 C 
ATOM     20  C   UNL     1      14.956   3.745  69.878  0.00  0.00    +0.000 C 
ATOM     21  C   UNL     1      12.942   6.417  73.186  0.00  0.00    +0.000 C 
ATOM     22  C   UNL     1      15.167   6.072  74.441  0.00  0.00    +0.000 C 
BRANCH  19  23
ATOM     23  O   UNL     1      16.569   8.326  70.645  0.00  0.00    +0.000 OA
ATOM     24  H   UNL     1      16.864   8.822  71.430  0.00  0.00    +0.000 HD
ENDBRANCH  19  23
ENDBRANCH  11  14
ENDBRANCH   9  12
ENDBRANCH   8   9
ENDBRANCH   6   8
ENDBRANCH   4   7
ENDBRANCH   3   4
ENDBRANCH   2   3
BRANCH   1  25
ATOM     25  C   UNL     1       4.114   5.173  75.888  0.00  0.00    +0.000 C 
BRANCH  25  26
ATOM     26  C   UNL     1       3.064   5.860  75.563  0.00  0.00    +0.000 C 
ATOM     27  C   UNL     1       1.789   5.682  76.332  0.00  0.00    +0.000 C 
BRANCH  26  29
ATOM     28  C   UNL     1       3.184   7.589  73.605  0.00  0.00    +0.000 C 
ATOM     29  C   UNL     1       3.129   6.793  74.503  0.00  0.00    +0.000 C 
BRANCH  28  30
ATOM     30  C   UNL     1       3.250   8.611  72.463  0.00  0.00    +0.000 C 
BRANCH  30  31
ATOM     31  C   UNL     1       3.303   9.471  71.495  0.00  0.00    +0.000 C 
ATOM     32  C   UNL     1       4.113  10.721  71.651  0.00  0.00    +0.000 C 
BRANCH  31  34
ATOM     33  C   UNL     1       2.068   8.982  69.236  0.00  0.00    +0.000 C 
ATOM     34  C   UNL     1       2.632   9.206  70.275  0.00  0.00    +0.000 C 
BRANCH  33  36
ATOM     35  O   UNL     1       0.369   9.719  67.740  0.00  0.00    +0.000 OA
ATOM     36  C   UNL     1       1.391   8.710  67.977  0.00  0.00    +0.000 C 
ATOM     37  C   UNL     1       1.468   9.741  66.831  0.00  0.00    +0.000 C 
ATOM     38  C   UNL     1       1.005   7.231  67.615  0.00  0.00    +0.000 C 
ATOM     39  C   UNL     1       1.099   9.294  65.528  0.00  0.00    +0.000 C 
ATOM     40  C   UNL     1       0.628   7.221  66.200  0.00  0.00    +0.000 C 
ATOM     41  C   UNL     1       0.628   8.054  65.064  0.00  0.00    +0.000 C 
ATOM     42  C   UNL     1       2.289  11.031  66.905  0.00  0.00    +0.000 C 
ATOM     43  C   UNL     1      -0.147   6.843  68.570  0.00  0.00    +0.000 C 
ATOM     44  C   UNL     1       2.288   6.394  67.855  0.00  0.00    +0.000 C 
BRANCH  41  45
ATOM     45  O   UNL     1       0.926   7.567  63.828  0.00  0.00    +0.000 OA
ATOM     46  H   UNL     1       1.368   6.699  63.867  0.00  0.00    +0.000 HD
ENDBRANCH  41  45
ENDBRANCH  33  36
ENDBRANCH  31  34
ENDBRANCH  30  31
ENDBRANCH  28  30
ENDBRANCH  26  29
ENDBRANCH  25  26
ENDBRANCH   1  25
TORSDOF 16
ENDMDL
MODEL 2
REMARK VINA RESULT:      -5.1      4.639     11.322
REMARK  Name = 448438_Violaxanthin.pdbqt.pdb
REMARK  16 active torsions:
REMARK  status: ('A' for Active; 'I' for Inactive)
REMARK    1  A    between atoms: C_1  and  C_5
REMARK    2  A    between atoms: C_2  and  C_27
REMARK    3  A    between atoms: C_3  and  C_5
REMARK    4  A    between atoms: C_3  and  C_7
REMARK    5  A    between atoms: C_6  and  C_10
REMARK    6  A    between atoms: C_8  and  C_10
REMARK    7  A    between atoms: C_8  and  C_12
REMARK    8  A    between atoms: C_11  and  C_14
REMARK    9  A    between atoms: C_19  and  O_23
REMARK   10  A    between atoms: C_25  and  C_27
REMARK   11  A    between atoms: C_25  and  C_29
REMARK   12  A    between atoms: C_28  and  C_32
REMARK   13  A    between atoms: C_30  and  C_32
REMARK   14  A    between atoms: C_30  and  C_34
REMARK   15  A    between atoms: C_33  and  C_36
REMARK   16  A    between atoms: C_41  and  O_45
REMARK                            x       y       z     vdW  Elec       q    Type
REMARK                         _______ _______ _______ _____ _____    ______ ____
ROOT
ATOM      1  C   UNL     1      10.825   2.885  75.720  0.00  0.00    +0.000 C 
ATOM      2  C   UNL     1       9.812   3.085  76.330  0.00  0.00    +0.000 C 
ENDROOT
BRANCH   2   3
ATOM      3  C   UNL     1       8.515   3.339  77.108  0.00  0.00    +0.000 C 
BRANCH   3   4
ATOM      4  C   UNL     1       7.418   3.554  77.763  0.00  0.00    +0.000 C 
ATOM      5  C   UNL     1       7.276   3.046  79.166  0.00  0.00    +0.000 C 
BRANCH   4   7
ATOM      6  C   UNL     1       5.412   4.762  76.597  0.00  0.00    +0.000 C 
ATOM      7  C   UNL     1       6.334   4.207  77.132  0.00  0.00    +0.000 C 
BRANCH   6   8
ATOM      8  C   UNL     1       4.235   5.468  75.914  0.00  0.00    +0.000 C 
BRANCH   8   9
ATOM      9  C   UNL     1       3.238   6.063  75.335  0.00  0.00    +0.000 C 
ATOM     10  C   UNL     1       1.837   5.607  75.607  0.00  0.00    +0.000 C 
BRANCH   9  12
ATOM     11  C   UNL     1       3.662   8.202  73.885  0.00  0.00    +0.000 C 
ATOM     12  C   UNL     1       3.467   7.218  74.546  0.00  0.00    +0.000 C 
BRANCH  11  14
ATOM     13  O   UNL     1       5.046   9.206  72.233  0.00  0.00    +0.000 OA
ATOM     14  C   UNL     1       3.898   9.408  73.105  0.00  0.00    +0.000 C 
ATOM     15  C   UNL     1       3.794   9.350  71.565  0.00  0.00    +0.000 C 
ATOM     16  C   UNL     1       3.787  10.808  73.796  0.00  0.00    +0.000 C 
ATOM     17  C   UNL     1       3.692  10.596  70.878  0.00  0.00    +0.000 C 
ATOM     18  C   UNL     1       3.799  11.825  72.735  0.00  0.00    +0.000 C 
ATOM     19  C   UNL     1       3.712  11.925  71.332  0.00  0.00    +0.000 C 
ATOM     20  C   UNL     1       3.360   8.094  70.805  0.00  0.00    +0.000 C 
ATOM     21  C   UNL     1       2.423  10.814  74.528  0.00  0.00    +0.000 C 
ATOM     22  C   UNL     1       4.988  10.922  74.758  0.00  0.00    +0.000 C 
BRANCH  19  23
ATOM     23  O   UNL     1       4.331  12.912  70.626  0.00  0.00    +0.000 OA
ATOM     24  H   UNL     1       5.269  13.016  70.868  0.00  0.00    +0.000 HD
ENDBRANCH  19  23
ENDBRANCH  11  14
ENDBRANCH   9  12
ENDBRANCH   8   9
ENDBRANCH   6   8
ENDBRANCH   4   7
ENDBRANCH   3   4
ENDBRANCH   2   3
BRANCH   1  25
ATOM     25  C   UNL     1      12.121   2.630  74.941  0.00  0.00    +0.000 C 
BRANCH  25  26
ATOM     26  C   UNL     1      13.217   2.415  74.283  0.00  0.00    +0.000 C 
ATOM     27  C   UNL     1      14.519   2.941  74.809  0.00  0.00    +0.000 C 
BRANCH  26  29
ATOM     28  C   UNL     1      13.159   1.025  72.069  0.00  0.00    +0.000 C 
ATOM     29  C   UNL     1      13.188   1.664  73.086  0.00  0.00    +0.000 C 
BRANCH  28  30
ATOM     30  C   UNL     1      13.115   0.208  70.771  0.00  0.00    +0.000 C 
BRANCH  30  31
ATOM     31  C   UNL     1      13.080  -0.487  69.677  0.00  0.00    +0.000 C 
ATOM     32  C   UNL     1      14.352  -1.011  69.084  0.00  0.00    +0.000 C 
BRANCH  31  34
ATOM     33  C   UNL     1      10.781  -1.050  68.554  0.00  0.00    +0.000 C 
ATOM     34  C   UNL     1      11.835  -0.789  69.072  0.00  0.00    +0.000 C 
BRANCH  33  36
ATOM     35  O   UNL     1       8.984  -2.611  68.480  0.00  0.00    +0.000 OA
ATOM     36  C   UNL     1       9.508  -1.370  67.925  0.00  0.00    +0.000 C 
ATOM     37  C   UNL     1       8.229  -1.440  68.785  0.00  0.00    +0.000 C 
ATOM     38  C   UNL     1       9.346  -1.179  66.375  0.00  0.00    +0.000 C 
ATOM     39  C   UNL     1       6.979  -1.410  68.097  0.00  0.00    +0.000 C 
ATOM     40  C   UNL     1       7.915  -1.280  66.078  0.00  0.00    +0.000 C 
ATOM     41  C   UNL     1       6.669  -1.358  66.728  0.00  0.00    +0.000 C 
ATOM     42  C   UNL     1       8.194  -1.116  70.281  0.00  0.00    +0.000 C 
ATOM     43  C   UNL     1      10.200  -2.285  65.714  0.00  0.00    +0.000 C 
ATOM     44  C   UNL     1       9.877   0.246  66.072  0.00  0.00    +0.000 C 
BRANCH  41  45
ATOM     45  O   UNL     1       5.575  -0.706  66.244  0.00  0.00    +0.000 OA
ATOM     46  H   UNL     1       5.719  -0.352  65.348  0.00  0.00    +0.000 HD
ENDBRANCH  41  45
ENDBRANCH  33  36
ENDBRANCH  31  34
ENDBRANCH  30  31
ENDBRANCH  28  30
ENDBRANCH  26  29
ENDBRANCH  25  26
ENDBRANCH   1  25
TORSDOF 16
ENDMDL
MODEL 3
REMARK VINA RESULT:      -5.1      5.249      6.307
REMARK  Name = 448438_Violaxanthin.pdbqt.pdb
REMARK  16 active torsions:
REMARK  status: ('A' for Active; 'I' for Inactive)
REMARK    1  A    between atoms: C_1  and  C_5
REMARK    2  A    between atoms: C_2  and  C_27
REMARK    3  A    between atoms: C_3  and  C_5
REMARK    4  A    between atoms: C_3  and  C_7
REMARK    5  A    between atoms: C_6  and  C_10
REMARK    6  A    between atoms: C_8  and  C_10
REMARK    7  A    between atoms: C_8  and  C_12
REMARK    8  A    between atoms: C_11  and  C_14
REMARK    9  A    between atoms: C_19  and  O_23
REMARK   10  A    between atoms: C_25  and  C_27
REMARK   11  A    between atoms: C_25  and  C_29
REMARK   12  A    between atoms: C_28  and  C_32
REMARK   13  A    between atoms: C_30  and  C_32
REMARK   14  A    between atoms: C_30  and  C_34
REMARK   15  A    between atoms: C_33  and  C_36
REMARK   16  A    between atoms: C_41  and  O_45
REMARK                            x       y       z     vdW  Elec       q    Type
REMARK                         _______ _______ _______ _____ _____    ______ ____
ROOT
ATOM      1  C   UNL     1       4.783   5.013  76.242  0.00  0.00    +0.000 C 
ATOM      2  C   UNL     1       5.653   4.240  76.534  0.00  0.00    +0.000 C 
ENDROOT
BRANCH   2   3
ATOM      3  C   UNL     1       6.763   3.250  76.906  0.00  0.00    +0.000 C 
BRANCH   3   4
ATOM      4  C   UNL     1       7.703   2.416  77.221  0.00  0.00    +0.000 C 
ATOM      5  C   UNL     1       8.520   2.645  78.458  0.00  0.00    +0.000 C 
BRANCH   4   7
ATOM      6  C   UNL     1       8.255   0.408  75.638  0.00  0.00    +0.000 C 
ATOM      7  C   UNL     1       8.002   1.330  76.365  0.00  0.00    +0.000 C 
BRANCH   6   8
ATOM      8  C   UNL     1       8.577  -0.770  74.710  0.00  0.00    +0.000 C 
BRANCH   8   9
ATOM      9  C   UNL     1       8.849  -1.769  73.929  0.00  0.00    +0.000 C 
ATOM     10  C   UNL     1       9.556  -2.972  74.473  0.00  0.00    +0.000 C 
BRANCH   9  12
ATOM     11  C   UNL     1       7.968  -1.779  71.462  0.00  0.00    +0.000 C 
ATOM     12  C   UNL     1       8.370  -1.771  72.595  0.00  0.00    +0.000 C 
BRANCH  11  14
ATOM     13  O   UNL     1       6.634  -2.959  69.888  0.00  0.00    +0.000 OA
ATOM     14  C   UNL     1       7.500  -1.806  70.085  0.00  0.00    +0.000 C 
ATOM     15  C   UNL     1       5.988  -1.690  69.793  0.00  0.00    +0.000 C 
ATOM     16  C   UNL     1       8.498  -1.479  68.924  0.00  0.00    +0.000 C 
ATOM     17  C   UNL     1       5.611  -1.379  68.453  0.00  0.00    +0.000 C 
ATOM     18  C   UNL     1       7.707  -1.312  67.696  0.00  0.00    +0.000 C 
ATOM     19  C   UNL     1       6.366  -1.190  67.283  0.00  0.00    +0.000 C 
ATOM     20  C   UNL     1       4.943  -1.455  70.887  0.00  0.00    +0.000 C 
ATOM     21  C   UNL     1       9.178  -0.143  69.310  0.00  0.00    +0.000 C 
ATOM     22  C   UNL     1       9.490  -2.660  68.849  0.00  0.00    +0.000 C 
BRANCH  19  23
ATOM     23  O   UNL     1       5.927  -1.631  66.072  0.00  0.00    +0.000 OA
ATOM     24  H   UNL     1       5.063  -2.076  66.123  0.00  0.00    +0.000 HD
ENDBRANCH  19  23
ENDBRANCH  11  14
ENDBRANCH   9  12
ENDBRANCH   8   9
ENDBRANCH   6   8
ENDBRANCH   4   7
ENDBRANCH   3   4
ENDBRANCH   2   3
BRANCH   1  25
ATOM     25  C   UNL     1       3.672   6.002  75.869  0.00  0.00    +0.000 C 
BRANCH  25  26
ATOM     26  C   UNL     1       2.733   6.838  75.554  0.00  0.00    +0.000 C 
ATOM     27  C   UNL     1       1.572   7.039  76.481  0.00  0.00    +0.000 C 
BRANCH  26  29
ATOM     28  C   UNL     1       2.888   8.207  73.332  0.00  0.00    +0.000 C 
ATOM     29  C   UNL     1       2.817   7.576  74.352  0.00  0.00    +0.000 C 
BRANCH  28  30
ATOM     30  C   UNL     1       2.980   9.019  72.034  0.00  0.00    +0.000 C 
BRANCH  30  31
ATOM     31  C   UNL     1       3.059   9.709  70.939  0.00  0.00    +0.000 C 
ATOM     32  C   UNL     1       3.857  10.976  70.911  0.00  0.00    +0.000 C 
BRANCH  31  34
ATOM     33  C   UNL     1       1.902   8.836  68.756  0.00  0.00    +0.000 C 
ATOM     34  C   UNL     1       2.431   9.238  69.759  0.00  0.00    +0.000 C 
BRANCH  33  36
ATOM     35  O   UNL     1       0.226   9.271  67.122  0.00  0.00    +0.000 OA
ATOM     36  C   UNL     1       1.266   8.344  67.543  0.00  0.00    +0.000 C 
ATOM     37  C   UNL     1       1.348   9.177  66.247  0.00  0.00    +0.000 C 
ATOM     38  C   UNL     1       0.927   6.815  67.417  0.00  0.00    +0.000 C 
ATOM     39  C   UNL     1       1.026   8.514  65.025  0.00  0.00    +0.000 C 
ATOM     40  C   UNL     1       0.588   6.565  66.015  0.00  0.00    +0.000 C 
ATOM     41  C   UNL     1       0.599   7.203  64.759  0.00  0.00    +0.000 C 
ATOM     42  C   UNL     1       2.135  10.485  66.129  0.00  0.00    +0.000 C 
ATOM     43  C   UNL     1      -0.240   6.554  68.397  0.00  0.00    +0.000 C 
ATOM     44  C   UNL     1       2.223   6.066  67.819  0.00  0.00    +0.000 C 
BRANCH  41  45
ATOM     45  O   UNL     1       0.942   6.531  63.626  0.00  0.00    +0.000 OA
ATOM     46  H   UNL     1       0.652   6.992  62.818  0.00  0.00    +0.000 HD
ENDBRANCH  41  45
ENDBRANCH  33  36
ENDBRANCH  31  34
ENDBRANCH  30  31
ENDBRANCH  28  30
ENDBRANCH  26  29
ENDBRANCH  25  26
ENDBRANCH   1  25
TORSDOF 16
ENDMDL
MODEL 4
REMARK VINA RESULT:      -5.0      4.554      7.812
REMARK  Name = 448438_Violaxanthin.pdbqt.pdb
REMARK  16 active torsions:
REMARK  status: ('A' for Active; 'I' for Inactive)
REMARK    1  A    between atoms: C_1  and  C_5
REMARK    2  A    between atoms: C_2  and  C_27
REMARK    3  A    between atoms: C_3  and  C_5
REMARK    4  A    between atoms: C_3  and  C_7
REMARK    5  A    between atoms: C_6  and  C_10
REMARK    6  A    between atoms: C_8  and  C_10
REMARK    7  A    between atoms: C_8  and  C_12
REMARK    8  A    between atoms: C_11  and  C_14
REMARK    9  A    between atoms: C_19  and  O_23
REMARK   10  A    between atoms: C_25  and  C_27
REMARK   11  A    between atoms: C_25  and  C_29
REMARK   12  A    between atoms: C_28  and  C_32
REMARK   13  A    between atoms: C_30  and  C_32
REMARK   14  A    between atoms: C_30  and  C_34
REMARK   15  A    between atoms: C_33  and  C_36
REMARK   16  A    between atoms: C_41  and  O_45
REMARK                            x       y       z     vdW  Elec       q    Type
REMARK                         _______ _______ _______ _____ _____    ______ ____
ROOT
ATOM      1  C   UNL     1       9.876   2.997  76.172  0.00  0.00    +0.000 C 
ATOM      2  C   UNL     1      10.932   2.986  75.603  0.00  0.00    +0.000 C 
ENDROOT
BRANCH   2   3
ATOM      3  C   UNL     1      12.282   2.974  74.876  0.00  0.00    +0.000 C 
BRANCH   3   4
ATOM      4  C   UNL     1      13.421   2.965  74.259  0.00  0.00    +0.000 C 
ATOM      5  C   UNL     1      14.545   3.824  74.755  0.00  0.00    +0.000 C 
BRANCH   4   7
ATOM      6  C   UNL     1      13.718   1.549  72.080  0.00  0.00    +0.000 C 
ATOM      7  C   UNL     1      13.582   2.199  73.081  0.00  0.00    +0.000 C 
BRANCH   6   8
ATOM      8  C   UNL     1      13.889   0.718  70.802  0.00  0.00    +0.000 C 
BRANCH   8   9
ATOM      9  C   UNL     1      14.037   0.014  69.723  0.00  0.00    +0.000 C 
ATOM     10  C   UNL     1      15.408  -0.236  69.175  0.00  0.00    +0.000 C 
BRANCH   9  12
ATOM     11  C   UNL     1      11.958  -1.160  68.644  0.00  0.00    +0.000 C 
ATOM     12  C   UNL     1      12.913  -0.619  69.135  0.00  0.00    +0.000 C 
BRANCH  11  14
ATOM     13  O   UNL     1      11.242  -2.768  67.046  0.00  0.00    +0.000 OA
ATOM     14  C   UNL     1      10.802  -1.831  68.069  0.00  0.00    +0.000 C 
ATOM     15  C   UNL     1      10.664  -3.362  68.208  0.00  0.00    +0.000 C 
ATOM     16  C   UNL     1       9.512  -1.004  67.747  0.00  0.00    +0.000 C 
ATOM     17  C   UNL     1       9.379  -3.921  67.942  0.00  0.00    +0.000 C 
ATOM     18  C   UNL     1       8.438  -1.962  67.447  0.00  0.00    +0.000 C 
ATOM     19  C   UNL     1       8.171  -3.343  67.519  0.00  0.00    +0.000 C 
ATOM     20  C   UNL     1      11.649  -4.220  69.007  0.00  0.00    +0.000 C 
ATOM     21  C   UNL     1       9.180  -0.214  69.037  0.00  0.00    +0.000 C 
ATOM     22  C   UNL     1       9.860  -0.089  66.554  0.00  0.00    +0.000 C 
BRANCH  19  23
ATOM     23  O   UNL     1       7.343  -3.978  66.644  0.00  0.00    +0.000 OA
ATOM     24  H   UNL     1       6.452  -3.584  66.614  0.00  0.00    +0.000 HD
ENDBRANCH  19  23
ENDBRANCH  11  14
ENDBRANCH   9  12
ENDBRANCH   8   9
ENDBRANCH   6   8
ENDBRANCH   4   7
ENDBRANCH   3   4
ENDBRANCH   2   3
BRANCH   1  25
ATOM     25  C   UNL     1       8.526   3.010  76.900  0.00  0.00    +0.000 C 
BRANCH  25  26
ATOM     26  C   UNL     1       7.385   3.021  77.515  0.00  0.00    +0.000 C 
ATOM     27  C   UNL     1       7.222   2.261  78.797  0.00  0.00    +0.000 C 
BRANCH  26  29
ATOM     28  C   UNL     1       5.389   4.406  76.549  0.00  0.00    +0.000 C 
ATOM     29  C   UNL     1       6.306   3.769  76.991  0.00  0.00    +0.000 C 
BRANCH  28  30
ATOM     30  C   UNL     1       4.218   5.225  75.990  0.00  0.00    +0.000 C 
BRANCH  30  31
ATOM     31  C   UNL     1       3.226   5.917  75.523  0.00  0.00    +0.000 C 
ATOM     32  C   UNL     1       1.819   5.469  75.776  0.00  0.00    +0.000 C 
BRANCH  31  34
ATOM     33  C   UNL     1       3.680   8.143  74.218  0.00  0.00    +0.000 C 
ATOM     34  C   UNL     1       3.474   7.119  74.816  0.00  0.00    +0.000 C 
BRANCH  33  36
ATOM     35  O   UNL     1       5.112   9.243  72.666  0.00  0.00    +0.000 OA
ATOM     36  C   UNL     1       3.926   9.384  73.499  0.00  0.00    +0.000 C 
ATOM     37  C   UNL     1       3.884   9.393  71.956  0.00  0.00    +0.000 C 
ATOM     38  C   UNL     1       3.762  10.753  74.250  0.00  0.00    +0.000 C 
ATOM     39  C   UNL     1       3.783  10.664  71.315  0.00  0.00    +0.000 C 
ATOM     40  C   UNL     1       3.770  11.805  73.231  0.00  0.00    +0.000 C 
ATOM     41  C   UNL     1       3.743  11.970  71.833  0.00  0.00    +0.000 C 
ATOM     42  C   UNL     1       3.521   8.170  71.111  0.00  0.00    +0.000 C 
ATOM     43  C   UNL     1       4.942  10.840  75.245  0.00  0.00    +0.000 C 
ATOM     44  C   UNL     1       2.386  10.678  74.961  0.00  0.00    +0.000 C 
BRANCH  41  45
ATOM     45  O   UNL     1       3.029  12.972  71.250  0.00  0.00    +0.000 OA
ATOM     46  H   UNL     1       3.292  13.128  70.325  0.00  0.00    +0.000 HD
ENDBRANCH  41  45
ENDBRANCH  33  36
ENDBRANCH  31  34
ENDBRANCH  30  31
ENDBRANCH  28  30
ENDBRANCH  26  29
ENDBRANCH  25  26
ENDBRANCH   1  25
TORSDOF 16
ENDMDL
MODEL 5
REMARK VINA RESULT:      -5.0     15.738     20.501
REMARK  Name = 448438_Violaxanthin.pdbqt.pdb
REMARK  16 active torsions:
REMARK  status: ('A' for Active; 'I' for Inactive)
REMARK    1  A    between atoms: C_1  and  C_5
REMARK    2  A    between atoms: C_2  and  C_27
REMARK    3  A    between atoms: C_3  and  C_5
REMARK    4  A    between atoms: C_3  and  C_7
REMARK    5  A    between atoms: C_6  and  C_10
REMARK    6  A    between atoms: C_8  and  C_10
REMARK    7  A    between atoms: C_8  and  C_12
REMARK    8  A    between atoms: C_11  and  C_14
REMARK    9  A    between atoms: C_19  and  O_23
REMARK   10  A    between atoms: C_25  and  C_27
REMARK   11  A    between atoms: C_25  and  C_29
REMARK   12  A    between atoms: C_28  and  C_32
REMARK   13  A    between atoms: C_30  and  C_32
REMARK   14  A    between atoms: C_30  and  C_34
REMARK   15  A    between atoms: C_33  and  C_36
REMARK   16  A    between atoms: C_41  and  O_45
REMARK                            x       y       z     vdW  Elec       q    Type
REMARK                         _______ _______ _______ _____ _____    ______ ____
ROOT
ATOM      1  C   UNL     1      17.941   9.880  56.354  0.00  0.00    +0.000 C 
ATOM      2  C   UNL     1      17.938   9.988  57.548  0.00  0.00    +0.000 C 
ENDROOT
BRANCH   2   3
ATOM      3  C   UNL     1      17.932  10.127  59.075  0.00  0.00    +0.000 C 
BRANCH   3   4
ATOM      4  C   UNL     1      17.925  10.244  60.366  0.00  0.00    +0.000 C 
ATOM      5  C   UNL     1      17.207  11.394  61.006  0.00  0.00    +0.000 C 
BRANCH   4   7
ATOM      6  C   UNL     1      19.265   8.549  61.840  0.00  0.00    +0.000 C 
ATOM      7  C   UNL     1      18.650   9.328  61.163  0.00  0.00    +0.000 C 
BRANCH   6   8
ATOM      8  C   UNL     1      20.049   7.555  62.705  0.00  0.00    +0.000 C 
BRANCH   8   9
ATOM      9  C   UNL     1      20.709   6.711  63.436  0.00  0.00    +0.000 C 
ATOM     10  C   UNL     1      21.366   7.173  64.701  0.00  0.00    +0.000 C 
BRANCH   9  12
ATOM     11  C   UNL     1      20.693   4.167  62.813  0.00  0.00    +0.000 C 
ATOM     12  C   UNL     1      20.704   5.334  63.102  0.00  0.00    +0.000 C 
BRANCH  11  14
ATOM     13  O   UNL     1      19.809   2.579  61.281  0.00  0.00    +0.000 OA
ATOM     14  C   UNL     1      20.660   2.759  62.447  0.00  0.00    +0.000 C 
ATOM     15  C   UNL     1      21.195   2.318  61.068  0.00  0.00    +0.000 C 
ATOM     16  C   UNL     1      20.541   1.673  63.570  0.00  0.00    +0.000 C 
ATOM     17  C   UNL     1      21.459   0.927  60.893  0.00  0.00    +0.000 C 
ATOM     18  C   UNL     1      20.806   0.368  62.950  0.00  0.00    +0.000 C 
ATOM     19  C   UNL     1      21.283  -0.178  61.741  0.00  0.00    +0.000 C 
ATOM     20  C   UNL     1      21.853   3.285  60.080  0.00  0.00    +0.000 C 
ATOM     21  C   UNL     1      21.643   2.009  64.605  0.00  0.00    +0.000 C 
ATOM     22  C   UNL     1      19.115   1.791  64.149  0.00  0.00    +0.000 C 
BRANCH  19  23
ATOM     23  O   UNL     1      20.866  -1.385  61.266  0.00  0.00    +0.000 OA
ATOM     24  H   UNL     1      20.080  -1.722  61.731  0.00  0.00    +0.000 HD
ENDBRANCH  19  23
ENDBRANCH  11  14
ENDBRANCH   9  12
ENDBRANCH   8   9
ENDBRANCH   6   8
ENDBRANCH   4   7
ENDBRANCH   3   4
ENDBRANCH   2   3
BRANCH   1  25
ATOM     25  C   UNL     1      17.946   9.742  54.826  0.00  0.00    +0.000 C 
BRANCH  25  26
ATOM     26  C   UNL     1      17.950   9.624  53.536  0.00  0.00    +0.000 C 
ATOM     27  C   UNL     1      17.616  10.808  52.678  0.00  0.00    +0.000 C 
BRANCH  26  29
ATOM     28  C   UNL     1      18.590   7.343  52.430  0.00  0.00    +0.000 C 
ATOM     29  C   UNL     1      18.294   8.390  52.938  0.00  0.00    +0.000 C 
BRANCH  28  30
ATOM     30  C   UNL     1      18.974   6.007  51.781  0.00  0.00    +0.000 C 
BRANCH  30  31
ATOM     31  C   UNL     1      19.301   4.877  51.236  0.00  0.00    +0.000 C 
ATOM     32  C   UNL     1      20.077   4.862  49.955  0.00  0.00    +0.000 C 
BRANCH  31  34
ATOM     33  C   UNL     1      18.676   2.628  52.426  0.00  0.00    +0.000 C 
ATOM     34  C   UNL     1      18.966   3.659  51.879  0.00  0.00    +0.000 C 
BRANCH  33  36
ATOM     35  O   UNL     1      19.396   0.414  52.927  0.00  0.00    +0.000 OA
ATOM     36  C   UNL     1      18.320   1.382  53.088  0.00  0.00    +0.000 C 
ATOM     37  C   UNL     1      19.180   0.868  54.262  0.00  0.00    +0.000 C 
ATOM     38  C   UNL     1      16.858   0.825  52.946  0.00  0.00    +0.000 C 
ATOM     39  C   UNL     1      18.613  -0.144  55.092  0.00  0.00    +0.000 C 
ATOM     40  C   UNL     1      16.707  -0.242  53.938  0.00  0.00    +0.000 C 
ATOM     41  C   UNL     1      17.382  -0.819  55.030  0.00  0.00    +0.000 C 
ATOM     42  C   UNL     1      20.372   1.637  54.839  0.00  0.00    +0.000 C 
ATOM     43  C   UNL     1      16.724   0.342  51.484  0.00  0.00    +0.000 C 
ATOM     44  C   UNL     1      15.924   2.020  53.268  0.00  0.00    +0.000 C 
BRANCH  41  45
ATOM     45  O   UNL     1      16.711  -1.231  56.142  0.00  0.00    +0.000 OA
ATOM     46  H   UNL     1      16.163  -2.020  55.974  0.00  0.00    +0.000 HD
ENDBRANCH  41  45
ENDBRANCH  33  36
ENDBRANCH  31  34
ENDBRANCH  30  31
ENDBRANCH  28  30
ENDBRANCH  26  29
ENDBRANCH  25  26
ENDBRANCH   1  25
TORSDOF 16
ENDMDL
MODEL 6
REMARK VINA RESULT:      -4.9     11.638     18.562
REMARK  Name = 448438_Violaxanthin.pdbqt.pdb
REMARK  16 active torsions:
REMARK  status: ('A' for Active; 'I' for Inactive)
REMARK    1  A    between atoms: C_1  and  C_5
REMARK    2  A    between atoms: C_2  and  C_27
REMARK    3  A    between atoms: C_3  and  C_5
REMARK    4  A    between atoms: C_3  and  C_7
REMARK    5  A    between atoms: C_6  and  C_10
REMARK    6  A    between atoms: C_8  and  C_10
REMARK    7  A    between atoms: C_8  and  C_12
REMARK    8  A    between atoms: C_11  and  C_14
REMARK    9  A    between atoms: C_19  and  O_23
REMARK   10  A    between atoms: C_25  and  C_27
REMARK   11  A    between atoms: C_25  and  C_29
REMARK   12  A    between atoms: C_28  and  C_32
REMARK   13  A    between atoms: C_30  and  C_32
REMARK   14  A    between atoms: C_30  and  C_34
REMARK   15  A    between atoms: C_33  and  C_36
REMARK   16  A    between atoms: C_41  and  O_45
REMARK                            x       y       z     vdW  Elec       q    Type
REMARK                         _______ _______ _______ _____ _____    ______ ____
ROOT
ATOM      1  C   UNL     1      10.818  11.977  60.695  0.00  0.00    +0.000 C 
ATOM      2  C   UNL     1       9.711  11.621  60.399  0.00  0.00    +0.000 C 
ENDROOT
BRANCH   2   3
ATOM      3  C   UNL     1       8.298  11.163  60.020  0.00  0.00    +0.000 C 
BRANCH   3   4
ATOM      4  C   UNL     1       7.104  10.774  59.701  0.00  0.00    +0.000 C 
ATOM      5  C   UNL     1       5.970  11.754  59.723  0.00  0.00    +0.000 C 
BRANCH   4   7
ATOM      6  C   UNL     1       6.652   8.259  59.145  0.00  0.00    +0.000 C 
ATOM      7  C   UNL     1       6.860   9.414  59.400  0.00  0.00    +0.000 C 
BRANCH   6   8
ATOM      8  C   UNL     1       6.386   6.783  58.820  0.00  0.00    +0.000 C 
BRANCH   8   9
ATOM      9  C   UNL     1       6.160   5.537  58.543  0.00  0.00    +0.000 C 
ATOM     10  C   UNL     1       6.486   5.003  57.182  0.00  0.00    +0.000 C 
BRANCH   9  12
ATOM     11  C   UNL     1       5.359   3.908  60.432  0.00  0.00    +0.000 C 
ATOM     12  C   UNL     1       5.722   4.656  59.563  0.00  0.00    +0.000 C 
BRANCH  11  14
ATOM     13  O   UNL     1       4.727   1.674  60.938  0.00  0.00    +0.000 OA
ATOM     14  C   UNL     1       4.942   3.002  61.491  0.00  0.00    +0.000 C 
ATOM     15  C   UNL     1       5.825   1.785  61.842  0.00  0.00    +0.000 C 
ATOM     16  C   UNL     1       3.905   3.488  62.559  0.00  0.00    +0.000 C 
ATOM     17  C   UNL     1       5.565   1.135  63.085  0.00  0.00    +0.000 C 
ATOM     18  C   UNL     1       3.883   2.490  63.638  0.00  0.00    +0.000 C 
ATOM     19  C   UNL     1       4.599   1.360  64.080  0.00  0.00    +0.000 C 
ATOM     20  C   UNL     1       7.183   1.522  61.185  0.00  0.00    +0.000 C 
ATOM     21  C   UNL     1       4.442   4.840  63.090  0.00  0.00    +0.000 C 
ATOM     22  C   UNL     1       2.551   3.622  61.830  0.00  0.00    +0.000 C 
BRANCH  19  23
ATOM     23  O   UNL     1       4.008   0.331  64.747  0.00  0.00    +0.000 OA
ATOM     24  H   UNL     1       4.256  -0.541  64.390  0.00  0.00    +0.000 HD
ENDBRANCH  19  23
ENDBRANCH  11  14
ENDBRANCH   9  12
ENDBRANCH   8   9
ENDBRANCH   6   8
ENDBRANCH   4   7
ENDBRANCH   3   4
ENDBRANCH   2   3
BRANCH   1  25
ATOM     25  C   UNL     1      12.232  12.435  61.074  0.00  0.00    +0.000 C 
BRANCH  25  26
ATOM     26  C   UNL     1      13.427  12.821  61.394  0.00  0.00    +0.000 C 
ATOM     27  C   UNL     1      13.614  14.049  62.233  0.00  0.00    +0.000 C 
BRANCH  26  29
ATOM     28  C   UNL     1      15.506  11.436  60.619  0.00  0.00    +0.000 C 
ATOM     29  C   UNL     1      14.550  12.070  60.974  0.00  0.00    +0.000 C 
BRANCH  28  30
ATOM     30  C   UNL     1      16.730  10.631  60.164  0.00  0.00    +0.000 C 
BRANCH  30  31
ATOM     31  C   UNL     1      17.767   9.956  59.779  0.00  0.00    +0.000 C 
ATOM     32  C   UNL     1      18.601   9.227  60.787  0.00  0.00    +0.000 C 
BRANCH  31  34
ATOM     33  C   UNL     1      18.345   9.791  57.228  0.00  0.00    +0.000 C 
ATOM     34  C   UNL     1      18.082   9.869  58.400  0.00  0.00    +0.000 C 
BRANCH  33  36
ATOM     35  O   UNL     1      17.844   8.654  55.197  0.00  0.00    +0.000 OA
ATOM     36  C   UNL     1      18.657   9.695  55.810  0.00  0.00    +0.000 C 
ATOM     37  C   UNL     1      17.559   9.983  54.766  0.00  0.00    +0.000 C 
ATOM     38  C   UNL     1      20.155   9.771  55.345  0.00  0.00    +0.000 C 
ATOM     39  C   UNL     1      17.981  10.218  53.423  0.00  0.00    +0.000 C 
ATOM     40  C   UNL     1      20.145   9.953  53.892  0.00  0.00    +0.000 C 
ATOM     41  C   UNL     1      19.255  10.208  52.831  0.00  0.00    +0.000 C 
ATOM     42  C   UNL     1      16.145  10.446  55.128  0.00  0.00    +0.000 C 
ATOM     43  C   UNL     1      20.814   8.450  55.804  0.00  0.00    +0.000 C 
ATOM     44  C   UNL     1      20.751  11.013  56.057  0.00  0.00    +0.000 C 
BRANCH  41  45
ATOM     45  O   UNL     1      19.596  11.031  51.801  0.00  0.00    +0.000 OA
ATOM     46  H   UNL     1      19.468  11.972  52.020  0.00  0.00    +0.000 HD
ENDBRANCH  41  45
ENDBRANCH  33  36
ENDBRANCH  31  34
ENDBRANCH  30  31
ENDBRANCH  28  30
ENDBRANCH  26  29
ENDBRANCH  25  26
ENDBRANCH   1  25
TORSDOF 16
ENDMDL
MODEL 7
REMARK VINA RESULT:      -4.9      2.984     12.226
REMARK  Name = 448438_Violaxanthin.pdbqt.pdb
REMARK  16 active torsions:
REMARK  status: ('A' for Active; 'I' for Inactive)
REMARK    1  A    between atoms: C_1  and  C_5
REMARK    2  A    between atoms: C_2  and  C_27
REMARK    3  A    between atoms: C_3  and  C_5
REMARK    4  A    between atoms: C_3  and  C_7
REMARK    5  A    between atoms: C_6  and  C_10
REMARK    6  A    between atoms: C_8  and  C_10
REMARK    7  A    between atoms: C_8  and  C_12
REMARK    8  A    between atoms: C_11  and  C_14
REMARK    9  A    between atoms: C_19  and  O_23
REMARK   10  A    between atoms: C_25  and  C_27
REMARK   11  A    between atoms: C_25  and  C_29
REMARK   12  A    between atoms: C_28  and  C_32
REMARK   13  A    between atoms: C_30  and  C_32
REMARK   14  A    between atoms: C_30  and  C_34
REMARK   15  A    between atoms: C_33  and  C_36
REMARK   16  A    between atoms: C_41  and  O_45
REMARK                            x       y       z     vdW  Elec       q    Type
REMARK                         _______ _______ _______ _____ _____    ______ ____
ROOT
ATOM      1  C   UNL     1      10.603   2.384  75.565  0.00  0.00    +0.000 C 
ATOM      2  C   UNL     1       9.756   2.924  76.222  0.00  0.00    +0.000 C 
ENDROOT
BRANCH   2   3
ATOM      3  C   UNL     1       8.672   3.613  77.058  0.00  0.00    +0.000 C 
BRANCH   3   4
ATOM      4  C   UNL     1       7.756   4.193  77.768  0.00  0.00    +0.000 C 
ATOM      5  C   UNL     1       7.882   4.232  79.261  0.00  0.00    +0.000 C 
BRANCH   4   7
ATOM      6  C   UNL     1       5.631   5.181  76.604  0.00  0.00    +0.000 C 
ATOM      7  C   UNL     1       6.607   4.727  77.139  0.00  0.00    +0.000 C 
BRANCH   6   8
ATOM      8  C   UNL     1       4.386   5.762  75.924  0.00  0.00    +0.000 C 
BRANCH   8   9
ATOM      9  C   UNL     1       3.331   6.254  75.351  0.00  0.00    +0.000 C 
ATOM     10  C   UNL     1       1.974   5.730  75.710  0.00  0.00    +0.000 C 
BRANCH   9  12
ATOM     11  C   UNL     1       3.551   8.308  73.741  0.00  0.00    +0.000 C 
ATOM     12  C   UNL     1       3.454   7.366  74.481  0.00  0.00    +0.000 C 
BRANCH  11  14
ATOM     13  O   UNL     1       3.451  10.677  73.578  0.00  0.00    +0.000 OA
ATOM     14  C   UNL     1       3.646   9.442  72.834  0.00  0.00    +0.000 C 
ATOM     15  C   UNL     1       4.760  10.491  73.041  0.00  0.00    +0.000 C 
ATOM     16  C   UNL     1       2.966   9.362  71.425  0.00  0.00    +0.000 C 
ATOM     17  C   UNL     1       5.025  11.374  71.954  0.00  0.00    +0.000 C 
ATOM     18  C   UNL     1       3.448  10.506  70.639  0.00  0.00    +0.000 C 
ATOM     19  C   UNL     1       4.425  11.521  70.692  0.00  0.00    +0.000 C 
ATOM     20  C   UNL     1       5.844  10.355  74.114  0.00  0.00    +0.000 C 
ATOM     21  C   UNL     1       3.450   8.035  70.793  0.00  0.00    +0.000 C 
ATOM     22  C   UNL     1       1.442   9.394  71.669  0.00  0.00    +0.000 C 
BRANCH  19  23
ATOM     23  O   UNL     1       4.244  12.745  70.126  0.00  0.00    +0.000 OA
ATOM     24  H   UNL     1       4.960  13.369  70.340  0.00  0.00    +0.000 HD
ENDBRANCH  19  23
ENDBRANCH  11  14
ENDBRANCH   9  12
ENDBRANCH   8   9
ENDBRANCH   6   8
ENDBRANCH   4   7
ENDBRANCH   3   4
ENDBRANCH   2   3
BRANCH   1  25
ATOM     25  C   UNL     1      11.687   1.694  74.727  0.00  0.00    +0.000 C 
BRANCH  25  26
ATOM     26  C   UNL     1      12.603   1.112  74.019  0.00  0.00    +0.000 C 
ATOM     27  C   UNL     1      12.929  -0.331  74.263  0.00  0.00    +0.000 C 
BRANCH  26  29
ATOM     28  C   UNL     1      13.845   2.441  72.141  0.00  0.00    +0.000 C 
ATOM     29  C   UNL     1      13.274   1.829  73.002  0.00  0.00    +0.000 C 
BRANCH  28  30
ATOM     30  C   UNL     1      14.574   3.229  71.045  0.00  0.00    +0.000 C 
BRANCH  30  31
ATOM     31  C   UNL     1      15.194   3.896  70.122  0.00  0.00    +0.000 C 
ATOM     32  C   UNL     1      15.772   3.176  68.942  0.00  0.00    +0.000 C 
BRANCH  31  34
ATOM     33  C   UNL     1      15.357   6.506  70.274  0.00  0.00    +0.000 C 
ATOM     34  C   UNL     1      15.282   5.307  70.207  0.00  0.00    +0.000 C 
BRANCH  33  36
ATOM     35  O   UNL     1      14.454   8.464  71.285  0.00  0.00    +0.000 OA
ATOM     36  C   UNL     1      15.447   7.957  70.348  0.00  0.00    +0.000 C 
ATOM     37  C   UNL     1      15.813   8.631  71.687  0.00  0.00    +0.000 C 
ATOM     38  C   UNL     1      15.642   8.784  69.028  0.00  0.00    +0.000 C 
ATOM     39  C   UNL     1      16.226   9.996  71.638  0.00  0.00    +0.000 C 
ATOM     40  C   UNL     1      15.998  10.148  69.425  0.00  0.00    +0.000 C 
ATOM     41  C   UNL     1      16.341  10.898  70.567  0.00  0.00    +0.000 C 
ATOM     42  C   UNL     1      16.168   7.854  72.957  0.00  0.00    +0.000 C 
ATOM     43  C   UNL     1      14.304   8.688  68.259  0.00  0.00    +0.000 C 
ATOM     44  C   UNL     1      16.813   8.101  68.276  0.00  0.00    +0.000 C 
BRANCH  41  45
ATOM     45  O   UNL     1      17.297  11.867  70.518  0.00  0.00    +0.000 OA
ATOM     46  H   UNL     1      17.805  11.847  69.686  0.00  0.00    +0.000 HD
ENDBRANCH  41  45
ENDBRANCH  33  36
ENDBRANCH  31  34
ENDBRANCH  30  31
ENDBRANCH  28  30
ENDBRANCH  26  29
ENDBRANCH  25  26
ENDBRANCH   1  25
TORSDOF 16
ENDMDL
MODEL 8
REMARK VINA RESULT:      -4.9     15.591     21.728
REMARK  Name = 448438_Violaxanthin.pdbqt.pdb
REMARK  16 active torsions:
REMARK  status: ('A' for Active; 'I' for Inactive)
REMARK    1  A    between atoms: C_1  and  C_5
REMARK    2  A    between atoms: C_2  and  C_27
REMARK    3  A    between atoms: C_3  and  C_5
REMARK    4  A    between atoms: C_3  and  C_7
REMARK    5  A    between atoms: C_6  and  C_10
REMARK    6  A    between atoms: C_8  and  C_10
REMARK    7  A    between atoms: C_8  and  C_12
REMARK    8  A    between atoms: C_11  and  C_14
REMARK    9  A    between atoms: C_19  and  O_23
REMARK   10  A    between atoms: C_25  and  C_27
REMARK   11  A    between atoms: C_25  and  C_29
REMARK   12  A    between atoms: C_28  and  C_32
REMARK   13  A    between atoms: C_30  and  C_32
REMARK   14  A    between atoms: C_30  and  C_34
REMARK   15  A    between atoms: C_33  and  C_36
REMARK   16  A    between atoms: C_41  and  O_45
REMARK                            x       y       z     vdW  Elec       q    Type
REMARK                         _______ _______ _______ _____ _____    ______ ____
ROOT
ATOM      1  C   UNL     1      18.561   6.585  52.000  0.00  0.00    +0.000 C 
ATOM      2  C   UNL     1      18.385   7.732  52.305  0.00  0.00    +0.000 C 
ENDROOT
BRANCH   2   3
ATOM      3  C   UNL     1      18.156   9.197  52.695  0.00  0.00    +0.000 C 
BRANCH   3   4
ATOM      4  C   UNL     1      17.964  10.435  53.026  0.00  0.00    +0.000 C 
ATOM      5  C   UNL     1      19.098  11.412  52.949  0.00  0.00    +0.000 C 
BRANCH   4   7
ATOM      6  C   UNL     1      15.637  11.198  53.946  0.00  0.00    +0.000 C 
ATOM      7  C   UNL     1      16.706  10.847  53.523  0.00  0.00    +0.000 C 
BRANCH   6   8
ATOM      8  C   UNL     1      14.273  11.644  54.488  0.00  0.00    +0.000 C 
BRANCH   8   9
ATOM      9  C   UNL     1      13.119  12.023  54.943  0.00  0.00    +0.000 C 
ATOM     10  C   UNL     1      11.905  11.928  54.071  0.00  0.00    +0.000 C 
BRANCH   9  12
ATOM     11  C   UNL     1      12.879  12.727  57.454  0.00  0.00    +0.000 C 
ATOM     12  C   UNL     1      12.989  12.408  56.300  0.00  0.00    +0.000 C 
BRANCH  11  14
ATOM     13  O   UNL     1      11.854  14.232  58.982  0.00  0.00    +0.000 OA
ATOM     14  C   UNL     1      12.745  13.088  58.857  0.00  0.00    +0.000 C 
ATOM     15  C   UNL     1      11.359  13.013  59.534  0.00  0.00    +0.000 C 
ATOM     16  C   UNL     1      14.011  13.089  59.778  0.00  0.00    +0.000 C 
ATOM     17  C   UNL     1      11.334  13.040  60.959  0.00  0.00    +0.000 C 
ATOM     18  C   UNL     1      13.546  13.217  61.167  0.00  0.00    +0.000 C 
ATOM     19  C   UNL     1      12.354  13.170  61.916  0.00  0.00    +0.000 C 
ATOM     20  C   UNL     1      10.111  12.485  58.821  0.00  0.00    +0.000 C 
ATOM     21  C   UNL     1      14.693  11.716  59.566  0.00  0.00    +0.000 C 
ATOM     22  C   UNL     1      14.889  14.274  59.322  0.00  0.00    +0.000 C 
BRANCH  19  23
ATOM     23  O   UNL     1      12.175  13.891  63.057  0.00  0.00    +0.000 OA
ATOM     24  H   UNL     1      11.791  13.364  63.780  0.00  0.00    +0.000 HD
ENDBRANCH  19  23
ENDBRANCH  11  14
ENDBRANCH   9  12
ENDBRANCH   8   9
ENDBRANCH   6   8
ENDBRANCH   4   7
ENDBRANCH   3   4
ENDBRANCH   2   3
BRANCH   1  25
ATOM     25  C   UNL     1      18.789   5.119  51.609  0.00  0.00    +0.000 C 
BRANCH  25  26
ATOM     26  C   UNL     1      18.982   3.881  51.280  0.00  0.00    +0.000 C 
ATOM     27  C   UNL     1      19.353   3.533  49.869  0.00  0.00    +0.000 C 
BRANCH  26  29
ATOM     28  C   UNL     1      18.774   1.998  53.083  0.00  0.00    +0.000 C 
ATOM     29  C   UNL     1      18.867   2.863  52.255  0.00  0.00    +0.000 C 
BRANCH  28  30
ATOM     30  C   UNL     1      18.662   0.893  54.140  0.00  0.00    +0.000 C 
BRANCH  30  31
ATOM     31  C   UNL     1      18.562  -0.041  55.034  0.00  0.00    +0.000 C 
ATOM     32  C   UNL     1      19.771  -0.464  55.810  0.00  0.00    +0.000 C 
BRANCH  31  34
ATOM     33  C   UNL     1      16.232  -1.124  55.546  0.00  0.00    +0.000 C 
ATOM     34  C   UNL     1      17.300  -0.626  55.308  0.00  0.00    +0.000 C 
BRANCH  33  36
ATOM     35  O   UNL     1      15.128  -2.936  56.629  0.00  0.00    +0.000 OA
ATOM     36  C   UNL     1      14.939  -1.726  55.840  0.00  0.00    +0.000 C 
ATOM     37  C   UNL     1      14.478  -1.862  57.306  0.00  0.00    +0.000 C 
ATOM     38  C   UNL     1      13.848  -1.794  54.713  0.00  0.00    +0.000 C 
ATOM     39  C   UNL     1      13.094  -2.126  57.531  0.00  0.00    +0.000 C 
ATOM     40  C   UNL     1      12.585  -2.157  55.360  0.00  0.00    +0.000 C 
ATOM     41  C   UNL     1      12.025  -2.327  56.641  0.00  0.00    +0.000 C 
ATOM     42  C   UNL     1      15.274  -1.328  58.499  0.00  0.00    +0.000 C 
ATOM     43  C   UNL     1      14.350  -2.842  53.694  0.00  0.00    +0.000 C 
ATOM     44  C   UNL     1      13.776  -0.366  54.115  0.00  0.00    +0.000 C 
BRANCH  41  45
ATOM     45  O   UNL     1      10.752  -1.930  56.916  0.00  0.00    +0.000 OA
ATOM     46  H   UNL     1      10.723  -1.122  57.461  0.00  0.00    +0.000 HD
ENDBRANCH  41  45
ENDBRANCH  33  36
ENDBRANCH  31  34
ENDBRANCH  30  31
ENDBRANCH  28  30
ENDBRANCH  26  29
ENDBRANCH  25  26
ENDBRANCH   1  25
TORSDOF 16
ENDMDL
MODEL 9
REMARK VINA RESULT:      -4.9     13.370     20.429
REMARK  Name = 448438_Violaxanthin.pdbqt.pdb
REMARK  16 active torsions:
REMARK  status: ('A' for Active; 'I' for Inactive)
REMARK    1  A    between atoms: C_1  and  C_5
REMARK    2  A    between atoms: C_2  and  C_27
REMARK    3  A    between atoms: C_3  and  C_5
REMARK    4  A    between atoms: C_3  and  C_7
REMARK    5  A    between atoms: C_6  and  C_10
REMARK    6  A    between atoms: C_8  and  C_10
REMARK    7  A    between atoms: C_8  and  C_12
REMARK    8  A    between atoms: C_11  and  C_14
REMARK    9  A    between atoms: C_19  and  O_23
REMARK   10  A    between atoms: C_25  and  C_27
REMARK   11  A    between atoms: C_25  and  C_29
REMARK   12  A    between atoms: C_28  and  C_32
REMARK   13  A    between atoms: C_30  and  C_32
REMARK   14  A    between atoms: C_30  and  C_34
REMARK   15  A    between atoms: C_33  and  C_36
REMARK   16  A    between atoms: C_41  and  O_45
REMARK                            x       y       z     vdW  Elec       q    Type
REMARK                         _______ _______ _______ _____ _____    ______ ____
ROOT
ATOM      1  C   UNL     1      18.511   9.484  57.629  0.00  0.00    +0.000 C 
ATOM      2  C   UNL     1      18.946   9.392  56.515  0.00  0.00    +0.000 C 
ENDROOT
BRANCH   2   3
ATOM      3  C   UNL     1      19.501   9.273  55.091  0.00  0.00    +0.000 C 
BRANCH   3   4
ATOM      4  C   UNL     1      19.972   9.173  53.888  0.00  0.00    +0.000 C 
ATOM      5  C   UNL     1      20.398  10.406  53.150  0.00  0.00    +0.000 C 
BRANCH   4   7
ATOM      6  C   UNL     1      20.060   6.841  52.706  0.00  0.00    +0.000 C 
ATOM      7  C   UNL     1      20.020   7.912  53.249  0.00  0.00    +0.000 C 
BRANCH   6   8
ATOM      8  C   UNL     1      20.110   5.474  52.013  0.00  0.00    +0.000 C 
BRANCH   8   9
ATOM      9  C   UNL     1      20.149   4.318  51.425  0.00  0.00    +0.000 C 
ATOM     10  C   UNL     1      20.942   4.148  50.165  0.00  0.00    +0.000 C 
BRANCH   9  12
ATOM     11  C   UNL     1      19.035   2.243  52.570  0.00  0.00    +0.000 C 
ATOM     12  C   UNL     1      19.545   3.194  52.040  0.00  0.00    +0.000 C 
BRANCH  11  14
ATOM     13  O   UNL     1      19.375  -0.002  53.275  0.00  0.00    +0.000 OA
ATOM     14  C   UNL     1      18.425   1.100  53.233  0.00  0.00    +0.000 C 
ATOM     15  C   UNL     1      19.041   0.562  54.542  0.00  0.00    +0.000 C 
ATOM     16  C   UNL     1      16.938   0.726  52.914  0.00  0.00    +0.000 C 
ATOM     17  C   UNL     1      18.233  -0.314  55.325  0.00  0.00    +0.000 C 
ATOM     18  C   UNL     1      16.512  -0.269  53.908  0.00  0.00    +0.000 C 
ATOM     19  C   UNL     1      16.949  -0.847  55.116  0.00  0.00    +0.000 C 
ATOM     20  C   UNL     1      20.228   1.231  55.243  0.00  0.00    +0.000 C 
ATOM     21  C   UNL     1      16.125   2.033  53.081  0.00  0.00    +0.000 C 
ATOM     22  C   UNL     1      16.920   0.185  51.468  0.00  0.00    +0.000 C 
BRANCH  19  23
ATOM     23  O   UNL     1      16.639  -2.123  55.475  0.00  0.00    +0.000 OA
ATOM     24  H   UNL     1      16.861  -2.773  54.785  0.00  0.00    +0.000 HD
ENDBRANCH  19  23
ENDBRANCH  11  14
ENDBRANCH   9  12
ENDBRANCH   8   9
ENDBRANCH   6   8
ENDBRANCH   4   7
ENDBRANCH   3   4
ENDBRANCH   2   3
BRANCH   1  25
ATOM     25  C   UNL     1      17.955   9.602  59.054  0.00  0.00    +0.000 C 
BRANCH  25  26
ATOM     26  C   UNL     1      17.485   9.703  60.258  0.00  0.00    +0.000 C 
ATOM     27  C   UNL     1      16.196  10.430  60.497  0.00  0.00    +0.000 C 
BRANCH  26  29
ATOM     28  C   UNL     1      18.756   8.598  62.258  0.00  0.00    +0.000 C 
ATOM     29  C   UNL     1      18.174   9.106  61.338  0.00  0.00    +0.000 C 
BRANCH  28  30
ATOM     30  C   UNL     1      19.494   7.951  63.437  0.00  0.00    +0.000 C 
BRANCH  30  31
ATOM     31  C   UNL     1      20.121   7.406  64.433  0.00  0.00    +0.000 C 
ATOM     32  C   UNL     1      21.619   7.389  64.451  0.00  0.00    +0.000 C 
BRANCH  31  34
ATOM     33  C   UNL     1      18.765   6.418  66.445  0.00  0.00    +0.000 C 
ATOM     34  C   UNL     1      19.390   6.873  65.523  0.00  0.00    +0.000 C 
BRANCH  33  36
ATOM     35  O   UNL     1      18.429   6.489  68.801  0.00  0.00    +0.000 OA
ATOM     36  C   UNL     1      18.006   5.863  67.556  0.00  0.00    +0.000 C 
ATOM     37  C   UNL     1      17.095   6.785  68.393  0.00  0.00    +0.000 C 
ATOM     38  C   UNL     1      17.740   4.316  67.610  0.00  0.00    +0.000 C 
ATOM     39  C   UNL     1      16.123   6.157  69.227  0.00  0.00    +0.000 C 
ATOM     40  C   UNL     1      16.723   4.092  68.639  0.00  0.00    +0.000 C 
ATOM     41  C   UNL     1      15.838   4.804  69.473  0.00  0.00    +0.000 C 
ATOM     42  C   UNL     1      16.873   8.268  68.081  0.00  0.00    +0.000 C 
ATOM     43  C   UNL     1      19.103   3.659  67.927  0.00  0.00    +0.000 C 
ATOM     44  C   UNL     1      17.205   3.935  66.206  0.00  0.00    +0.000 C 
BRANCH  41  45
ATOM     45  O   UNL     1      14.580   4.348  69.725  0.00  0.00    +0.000 OA
ATOM     46  H   UNL     1      13.894   4.906  69.315  0.00  0.00    +0.000 HD
ENDBRANCH  41  45
ENDBRANCH  33  36
ENDBRANCH  31  34
ENDBRANCH  30  31
ENDBRANCH  28  30
ENDBRANCH  26  29
ENDBRANCH  25  26
ENDBRANCH   1  25
TORSDOF 16
ENDMDL
