MODEL 1
REMARK VINA RESULT:      -6.1      0.000      0.000
REMARK  Name = 490561_Nocardiopsis.pdbqt.pdb
REMARK  3 active torsions:
REMARK  status: ('A' for Active; 'I' for Inactive)
REMARK    1  A    between atoms: C_7  and  O_32
REMARK    2  A    between atoms: C_7  and  C_35
REMARK    3  A    between atoms: C_35  and  O_36
REMARK                            x       y       z     vdW  Elec       q    Type
REMARK                         _______ _______ _______ _____ _____    ______ ____
ROOT
ATOM      1  O   UNL     1      18.161   0.592  51.565  0.00  0.00    +0.000 OA
ATOM      2  O   UNL     1      19.972  -1.017  58.697  0.00  0.00    +0.000 OA
ATOM      3  N   UNL     1      16.421   0.037  53.066  0.00  0.00    +0.000 N 
ATOM      4  N   UNL     1      19.164   1.131  53.601  0.00  0.00    +0.000 N 
ATOM      5  N   UNL     1      17.850  -1.943  58.521  0.00  0.00    +0.000 N 
ATOM      6  C   UNL     1      16.719   0.753  51.809  0.00  0.00    +0.000 C 
ATOM      7  C   UNL     1      16.520   2.326  51.919  0.00  0.00    +0.000 C 
ATOM      8  C   UNL     1      18.759   1.587  52.359  0.00  0.00    +0.000 C 
ATOM      9  C   UNL     1      17.869   2.689  52.343  0.00  0.00    +0.000 C 
ATOM     10  C   UNL     1      17.202  -0.211  54.166  0.00  0.00    +0.000 A 
ATOM     11  C   UNL     1      18.484   0.279  54.417  0.00  0.00    +0.000 A 
ATOM     12  C   UNL     1      16.676  -0.963  55.220  0.00  0.00    +0.000 A 
ATOM     13  C   UNL     1      19.022  -0.053  55.665  0.00  0.00    +0.000 A 
ATOM     14  C   UNL     1      16.019   0.095  50.574  0.00  0.00    +0.000 C 
ATOM     15  C   UNL     1      15.210  -0.564  53.493  0.00  0.00    +0.000 A 
ATOM     16  C   UNL     1      20.264   1.443  54.422  0.00  0.00    +0.000 A 
ATOM     17  C   UNL     1      15.361  -1.201  54.782  0.00  0.00    +0.000 A 
ATOM     18  C   UNL     1      17.203  -1.327  56.466  0.00  0.00    +0.000 A 
ATOM     19  C   UNL     1      18.513  -0.825  56.729  0.00  0.00    +0.000 A 
ATOM     20  C   UNL     1      20.210   0.713  55.669  0.00  0.00    +0.000 A 
ATOM     21  C   UNL     1      16.795  -2.067  57.688  0.00  0.00    +0.000 C 
ATOM     22  C   UNL     1      13.967  -0.593  52.840  0.00  0.00    +0.000 A 
ATOM     23  C   UNL     1      18.952  -1.211  58.053  0.00  0.00    +0.000 C 
ATOM     24  C   UNL     1      21.325   2.317  54.145  0.00  0.00    +0.000 A 
ATOM     25  C   UNL     1      14.245  -1.855  55.343  0.00  0.00    +0.000 A 
ATOM     26  C   UNL     1      21.251   0.918  56.597  0.00  0.00    +0.000 A 
ATOM     27  C   UNL     1      12.893  -1.254  53.436  0.00  0.00    +0.000 A 
ATOM     28  C   UNL     1      13.028  -1.881  54.664  0.00  0.00    +0.000 A 
ATOM     29  C   UNL     1      22.332   2.475  55.098  0.00  0.00    +0.000 A 
ATOM     30  C   UNL     1      22.298   1.789  56.303  0.00  0.00    +0.000 A 
ATOM     31  H   UNL     1      17.864  -2.350  59.444  0.00  0.00    +0.000 HD
ENDROOT
BRANCH   7  32
ATOM     32  O   UNL     1      15.588   2.747  52.926  0.00  0.00    +0.000 OA
ATOM     33  H   UNL     1      14.705   2.399  52.669  0.00  0.00    +0.000 HD
ENDBRANCH   7  32
BRANCH   7  35
ATOM     34  O   UNL     1      17.023   3.060  49.689  0.00  0.00    +0.000 OA
ATOM     35  C   UNL     1      16.168   2.950  50.570  0.00  0.00    +0.000 C 
BRANCH  35  36
ATOM     36  O   UNL     1      14.843   3.282  50.497  0.00  0.00    +0.000 OA
ATOM     37  C   UNL     1      14.178   3.044  49.286  0.00  0.00    +0.000 C 
ENDBRANCH  35  36
ENDBRANCH   7  35
TORSDOF 3
ENDMDL
MODEL 2
REMARK VINA RESULT:      -6.0      0.853      1.124
REMARK  Name = 490561_Nocardiopsis.pdbqt.pdb
REMARK  3 active torsions:
REMARK  status: ('A' for Active; 'I' for Inactive)
REMARK    1  A    between atoms: C_7  and  O_32
REMARK    2  A    between atoms: C_7  and  C_35
REMARK    3  A    between atoms: C_35  and  O_36
REMARK                            x       y       z     vdW  Elec       q    Type
REMARK                         _______ _______ _______ _____ _____    ______ ____
ROOT
ATOM      1  O   UNL     1      18.380   0.914  51.323  0.00  0.00    +0.000 OA
ATOM      2  O   UNL     1      21.091  -0.242  58.254  0.00  0.00    +0.000 OA
ATOM      3  N   UNL     1      16.884   0.195  53.007  0.00  0.00    +0.000 N 
ATOM      4  N   UNL     1      19.508   1.634  53.234  0.00  0.00    +0.000 N 
ATOM      5  N   UNL     1      19.095  -1.427  58.316  0.00  0.00    +0.000 N 
ATOM      6  C   UNL     1      16.961   0.904  51.712  0.00  0.00    +0.000 C 
ATOM      7  C   UNL     1      16.578   2.443  51.815  0.00  0.00    +0.000 C 
ATOM      8  C   UNL     1      18.925   1.999  52.032  0.00  0.00    +0.000 C 
ATOM      9  C   UNL     1      17.907   2.982  52.090  0.00  0.00    +0.000 C 
ATOM     10  C   UNL     1      17.798   0.078  54.023  0.00  0.00    +0.000 A 
ATOM     11  C   UNL     1      19.026   0.730  54.131  0.00  0.00    +0.000 A 
ATOM     12  C   UNL     1      17.479  -0.700  55.140  0.00  0.00    +0.000 A 
ATOM     13  C   UNL     1      19.726   0.505  55.322  0.00  0.00    +0.000 A 
ATOM     14  C   UNL     1      16.227   0.127  50.570  0.00  0.00    +0.000 C 
ATOM     15  C   UNL     1      15.808  -0.537  53.568  0.00  0.00    +0.000 A 
ATOM     16  C   UNL     1      20.637   2.103  53.930  0.00  0.00    +0.000 A 
ATOM     17  C   UNL     1      16.166  -1.111  54.845  0.00  0.00    +0.000 A 
ATOM     18  C   UNL     1      18.172  -0.959  56.330  0.00  0.00    +0.000 A 
ATOM     19  C   UNL     1      19.427  -0.291  56.446  0.00  0.00    +0.000 A 
ATOM     20  C   UNL     1      20.802   1.411  55.188  0.00  0.00    +0.000 A 
ATOM     21  C   UNL     1      17.985  -1.705  57.600  0.00  0.00    +0.000 C 
ATOM     22  C   UNL     1      14.518  -0.739  53.049  0.00  0.00    +0.000 A 
ATOM     23  C   UNL     1      20.043  -0.580  57.723  0.00  0.00    +0.000 C 
ATOM     24  C   UNL     1      21.547   3.093  53.528  0.00  0.00    +0.000 A 
ATOM     25  C   UNL     1      15.205  -1.880  55.531  0.00  0.00    +0.000 A 
ATOM     26  C   UNL     1      21.897   1.770  55.998  0.00  0.00    +0.000 A 
ATOM     27  C   UNL     1      13.602  -1.509  53.765  0.00  0.00    +0.000 A 
ATOM     28  C   UNL     1      13.937  -2.076  54.983  0.00  0.00    +0.000 A 
ATOM     29  C   UNL     1      22.617   3.402  54.367  0.00  0.00    +0.000 A 
ATOM     30  C   UNL     1      22.792   2.754  55.581  0.00  0.00    +0.000 A 
ATOM     31  H   UNL     1      19.254  -1.801  59.240  0.00  0.00    +0.000 HD
ENDROOT
BRANCH   7  32
ATOM     32  O   UNL     1      15.707   2.776  52.906  0.00  0.00    +0.000 OA
ATOM     33  H   UNL     1      16.175   3.438  53.461  0.00  0.00    +0.000 HD
ENDBRANCH   7  32
BRANCH   7  35
ATOM     34  O   UNL     1      14.800   3.130  50.356  0.00  0.00    +0.000 OA
ATOM     35  C   UNL     1      16.015   2.977  50.500  0.00  0.00    +0.000 C 
BRANCH  35  36
ATOM     36  O   UNL     1      17.009   3.283  49.612  0.00  0.00    +0.000 OA
ATOM     37  C   UNL     1      16.815   2.927  48.270  0.00  0.00    +0.000 C 
ENDBRANCH  35  36
ENDBRANCH   7  35
TORSDOF 3
ENDMDL
MODEL 3
REMARK VINA RESULT:      -5.9     15.054     17.970
REMARK  Name = 490561_Nocardiopsis.pdbqt.pdb
REMARK  3 active torsions:
REMARK  status: ('A' for Active; 'I' for Inactive)
REMARK    1  A    between atoms: C_7  and  O_32
REMARK    2  A    between atoms: C_7  and  C_35
REMARK    3  A    between atoms: C_35  and  O_36
REMARK                            x       y       z     vdW  Elec       q    Type
REMARK                         _______ _______ _______ _____ _____    ______ ____
ROOT
ATOM      1  O   UNL     1      16.694   7.200  71.004  0.00  0.00    +0.000 OA
ATOM      2  O   UNL     1      12.744   1.352  73.635  0.00  0.00    +0.000 OA
ATOM      3  N   UNL     1      16.183   5.433  69.519  0.00  0.00    +0.000 N 
ATOM      4  N   UNL     1      14.815   6.294  72.048  0.00  0.00    +0.000 N 
ATOM      5  N   UNL     1      13.694   0.462  71.712  0.00  0.00    +0.000 N 
ATOM      6  C   UNL     1      16.522   6.869  69.581  0.00  0.00    +0.000 C 
ATOM      7  C   UNL     1      15.337   7.816  69.106  0.00  0.00    +0.000 C 
ATOM      8  C   UNL     1      15.385   7.414  71.470  0.00  0.00    +0.000 C 
ATOM      9  C   UNL     1      14.678   8.006  70.395  0.00  0.00    +0.000 C 
ATOM     10  C   UNL     1      15.535   4.623  70.417  0.00  0.00    +0.000 A 
ATOM     11  C   UNL     1      14.909   5.010  71.602  0.00  0.00    +0.000 A 
ATOM     12  C   UNL     1      15.380   3.265  70.122  0.00  0.00    +0.000 A 
ATOM     13  C   UNL     1      14.237   3.993  72.289  0.00  0.00    +0.000 A 
ATOM     14  C   UNL     1      17.905   7.178  68.918  0.00  0.00    +0.000 C 
ATOM     15  C   UNL     1      16.410   4.499  68.477  0.00  0.00    +0.000 A 
ATOM     16  C   UNL     1      13.936   6.119  73.133  0.00  0.00    +0.000 A 
ATOM     17  C   UNL     1      15.957   3.176  68.842  0.00  0.00    +0.000 A 
ATOM     18  C   UNL     1      14.733   2.226  70.804  0.00  0.00    +0.000 A 
ATOM     19  C   UNL     1      14.089   2.618  72.015  0.00  0.00    +0.000 A 
ATOM     20  C   UNL     1      13.594   4.726  73.312  0.00  0.00    +0.000 A 
ATOM     21  C   UNL     1      14.444   0.779  70.636  0.00  0.00    +0.000 C 
ATOM     22  C   UNL     1      16.982   4.718  67.212  0.00  0.00    +0.000 A 
ATOM     23  C   UNL     1      13.410   1.493  72.620  0.00  0.00    +0.000 C 
ATOM     24  C   UNL     1      13.421   7.103  73.991  0.00  0.00    +0.000 A 
ATOM     25  C   UNL     1      16.121   2.129  67.914  0.00  0.00    +0.000 A 
ATOM     26  C   UNL     1      12.722   4.393  74.368  0.00  0.00    +0.000 A 
ATOM     27  C   UNL     1      17.124   3.648  66.328  0.00  0.00    +0.000 A 
ATOM     28  C   UNL     1      16.707   2.372  66.672  0.00  0.00    +0.000 A 
ATOM     29  C   UNL     1      12.567   6.714  75.023  0.00  0.00    +0.000 A 
ATOM     30  C   UNL     1      12.222   5.384  75.211  0.00  0.00    +0.000 A 
ATOM     31  H   UNL     1      13.341  -0.470  71.873  0.00  0.00    +0.000 HD
ENDROOT
BRANCH   7  32
ATOM     32  O   UNL     1      14.409   7.209  68.194  0.00  0.00    +0.000 OA
ATOM     33  H   UNL     1      13.529   7.610  68.365  0.00  0.00    +0.000 HD
ENDBRANCH   7  32
BRANCH   7  35
ATOM     34  O   UNL     1      15.963   9.295  67.322  0.00  0.00    +0.000 OA
ATOM     35  C   UNL     1      15.857   9.136  68.539  0.00  0.00    +0.000 C 
BRANCH  35  36
ATOM     36  O   UNL     1      16.105  10.047  69.528  0.00  0.00    +0.000 OA
ATOM     37  C   UNL     1      17.268  10.824  69.421  0.00  0.00    +0.000 C 
ENDBRANCH  35  36
ENDBRANCH   7  35
TORSDOF 3
ENDMDL
MODEL 4
REMARK VINA RESULT:      -5.8     17.019     20.205
REMARK  Name = 490561_Nocardiopsis.pdbqt.pdb
REMARK  3 active torsions:
REMARK  status: ('A' for Active; 'I' for Inactive)
REMARK    1  A    between atoms: C_7  and  O_32
REMARK    2  A    between atoms: C_7  and  C_35
REMARK    3  A    between atoms: C_35  and  O_36
REMARK                            x       y       z     vdW  Elec       q    Type
REMARK                         _______ _______ _______ _____ _____    ______ ____
ROOT
ATOM      1  O   UNL     1      14.841   6.936  74.262  0.00  0.00    +0.000 OA
ATOM      2  O   UNL     1      12.366  -0.037  72.857  0.00  0.00    +0.000 OA
ATOM      3  N   UNL     1      14.878   6.162  72.028  0.00  0.00    +0.000 N 
ATOM      4  N   UNL     1      13.198   5.282  74.355  0.00  0.00    +0.000 N 
ATOM      5  N   UNL     1      13.616   0.420  70.954  0.00  0.00    +0.000 N 
ATOM      6  C   UNL     1      14.838   7.382  72.860  0.00  0.00    +0.000 C 
ATOM      7  C   UNL     1      13.480   8.195  72.717  0.00  0.00    +0.000 C 
ATOM      8  C   UNL     1      13.496   6.623  74.528  0.00  0.00    +0.000 C 
ATOM      9  C   UNL     1      12.723   7.548  73.785  0.00  0.00    +0.000 C 
ATOM     10  C   UNL     1      14.408   4.895  72.268  0.00  0.00    +0.000 A 
ATOM     11  C   UNL     1      13.640   4.473  73.353  0.00  0.00    +0.000 A 
ATOM     12  C   UNL     1      14.621   3.898  71.312  0.00  0.00    +0.000 A 
ATOM     13  C   UNL     1      13.211   3.142  73.306  0.00  0.00    +0.000 A 
ATOM     14  C   UNL     1      16.132   8.247  72.702  0.00  0.00    +0.000 C 
ATOM     15  C   UNL     1      15.393   5.982  70.720  0.00  0.00    +0.000 A 
ATOM     16  C   UNL     1      12.334   4.400  75.029  0.00  0.00    +0.000 A 
ATOM     17  C   UNL     1      15.271   4.608  70.287  0.00  0.00    +0.000 A 
ATOM     18  C   UNL     1      14.221   2.556  71.254  0.00  0.00    +0.000 A 
ATOM     19  C   UNL     1      13.433   2.120  72.360  0.00  0.00    +0.000 A 
ATOM     20  C   UNL     1      12.348   3.087  74.423  0.00  0.00    +0.000 A 
ATOM     21  C   UNL     1      14.319   1.392  70.336  0.00  0.00    +0.000 C 
ATOM     22  C   UNL     1      15.960   6.938  69.861  0.00  0.00    +0.000 A 
ATOM     23  C   UNL     1      13.030   0.741  72.188  0.00  0.00    +0.000 C 
ATOM     24  C   UNL     1      11.539   4.665  76.154  0.00  0.00    +0.000 A 
ATOM     25  C   UNL     1      15.747   4.262  69.006  0.00  0.00    +0.000 A 
ATOM     26  C   UNL     1      11.531   2.090  74.994  0.00  0.00    +0.000 A 
ATOM     27  C   UNL     1      16.418   6.546  68.603  0.00  0.00    +0.000 A 
ATOM     28  C   UNL     1      16.320   5.230  68.182  0.00  0.00    +0.000 A 
ATOM     29  C   UNL     1      10.756   3.638  76.681  0.00  0.00    +0.000 A 
ATOM     30  C   UNL     1      10.750   2.372  76.113  0.00  0.00    +0.000 A 
ATOM     31  H   UNL     1      13.503  -0.503  70.562  0.00  0.00    +0.000 HD
ENDROOT
BRANCH   7  32
ATOM     32  O   UNL     1      12.788   8.001  71.474  0.00  0.00    +0.000 OA
ATOM     33  H   UNL     1      12.387   7.105  71.501  0.00  0.00    +0.000 HD
ENDBRANCH   7  32
BRANCH   7  35
ATOM     34  O   UNL     1      13.794  10.098  74.146  0.00  0.00    +0.000 OA
ATOM     35  C   UNL     1      13.677   9.685  72.990  0.00  0.00    +0.000 C 
BRANCH  35  36
ATOM     36  O   UNL     1      13.755  10.406  71.831  0.00  0.00    +0.000 OA
ATOM     37  C   UNL     1      14.478  11.606  71.858  0.00  0.00    +0.000 C 
ENDBRANCH  35  36
ENDBRANCH   7  35
TORSDOF 3
ENDMDL
MODEL 5
REMARK VINA RESULT:      -5.6      1.637      5.378
REMARK  Name = 490561_Nocardiopsis.pdbqt.pdb
REMARK  3 active torsions:
REMARK  status: ('A' for Active; 'I' for Inactive)
REMARK    1  A    between atoms: C_7  and  O_32
REMARK    2  A    between atoms: C_7  and  C_35
REMARK    3  A    between atoms: C_35  and  O_36
REMARK                            x       y       z     vdW  Elec       q    Type
REMARK                         _______ _______ _______ _____ _____    ______ ____
ROOT
ATOM      1  O   UNL     1      16.454   3.103  51.770  0.00  0.00    +0.000 OA
ATOM      2  O   UNL     1      16.062  -2.775  56.463  0.00  0.00    +0.000 OA
ATOM      3  N   UNL     1      18.461   2.288  52.716  0.00  0.00    +0.000 N 
ATOM      4  N   UNL     1      15.833   0.910  52.268  0.00  0.00    +0.000 N 
ATOM      5  N   UNL     1      18.143  -1.884  56.983  0.00  0.00    +0.000 N 
ATOM      6  C   UNL     1      17.910   3.039  51.569  0.00  0.00    +0.000 C 
ATOM      7  C   UNL     1      18.075   2.279  50.183  0.00  0.00    +0.000 C 
ATOM      8  C   UNL     1      15.983   1.871  51.283  0.00  0.00    +0.000 C 
ATOM      9  C   UNL     1      16.818   1.536  50.189  0.00  0.00    +0.000 C 
ATOM     10  C   UNL     1      17.908   1.304  53.496  0.00  0.00    +0.000 A 
ATOM     11  C   UNL     1      16.681   0.668  53.306  0.00  0.00    +0.000 A 
ATOM     12  C   UNL     1      18.646   0.784  54.563  0.00  0.00    +0.000 A 
ATOM     13  C   UNL     1      16.396  -0.372  54.197  0.00  0.00    +0.000 A 
ATOM     14  C   UNL     1      18.388   4.528  51.555  0.00  0.00    +0.000 C 
ATOM     15  C   UNL     1      19.749   2.361  53.304  0.00  0.00    +0.000 A 
ATOM     16  C   UNL     1      14.897  -0.122  52.461  0.00  0.00    +0.000 A 
ATOM     17  C   UNL     1      19.863   1.479  54.443  0.00  0.00    +0.000 A 
ATOM     18  C   UNL     1      18.373  -0.239  55.481  0.00  0.00    +0.000 A 
ATOM     19  C   UNL     1      17.121  -0.895  55.288  0.00  0.00    +0.000 A 
ATOM     20  C   UNL     1      15.206  -0.896  53.643  0.00  0.00    +0.000 A 
ATOM     21  C   UNL     1      19.026  -0.931  56.621  0.00  0.00    +0.000 C 
ATOM     22  C   UNL     1      20.849   3.143  52.913  0.00  0.00    +0.000 A 
ATOM     23  C   UNL     1      16.950  -1.963  56.249  0.00  0.00    +0.000 C 
ATOM     24  C   UNL     1      13.774  -0.426  51.676  0.00  0.00    +0.000 A 
ATOM     25  C   UNL     1      21.085   1.442  55.145  0.00  0.00    +0.000 A 
ATOM     26  C   UNL     1      14.351  -1.967  53.972  0.00  0.00    +0.000 A 
ATOM     27  C   UNL     1      22.036   3.073  53.641  0.00  0.00    +0.000 A 
ATOM     28  C   UNL     1      22.154   2.242  54.744  0.00  0.00    +0.000 A 
ATOM     29  C   UNL     1      12.959  -1.493  52.053  0.00  0.00    +0.000 A 
ATOM     30  C   UNL     1      13.239  -2.251  53.181  0.00  0.00    +0.000 A 
ATOM     31  H   UNL     1      18.314  -2.524  57.744  0.00  0.00    +0.000 HD
ENDROOT
BRANCH   7  32
ATOM     32  O   UNL     1      19.165   1.347  50.132  0.00  0.00    +0.000 OA
ATOM     33  H   UNL     1      19.918   1.802  49.694  0.00  0.00    +0.000 HD
ENDBRANCH   7  32
BRANCH   7  35
ATOM     34  O   UNL     1      19.240   3.649  48.593  0.00  0.00    +0.000 OA
ATOM     35  C   UNL     1      18.149   3.251  49.008  0.00  0.00    +0.000 C 
BRANCH  35  36
ATOM     36  O   UNL     1      16.909   3.531  48.504  0.00  0.00    +0.000 OA
ATOM     37  C   UNL     1      16.546   4.880  48.380  0.00  0.00    +0.000 C 
ENDBRANCH  35  36
ENDBRANCH   7  35
TORSDOF 3
ENDMDL
MODEL 6
REMARK VINA RESULT:      -5.5     10.612     12.209
REMARK  Name = 490561_Nocardiopsis.pdbqt.pdb
REMARK  3 active torsions:
REMARK  status: ('A' for Active; 'I' for Inactive)
REMARK    1  A    between atoms: C_7  and  O_32
REMARK    2  A    between atoms: C_7  and  C_35
REMARK    3  A    between atoms: C_35  and  O_36
REMARK                            x       y       z     vdW  Elec       q    Type
REMARK                         _______ _______ _______ _____ _____    ______ ____
ROOT
ATOM      1  O   UNL     1      16.934  13.177  56.103  0.00  0.00    +0.000 OA
ATOM      2  O   UNL     1      16.615  10.594  63.170  0.00  0.00    +0.000 OA
ATOM      3  N   UNL     1      18.042  11.150  56.606  0.00  0.00    +0.000 N 
ATOM      4  N   UNL     1      15.742  12.495  57.988  0.00  0.00    +0.000 N 
ATOM      5  N   UNL     1      18.435   9.430  62.316  0.00  0.00    +0.000 N 
ATOM      6  C   UNL     1      17.432  11.927  55.508  0.00  0.00    +0.000 C 
ATOM      7  C   UNL     1      16.131  11.244  54.902  0.00  0.00    +0.000 C 
ATOM      8  C   UNL     1      15.686  12.828  56.646  0.00  0.00    +0.000 C 
ATOM      9  C   UNL     1      15.134  11.859  55.773  0.00  0.00    +0.000 C 
ATOM     10  C   UNL     1      17.760  11.118  57.949  0.00  0.00    +0.000 A 
ATOM     11  C   UNL     1      16.703  11.752  58.603  0.00  0.00    +0.000 A 
ATOM     12  C   UNL     1      18.532  10.310  58.788  0.00  0.00    +0.000 A 
ATOM     13  C   UNL     1      16.589  11.477  59.970  0.00  0.00    +0.000 A 
ATOM     14  C   UNL     1      18.488  12.371  54.443  0.00  0.00    +0.000 C 
ATOM     15  C   UNL     1      19.078  10.183  56.558  0.00  0.00    +0.000 A 
ATOM     16  C   UNL     1      14.857  12.700  59.062  0.00  0.00    +0.000 A 
ATOM     17  C   UNL     1      19.405   9.691  57.876  0.00  0.00    +0.000 A 
ATOM     18  C   UNL     1      18.451  10.038  60.160  0.00  0.00    +0.000 A 
ATOM     19  C   UNL     1      17.370  10.681  60.833  0.00  0.00    +0.000 A 
ATOM     20  C   UNL     1      15.366  12.112  60.281  0.00  0.00    +0.000 A 
ATOM     21  C   UNL     1      19.137   9.209  61.185  0.00  0.00    +0.000 C 
ATOM     22  C   UNL     1      19.762   9.686  55.436  0.00  0.00    +0.000 A 
ATOM     23  C   UNL     1      17.340  10.303  62.230  0.00  0.00    +0.000 C 
ATOM     24  C   UNL     1      13.631  13.384  59.050  0.00  0.00    +0.000 A 
ATOM     25  C   UNL     1      20.426   8.727  57.999  0.00  0.00    +0.000 A 
ATOM     26  C   UNL     1      14.588  12.240  61.449  0.00  0.00    +0.000 A 
ATOM     27  C   UNL     1      20.766   8.734  55.609  0.00  0.00    +0.000 A 
ATOM     28  C   UNL     1      21.100   8.264  56.869  0.00  0.00    +0.000 A 
ATOM     29  C   UNL     1      12.907  13.485  60.238  0.00  0.00    +0.000 A 
ATOM     30  C   UNL     1      13.374  12.925  61.418  0.00  0.00    +0.000 A 
ATOM     31  H   UNL     1      18.670   8.994  63.196  0.00  0.00    +0.000 HD
ENDROOT
BRANCH   7  32
ATOM     32  O   UNL     1      16.070   9.818  55.059  0.00  0.00    +0.000 OA
ATOM     33  H   UNL     1      15.145   9.544  54.874  0.00  0.00    +0.000 HD
ENDBRANCH   7  32
BRANCH   7  35
ATOM     34  O   UNL     1      16.421  10.960  52.535  0.00  0.00    +0.000 OA
ATOM     35  C   UNL     1      15.916  11.629  53.439  0.00  0.00    +0.000 C 
BRANCH  35  36
ATOM     36  O   UNL     1      15.093  12.714  53.318  0.00  0.00    +0.000 OA
ATOM     37  C   UNL     1      15.570  13.817  52.597  0.00  0.00    +0.000 C 
ENDBRANCH  35  36
ENDBRANCH   7  35
TORSDOF 3
ENDMDL
MODEL 7
REMARK VINA RESULT:      -5.3     18.360     21.522
REMARK  Name = 490561_Nocardiopsis.pdbqt.pdb
REMARK  3 active torsions:
REMARK  status: ('A' for Active; 'I' for Inactive)
REMARK    1  A    between atoms: C_7  and  O_32
REMARK    2  A    between atoms: C_7  and  C_35
REMARK    3  A    between atoms: C_35  and  O_36
REMARK                            x       y       z     vdW  Elec       q    Type
REMARK                         _______ _______ _______ _____ _____    ______ ____
ROOT
ATOM      1  O   UNL     1      15.057   4.020  74.434  0.00  0.00    +0.000 OA
ATOM      2  O   UNL     1       8.360   4.285  77.870  0.00  0.00    +0.000 OA
ATOM      3  N   UNL     1      13.407   2.451  73.798  0.00  0.00    +0.000 N 
ATOM      4  N   UNL     1      13.120   5.152  75.074  0.00  0.00    +0.000 N 
ATOM      5  N   UNL     1       8.354   2.143  76.972  0.00  0.00    +0.000 N 
ATOM      6  C   UNL     1      14.627   3.144  73.334  0.00  0.00    +0.000 C 
ATOM      7  C   UNL     1      14.362   4.143  72.127  0.00  0.00    +0.000 C 
ATOM      8  C   UNL     1      14.261   5.170  74.291  0.00  0.00    +0.000 C 
ATOM      9  C   UNL     1      14.076   5.349  72.899  0.00  0.00    +0.000 C 
ATOM     10  C   UNL     1      12.436   2.839  74.685  0.00  0.00    +0.000 A 
ATOM     11  C   UNL     1      12.302   4.086  75.296  0.00  0.00    +0.000 A 
ATOM     12  C   UNL     1      11.392   1.957  74.982  0.00  0.00    +0.000 A 
ATOM     13  C   UNL     1      11.161   4.249  76.089  0.00  0.00    +0.000 A 
ATOM     14  C   UNL     1      15.818   2.154  73.108  0.00  0.00    +0.000 C 
ATOM     15  C   UNL     1      12.888   1.189  73.413  0.00  0.00    +0.000 A 
ATOM     16  C   UNL     1      12.416   6.157  75.762  0.00  0.00    +0.000 A 
ATOM     17  C   UNL     1      11.685   0.865  74.146  0.00  0.00    +0.000 A 
ATOM     18  C   UNL     1      10.255   2.090  75.789  0.00  0.00    +0.000 A 
ATOM     19  C   UNL     1      10.112   3.365  76.413  0.00  0.00    +0.000 A 
ATOM     20  C   UNL     1      11.237   5.624  76.408  0.00  0.00    +0.000 A 
ATOM     21  C   UNL     1       9.059   1.303  76.186  0.00  0.00    +0.000 C 
ATOM     22  C   UNL     1      13.385   0.292  72.453  0.00  0.00    +0.000 A 
ATOM     23  C   UNL     1       8.889   3.422  77.184  0.00  0.00    +0.000 C 
ATOM     24  C   UNL     1      12.746   7.516  75.875  0.00  0.00    +0.000 A 
ATOM     25  C   UNL     1      11.050  -0.365  73.884  0.00  0.00    +0.000 A 
ATOM     26  C   UNL     1      10.430   6.514  77.143  0.00  0.00    +0.000 A 
ATOM     27  C   UNL     1      12.721  -0.914  72.231  0.00  0.00    +0.000 A 
ATOM     28  C   UNL     1      11.575  -1.244  72.937  0.00  0.00    +0.000 A 
ATOM     29  C   UNL     1      11.913   8.350  76.621  0.00  0.00    +0.000 A 
ATOM     30  C   UNL     1      10.775   7.861  77.245  0.00  0.00    +0.000 A 
ATOM     31  H   UNL     1       7.476   1.881  77.397  0.00  0.00    +0.000 HD
ENDROOT
BRANCH   7  32
ATOM     32  O   UNL     1      13.217   3.824  71.321  0.00  0.00    +0.000 OA
ATOM     33  H   UNL     1      12.487   3.587  71.933  0.00  0.00    +0.000 HD
ENDBRANCH   7  32
BRANCH   7  35
ATOM     34  O   UNL     1      16.547   5.005  71.635  0.00  0.00    +0.000 OA
ATOM     35  C   UNL     1      15.600   4.316  71.250  0.00  0.00    +0.000 C 
BRANCH  35  36
ATOM     36  O   UNL     1      15.507   3.592  70.094  0.00  0.00    +0.000 OA
ATOM     37  C   UNL     1      15.639   4.282  68.881  0.00  0.00    +0.000 C 
ENDBRANCH  35  36
ENDBRANCH   7  35
TORSDOF 3
ENDMDL
MODEL 8
REMARK VINA RESULT:      -5.3     11.225     13.596
REMARK  Name = 490561_Nocardiopsis.pdbqt.pdb
REMARK  3 active torsions:
REMARK  status: ('A' for Active; 'I' for Inactive)
REMARK    1  A    between atoms: C_7  and  O_32
REMARK    2  A    between atoms: C_7  and  C_35
REMARK    3  A    between atoms: C_35  and  O_36
REMARK                            x       y       z     vdW  Elec       q    Type
REMARK                         _______ _______ _______ _____ _____    ______ ____
ROOT
ATOM      1  O   UNL     1      18.757  11.558  59.236  0.00  0.00    +0.000 OA
ATOM      2  O   UNL     1      14.947  12.101  52.762  0.00  0.00    +0.000 OA
ATOM      3  N   UNL     1      16.557  12.421  59.299  0.00  0.00    +0.000 N 
ATOM      4  N   UNL     1      17.876  10.627  57.287  0.00  0.00    +0.000 N 
ATOM      5  N   UNL     1      13.761  13.548  54.139  0.00  0.00    +0.000 N 
ATOM      6  C   UNL     1      17.592  11.751  60.113  0.00  0.00    +0.000 C 
ATOM      7  C   UNL     1      17.190  10.277  60.551  0.00  0.00    +0.000 C 
ATOM      8  C   UNL     1      18.459  10.386  58.519  0.00  0.00    +0.000 C 
ATOM      9  C   UNL     1      17.743   9.552  59.411  0.00  0.00    +0.000 C 
ATOM     10  C   UNL     1      16.306  12.377  57.951  0.00  0.00    +0.000 A 
ATOM     11  C   UNL     1      16.924  11.559  57.005  0.00  0.00    +0.000 A 
ATOM     12  C   UNL     1      15.271  13.155  57.425  0.00  0.00    +0.000 A 
ATOM     13  C   UNL     1      16.412  11.646  55.706  0.00  0.00    +0.000 A 
ATOM     14  C   UNL     1      18.103  12.659  61.281  0.00  0.00    +0.000 C 
ATOM     15  C   UNL     1      15.503  13.276  59.710  0.00  0.00    +0.000 A 
ATOM     16  C   UNL     1      17.977   9.984  56.040  0.00  0.00    +0.000 A 
ATOM     17  C   UNL     1      14.737  13.753  58.581  0.00  0.00    +0.000 A 
ATOM     18  C   UNL     1      14.757  13.277  56.127  0.00  0.00    +0.000 A 
ATOM     19  C   UNL     1      15.384  12.439  55.157  0.00  0.00    +0.000 A 
ATOM     20  C   UNL     1      17.115  10.606  55.059  0.00  0.00    +0.000 A 
ATOM     21  C   UNL     1      13.677  14.000  55.408  0.00  0.00    +0.000 C 
ATOM     22  C   UNL     1      15.150  13.671  61.011  0.00  0.00    +0.000 A 
ATOM     23  C   UNL     1      14.756  12.598  53.863  0.00  0.00    +0.000 C 
ATOM     24  C   UNL     1      18.788   8.892  55.696  0.00  0.00    +0.000 A 
ATOM     25  C   UNL     1      13.655  14.624  58.822  0.00  0.00    +0.000 A 
ATOM     26  C   UNL     1      17.111  10.072  53.754  0.00  0.00    +0.000 A 
ATOM     27  C   UNL     1      14.072  14.535  61.198  0.00  0.00    +0.000 A 
ATOM     28  C   UNL     1      13.338  15.011  60.123  0.00  0.00    +0.000 A 
ATOM     29  C   UNL     1      18.748   8.411  54.388  0.00  0.00    +0.000 A 
ATOM     30  C   UNL     1      17.926   8.988  53.431  0.00  0.00    +0.000 A 
ATOM     31  H   UNL     1      13.144  13.866  53.407  0.00  0.00    +0.000 HD
ENDROOT
BRANCH   7  32
ATOM     32  O   UNL     1      15.778  10.032  60.619  0.00  0.00    +0.000 OA
ATOM     33  H   UNL     1      15.425  10.564  61.364  0.00  0.00    +0.000 HD
ENDBRANCH   7  32
BRANCH   7  35
ATOM     34  O   UNL     1      19.010   9.410  61.854  0.00  0.00    +0.000 OA
ATOM     35  C   UNL     1      17.866   9.869  61.859  0.00  0.00    +0.000 C 
BRANCH  35  36
ATOM     36  O   UNL     1      17.075  10.133  62.941  0.00  0.00    +0.000 OA
ATOM     37  C   UNL     1      17.628   9.943  64.215  0.00  0.00    +0.000 C 
ENDBRANCH  35  36
ENDBRANCH   7  35
TORSDOF 3
ENDMDL
MODEL 9
REMARK VINA RESULT:      -5.3     10.546     12.048
REMARK  Name = 490561_Nocardiopsis.pdbqt.pdb
REMARK  3 active torsions:
REMARK  status: ('A' for Active; 'I' for Inactive)
REMARK    1  A    between atoms: C_7  and  O_32
REMARK    2  A    between atoms: C_7  and  C_35
REMARK    3  A    between atoms: C_35  and  O_36
REMARK                            x       y       z     vdW  Elec       q    Type
REMARK                         _______ _______ _______ _____ _____    ______ ____
ROOT
ATOM      1  O   UNL     1      15.692  13.705  56.223  0.00  0.00    +0.000 OA
ATOM      2  O   UNL     1      19.492   9.590  61.258  0.00  0.00    +0.000 OA
ATOM      3  N   UNL     1      16.558  11.614  55.538  0.00  0.00    +0.000 N 
ATOM      4  N   UNL     1      15.860  12.617  58.279  0.00  0.00    +0.000 N 
ATOM      5  N   UNL     1      20.180   8.646  59.251  0.00  0.00    +0.000 N 
ATOM      6  C   UNL     1      15.518  12.622  55.244  0.00  0.00    +0.000 C 
ATOM      7  C   UNL     1      14.042  12.096  55.510  0.00  0.00    +0.000 C 
ATOM      8  C   UNL     1      15.025  13.245  57.371  0.00  0.00    +0.000 C 
ATOM      9  C   UNL     1      13.913  12.500  56.907  0.00  0.00    +0.000 C 
ATOM     10  C   UNL     1      17.178  11.280  56.716  0.00  0.00    +0.000 A 
ATOM     11  C   UNL     1      16.871  11.752  57.992  0.00  0.00    +0.000 A 
ATOM     12  C   UNL     1      18.176  10.302  56.707  0.00  0.00    +0.000 A 
ATOM     13  C   UNL     1      17.599  11.174  59.039  0.00  0.00    +0.000 A 
ATOM     14  C   UNL     1      15.726  13.293  53.846  0.00  0.00    +0.000 C 
ATOM     15  C   UNL     1      17.179  10.682  54.669  0.00  0.00    +0.000 A 
ATOM     16  C   UNL     1      15.883  12.575  59.686  0.00  0.00    +0.000 A 
ATOM     17  C   UNL     1      18.183   9.903  55.358  0.00  0.00    +0.000 A 
ATOM     18  C   UNL     1      18.933   9.726  57.736  0.00  0.00    +0.000 A 
ATOM     19  C   UNL     1      18.621  10.203  59.044  0.00  0.00    +0.000 A 
ATOM     20  C   UNL     1      16.950  11.725  60.167  0.00  0.00    +0.000 A 
ATOM     21  C   UNL     1      19.977   8.686  57.917  0.00  0.00    +0.000 C 
ATOM     22  C   UNL     1      16.928  10.451  53.306  0.00  0.00    +0.000 A 
ATOM     23  C   UNL     1      19.416   9.518  60.040  0.00  0.00    +0.000 C 
ATOM     24  C   UNL     1      15.038  13.246  60.582  0.00  0.00    +0.000 A 
ATOM     25  C   UNL     1      18.901   8.935  54.627  0.00  0.00    +0.000 A 
ATOM     26  C   UNL     1      17.104  11.587  61.561  0.00  0.00    +0.000 A 
ATOM     27  C   UNL     1      17.665   9.482  52.627  0.00  0.00    +0.000 A 
ATOM     28  C   UNL     1      18.641   8.739  53.271  0.00  0.00    +0.000 A 
ATOM     29  C   UNL     1      15.241  13.077  61.952  0.00  0.00    +0.000 A 
ATOM     30  C   UNL     1      16.255  12.264  62.436  0.00  0.00    +0.000 A 
ATOM     31  H   UNL     1      20.847   8.022  59.681  0.00  0.00    +0.000 HD
ENDROOT
BRANCH   7  32
ATOM     32  O   UNL     1      13.883  10.672  55.421  0.00  0.00    +0.000 OA
ATOM     33  H   UNL     1      14.489  10.354  54.717  0.00  0.00    +0.000 HD
ENDBRANCH   7  32
BRANCH   7  35
ATOM     34  O   UNL     1      12.691  12.318  53.538  0.00  0.00    +0.000 OA
ATOM     35  C   UNL     1      13.018  12.803  54.623  0.00  0.00    +0.000 C 
BRANCH  35  36
ATOM     36  O   UNL     1      12.530  13.933  55.217  0.00  0.00    +0.000 OA
ATOM     37  C   UNL     1      12.610  15.133  54.497  0.00  0.00    +0.000 C 
ENDBRANCH  35  36
ENDBRANCH   7  35
TORSDOF 3
ENDMDL
