REMARK  Name = 50922675_Encorafenib.pdbqt.pdb
REMARK  8 active torsions:
REMARK  status: ('A' for Active; 'I' for Inactive)
REMARK    1  A    between atoms: N_1  and  C_37
REMARK    2  A    between atoms: C_3  and  C_23
REMARK    3  A    between atoms: C_4  and  C_8
REMARK    4  A    between atoms: C_11  and  N_14
REMARK    5  A    between atoms: N_14  and  S_16
REMARK    6  A    between atoms: N_20  and  C_28
REMARK    7  A    between atoms: C_28  and  C_29
REMARK    8  A    between atoms: C_33  and  O_35
REMARK                            x       y       z     vdW  Elec       q    Type
REMARK                         _______ _______ _______ _____ _____    ______ ____
ROOT
ATOM      1  N   UNL     1      -4.576  -0.161   0.239  0.00  0.00    +0.000 N 
ATOM      2  N   UNL     1      -3.503  -0.945  -0.134  0.00  0.00    +0.000 NA
ATOM      3  C   UNL     1      -2.801   1.220   0.039  0.00  0.00    +0.000 A 
ATOM      4  C   UNL     1      -2.441  -0.130  -0.226  0.00  0.00    +0.000 A 
ATOM      5  C   UNL     1      -4.144   1.156   0.324  0.00  0.00    +0.000 A 
ENDROOT
BRANCH   4   8
ATOM      6 CL   UNL     1       1.688   0.113  -3.295  0.00  0.00    +0.000 Cl
ATOM      7  F   UNL     1      -1.309  -2.458   0.989  0.00  0.00    +0.000 F 
ATOM      8  C   UNL     1      -1.152  -0.692  -0.610  0.00  0.00    +0.000 A 
ATOM      9  C   UNL     1      -0.642  -1.847  -0.004  0.00  0.00    +0.000 A 
ATOM     10  C   UNL     1      -0.428  -0.103  -1.648  0.00  0.00    +0.000 A 
ATOM     11  C   UNL     1       0.581  -2.392  -0.409  0.00  0.00    +0.000 A 
ATOM     12  C   UNL     1       0.786  -0.647  -2.053  0.00  0.00    +0.000 A 
ATOM     13  C   UNL     1       1.286  -1.796  -1.452  0.00  0.00    +0.000 A 
BRANCH  11  14
ATOM     14  N   UNL     1       1.033  -3.632   0.157  0.00  0.00    +0.000 N 
ATOM     15  H   UNL     1       0.381  -4.022   0.844  0.00  0.00    +0.000 HD
BRANCH  14  16
ATOM     16  S   UNL     1       2.569  -3.676   0.825  0.00  0.00    +0.000 S 
ATOM     17  O   UNL     1       3.060  -5.024   0.928  0.00  0.00    +0.000 OA
ATOM     18  O   UNL     1       3.369  -2.503   0.551  0.00  0.00    +0.000 OA
ATOM     19  C   UNL     1       2.332  -3.389   2.553  0.00  0.00    +0.000 C 
ENDBRANCH  14  16
ENDBRANCH  11  14
ENDBRANCH   4   8
BRANCH   3  23
ATOM     20  N   UNL     1       1.418   3.409   0.021  0.00  0.00    +0.000 N 
ATOM     21  N   UNL     1      -0.704   2.346   0.034  0.00  0.00    +0.000 NA
ATOM     22  N   UNL     1      -0.512   4.696   0.145  0.00  0.00    +0.000 NA
ATOM     23  C   UNL     1      -2.044   2.461   0.077  0.00  0.00    +0.000 A 
ATOM     24  C   UNL     1       0.025   3.475   0.069  0.00  0.00    +0.000 A 
ATOM     25  C   UNL     1      -2.689   3.674   0.160  0.00  0.00    +0.000 A 
ATOM     26  C   UNL     1      -1.855   4.763   0.189  0.00  0.00    +0.000 A 
ATOM     27  H   UNL     1       1.790   4.312   0.294  0.00  0.00    +0.000 HD
BRANCH  20  28
ATOM     28  C   UNL     1       2.041   2.206   0.560  0.00  0.00    +0.000 C 
BRANCH  28  29
ATOM     29  C   UNL     1       2.531   0.979   1.075  0.00  0.00    +0.000 C 
ATOM     30  C   UNL     1       1.684   0.252   2.075  0.00  0.00    +0.000 C 
ATOM     31  O   UNL     1       4.500   1.873  -0.821  0.00  0.00    +0.000 OA
ATOM     32  N   UNL     1       3.596   0.301   0.587  0.00  0.00    +0.000 N 
ATOM     33  C   UNL     1       4.497   0.742  -0.347  0.00  0.00    +0.000 C 
ATOM     34  H   UNL     1       3.699  -0.647   0.938  0.00  0.00    +0.000 HD
BRANCH  33  35
ATOM     35  O   UNL     1       5.385  -0.265  -0.647  0.00  0.00    +0.000 OA
ATOM     36  C   UNL     1       6.391  -0.005  -1.593  0.00  0.00    +0.000 C 
ENDBRANCH  33  35
ENDBRANCH  28  29
ENDBRANCH  20  28
ENDBRANCH   3  23
BRANCH   1  37
ATOM     37  C   UNL     1      -5.909  -0.569   0.493  0.00  0.00    +0.000 C 
ATOM     38  C   UNL     1      -6.993   0.420   0.886  0.00  0.00    +0.000 C 
ATOM     39  C   UNL     1      -6.348  -2.014   0.373  0.00  0.00    +0.000 C 
ENDBRANCH   1  37
TORSDOF 8
