MODEL 1
REMARK VINA RESULT:      -3.9      0.000      0.000
REMARK  Name = 50922675_Encorafenib.pdbqt.pdb
REMARK  8 active torsions:
REMARK  status: ('A' for Active; 'I' for Inactive)
REMARK    1  A    between atoms: N_1  and  C_37
REMARK    2  A    between atoms: C_3  and  C_23
REMARK    3  A    between atoms: C_4  and  C_8
REMARK    4  A    between atoms: C_11  and  N_14
REMARK    5  A    between atoms: N_14  and  S_16
REMARK    6  A    between atoms: N_20  and  C_28
REMARK    7  A    between atoms: C_28  and  C_29
REMARK    8  A    between atoms: C_33  and  O_35
REMARK                            x       y       z     vdW  Elec       q    Type
REMARK                         _______ _______ _______ _____ _____    ______ ____
ROOT
ATOM      1  N   UNL     1      15.446  11.547  61.477  0.00  0.00    +0.000 N 
ATOM      2  N   UNL     1      14.294  11.325  60.749  0.00  0.00    +0.000 NA
ATOM      3  C   UNL     1      14.232  13.449  61.584  0.00  0.00    +0.000 A 
ATOM      4  C   UNL     1      13.585  12.464  60.788  0.00  0.00    +0.000 A 
ATOM      5  C   UNL     1      15.391  12.834  61.996  0.00  0.00    +0.000 A 
ENDROOT
BRANCH   4   8
ATOM      6 CL   UNL     1       8.478  11.834  60.999  0.00  0.00    +0.000 Cl
ATOM      7  F   UNL     1      13.311  13.162  58.028  0.00  0.00    +0.000 F 
ATOM      8  C   UNL     1      12.304  12.521  60.096  0.00  0.00    +0.000 A 
ATOM      9  C   UNL     1      12.214  12.847  58.737  0.00  0.00    +0.000 A 
ATOM     10  C   UNL     1      11.136  12.186  60.784  0.00  0.00    +0.000 A 
ATOM     11  C   UNL     1      10.979  12.863  58.081  0.00  0.00    +0.000 A 
ATOM     12  C   UNL     1       9.909  12.199  60.131  0.00  0.00    +0.000 A 
ATOM     13  C   UNL     1       9.825  12.518  58.781  0.00  0.00    +0.000 A 
BRANCH  11  14
ATOM     14  N   UNL     1      10.925  13.101  56.665  0.00  0.00    +0.000 N 
ATOM     15  H   UNL     1      11.726  12.710  56.161  0.00  0.00    +0.000 HD
BRANCH  14  16
ATOM     16  S   UNL     1      10.709  14.678  56.142  0.00  0.00    +0.000 S 
ATOM     17  O   UNL     1       9.318  15.046  56.140  0.00  0.00    +0.000 OA
ATOM     18  O   UNL     1      11.817  15.558  56.440  0.00  0.00    +0.000 OA
ATOM     19  C   UNL     1      10.931  14.620  54.390  0.00  0.00    +0.000 C 
ENDBRANCH  14  16
ENDBRANCH  11  14
ENDBRANCH   4   8
BRANCH   3  23
ATOM     20  N   UNL     1      11.917  16.464  64.437  0.00  0.00    +0.000 N 
ATOM     21  N   UNL     1      13.084  14.985  62.993  0.00  0.00    +0.000 NA
ATOM     22  N   UNL     1      13.191  17.324  62.695  0.00  0.00    +0.000 NA
ATOM     23  C   UNL     1      13.898  14.820  61.935  0.00  0.00    +0.000 A 
ATOM     24  C   UNL     1      12.754  16.240  63.343  0.00  0.00    +0.000 A 
ATOM     25  C   UNL     1      14.396  15.873  61.202  0.00  0.00    +0.000 A 
ATOM     26  C   UNL     1      14.000  17.111  61.641  0.00  0.00    +0.000 A 
ATOM     27  H   UNL     1      11.595  17.425  64.401  0.00  0.00    +0.000 HD
BRANCH  20  28
ATOM     28  C   UNL     1      10.954  15.417  64.757  0.00  0.00    +0.000 C 
BRANCH  28  29
ATOM     29  C   UNL     1      10.102  14.356  65.156  0.00  0.00    +0.000 C 
ATOM     30  C   UNL     1       9.373  13.604  64.084  0.00  0.00    +0.000 C 
ATOM     31  O   UNL     1      11.273  15.372  67.578  0.00  0.00    +0.000 OA
ATOM     32  N   UNL     1      10.051  13.826  66.400  0.00  0.00    +0.000 N 
ATOM     33  C   UNL     1      10.653  14.315  67.530  0.00  0.00    +0.000 C 
ATOM     34  H   UNL     1       9.536  12.953  66.474  0.00  0.00    +0.000 HD
BRANCH  33  35
ATOM     35  O   UNL     1      10.440  13.452  68.580  0.00  0.00    +0.000 OA
ATOM     36  C   UNL     1       9.978  12.157  68.293  0.00  0.00    +0.000 C 
ENDBRANCH  33  35
ENDBRANCH  28  29
ENDBRANCH  20  28
ENDBRANCH   3  23
BRANCH   1  37
ATOM     37  C   UNL     1      16.523  10.655  61.701  0.00  0.00    +0.000 C 
ATOM     38  C   UNL     1      17.303  10.645  63.004  0.00  0.00    +0.000 C 
ATOM     39  C   UNL     1      16.958   9.639  60.665  0.00  0.00    +0.000 C 
ENDBRANCH   1  37
TORSDOF 8
ENDMDL
MODEL 2
REMARK VINA RESULT:      -3.8      3.993      6.943
REMARK  Name = 50922675_Encorafenib.pdbqt.pdb
REMARK  8 active torsions:
REMARK  status: ('A' for Active; 'I' for Inactive)
REMARK    1  A    between atoms: N_1  and  C_37
REMARK    2  A    between atoms: C_3  and  C_23
REMARK    3  A    between atoms: C_4  and  C_8
REMARK    4  A    between atoms: C_11  and  N_14
REMARK    5  A    between atoms: N_14  and  S_16
REMARK    6  A    between atoms: N_20  and  C_28
REMARK    7  A    between atoms: C_28  and  C_29
REMARK    8  A    between atoms: C_33  and  O_35
REMARK                            x       y       z     vdW  Elec       q    Type
REMARK                         _______ _______ _______ _____ _____    ______ ____
ROOT
ATOM      1  N   UNL     1       9.575  11.699  60.469  0.00  0.00    +0.000 N 
ATOM      2  N   UNL     1      10.676  11.902  61.278  0.00  0.00    +0.000 NA
ATOM      3  C   UNL     1      11.114  12.773  59.214  0.00  0.00    +0.000 A 
ATOM      4  C   UNL     1      11.580  12.565  60.541  0.00  0.00    +0.000 A 
ATOM      5  C   UNL     1       9.858  12.216  59.212  0.00  0.00    +0.000 A 
ENDROOT
BRANCH   4   8
ATOM      6 CL   UNL     1      14.141  15.378  64.013  0.00  0.00    +0.000 Cl
ATOM      7  F   UNL     1      14.081  11.461  59.701  0.00  0.00    +0.000 F 
ATOM      8  C   UNL     1      12.859  12.918  61.145  0.00  0.00    +0.000 A 
ATOM      9  C   UNL     1      14.065  12.370  60.690  0.00  0.00    +0.000 A 
ATOM     10  C   UNL     1      12.898  13.869  62.166  0.00  0.00    +0.000 A 
ATOM     11  C   UNL     1      15.287  12.745  61.259  0.00  0.00    +0.000 A 
ATOM     12  C   UNL     1      14.112  14.246  62.729  0.00  0.00    +0.000 A 
ATOM     13  C   UNL     1      15.307  13.703  62.271  0.00  0.00    +0.000 A 
BRANCH  11  14
ATOM     14  N   UNL     1      16.515  12.247  60.707  0.00  0.00    +0.000 N 
ATOM     15  H   UNL     1      16.449  12.030  59.709  0.00  0.00    +0.000 HD
BRANCH  14  16
ATOM     16  S   UNL     1      17.245  10.944  61.468  0.00  0.00    +0.000 S 
ATOM     17  O   UNL     1      18.674  10.978  61.315  0.00  0.00    +0.000 OA
ATOM     18  O   UNL     1      16.530  10.456  62.626  0.00  0.00    +0.000 OA
ATOM     19  C   UNL     1      16.937   9.559  60.413  0.00  0.00    +0.000 C 
ENDBRANCH  14  16
ENDBRANCH  11  14
ENDBRANCH   4   8
BRANCH   3  23
ATOM     20  N   UNL     1      12.645  16.768  57.142  0.00  0.00    +0.000 N 
ATOM     21  N   UNL     1      11.887  14.756  58.148  0.00  0.00    +0.000 NA
ATOM     22  N   UNL     1      12.752  14.776  55.952  0.00  0.00    +0.000 NA
ATOM     23  C   UNL     1      11.690  13.429  58.050  0.00  0.00    +0.000 A 
ATOM     24  C   UNL     1      12.416  15.392  57.088  0.00  0.00    +0.000 A 
ATOM     25  C   UNL     1      11.999  12.707  56.920  0.00  0.00    +0.000 A 
ATOM     26  C   UNL     1      12.534  13.449  55.898  0.00  0.00    +0.000 A 
ATOM     27  H   UNL     1      12.815  17.100  56.199  0.00  0.00    +0.000 HD
BRANCH  20  28
ATOM     28  C   UNL     1      11.773  17.549  58.011  0.00  0.00    +0.000 C 
BRANCH  28  29
ATOM     29  C   UNL     1      11.029  18.381  58.885  0.00  0.00    +0.000 C 
ATOM     30  C   UNL     1       9.979  19.265  58.283  0.00  0.00    +0.000 C 
ATOM     31  O   UNL     1      12.814  16.881  60.567  0.00  0.00    +0.000 OA
ATOM     32  N   UNL     1      11.036  18.294  60.236  0.00  0.00    +0.000 N 
ATOM     33  C   UNL     1      11.878  17.539  61.009  0.00  0.00    +0.000 C 
ATOM     34  H   UNL     1      10.309  18.827  60.704  0.00  0.00    +0.000 HD
BRANCH  33  35
ATOM     35  O   UNL     1      11.518  17.649  62.332  0.00  0.00    +0.000 OA
ATOM     36  C   UNL     1      10.181  17.961  62.634  0.00  0.00    +0.000 C 
ENDBRANCH  33  35
ENDBRANCH  28  29
ENDBRANCH  20  28
ENDBRANCH   3  23
BRANCH   1  37
ATOM     37  C   UNL     1       8.350  11.071  60.804  0.00  0.00    +0.000 C 
ATOM     38  C   UNL     1       7.922   9.756  60.175  0.00  0.00    +0.000 C 
ATOM     39  C   UNL     1       7.394  11.656  61.822  0.00  0.00    +0.000 C 
ENDBRANCH   1  37
TORSDOF 8
ENDMDL
MODEL 3
REMARK VINA RESULT:      -3.8      4.773      8.382
REMARK  Name = 50922675_Encorafenib.pdbqt.pdb
REMARK  8 active torsions:
REMARK  status: ('A' for Active; 'I' for Inactive)
REMARK    1  A    between atoms: N_1  and  C_37
REMARK    2  A    between atoms: C_3  and  C_23
REMARK    3  A    between atoms: C_4  and  C_8
REMARK    4  A    between atoms: C_11  and  N_14
REMARK    5  A    between atoms: N_14  and  S_16
REMARK    6  A    between atoms: N_20  and  C_28
REMARK    7  A    between atoms: C_28  and  C_29
REMARK    8  A    between atoms: C_33  and  O_35
REMARK                            x       y       z     vdW  Elec       q    Type
REMARK                         _______ _______ _______ _____ _____    ______ ____
ROOT
ATOM      1  N   UNL     1      11.202  12.263  60.487  0.00  0.00    +0.000 N 
ATOM      2  N   UNL     1      12.318  12.031  61.265  0.00  0.00    +0.000 NA
ATOM      3  C   UNL     1      12.997  12.513  59.140  0.00  0.00    +0.000 A 
ATOM      4  C   UNL     1      13.387  12.206  60.473  0.00  0.00    +0.000 A 
ATOM      5  C   UNL     1      11.624  12.538  59.192  0.00  0.00    +0.000 A 
ENDROOT
BRANCH   4   8
ATOM      6 CL   UNL     1      17.591   9.257  60.860  0.00  0.00    +0.000 Cl
ATOM      7  F   UNL     1      14.617  14.066  62.263  0.00  0.00    +0.000 F 
ATOM      8  C   UNL     1      14.719  12.021  61.035  0.00  0.00    +0.000 A 
ATOM      9  C   UNL     1      15.278  12.947  61.925  0.00  0.00    +0.000 A 
ATOM     10  C   UNL     1      15.440  10.866  60.727  0.00  0.00    +0.000 A 
ATOM     11  C   UNL     1      16.544  12.736  62.481  0.00  0.00    +0.000 A 
ATOM     12  C   UNL     1      16.697  10.655  61.283  0.00  0.00    +0.000 A 
ATOM     13  C   UNL     1      17.245  11.573  62.170  0.00  0.00    +0.000 A 
BRANCH  11  14
ATOM     14  N   UNL     1      17.051  13.647  63.469  0.00  0.00    +0.000 N 
ATOM     15  H   UNL     1      16.339  13.952  64.138  0.00  0.00    +0.000 HD
BRANCH  14  16
ATOM     16  S   UNL     1      17.869  15.008  62.934  0.00  0.00    +0.000 S 
ATOM     17  O   UNL     1      18.455  14.795  61.638  0.00  0.00    +0.000 OA
ATOM     18  O   UNL     1      17.325  16.257  63.422  0.00  0.00    +0.000 OA
ATOM     19  C   UNL     1      19.374  15.040  63.860  0.00  0.00    +0.000 C 
ENDBRANCH  14  16
ENDBRANCH  11  14
ENDBRANCH   4   8
BRANCH   3  23
ATOM     20  N   UNL     1      16.695  14.646  57.050  0.00  0.00    +0.000 N 
ATOM     21  N   UNL     1      14.838  13.570  58.063  0.00  0.00    +0.000 NA
ATOM     22  N   UNL     1      15.232  13.403  55.742  0.00  0.00    +0.000 NA
ATOM     23  C   UNL     1      13.746  12.796  57.926  0.00  0.00    +0.000 A 
ATOM     24  C   UNL     1      15.552  13.851  56.959  0.00  0.00    +0.000 A 
ATOM     25  C   UNL     1      13.334  12.291  56.714  0.00  0.00    +0.000 A 
ATOM     26  C   UNL     1      14.131  12.635  55.651  0.00  0.00    +0.000 A 
ATOM     27  H   UNL     1      16.955  14.940  56.115  0.00  0.00    +0.000 HD
BRANCH  20  28
ATOM     28  C   UNL     1      16.733  15.629  58.126  0.00  0.00    +0.000 C 
BRANCH  28  29
ATOM     29  C   UNL     1      16.895  16.557  59.186  0.00  0.00    +0.000 C 
ATOM     30  C   UNL     1      15.761  16.721  60.151  0.00  0.00    +0.000 C 
ATOM     31  O   UNL     1      19.369  16.603  57.720  0.00  0.00    +0.000 OA
ATOM     32  N   UNL     1      18.062  17.152  59.526  0.00  0.00    +0.000 N 
ATOM     33  C   UNL     1      19.238  17.124  58.823  0.00  0.00    +0.000 C 
ATOM     34  H   UNL     1      18.053  17.635  60.420  0.00  0.00    +0.000 HD
BRANCH  33  35
ATOM     35  O   UNL     1      20.220  17.773  59.534  0.00  0.00    +0.000 OA
ATOM     36  C   UNL     1      20.819  17.098  60.611  0.00  0.00    +0.000 C 
ENDBRANCH  33  35
ENDBRANCH  28  29
ENDBRANCH  20  28
ENDBRANCH   3  23
BRANCH   1  37
ATOM     37  C   UNL     1       9.841  12.231  60.880  0.00  0.00    +0.000 C 
ATOM     38  C   UNL     1       8.861  11.223  60.304  0.00  0.00    +0.000 C 
ATOM     39  C   UNL     1       9.276  13.185  61.912  0.00  0.00    +0.000 C 
ENDBRANCH   1  37
TORSDOF 8
ENDMDL
MODEL 4
REMARK VINA RESULT:      -3.8      5.367      7.770
REMARK  Name = 50922675_Encorafenib.pdbqt.pdb
REMARK  8 active torsions:
REMARK  status: ('A' for Active; 'I' for Inactive)
REMARK    1  A    between atoms: N_1  and  C_37
REMARK    2  A    between atoms: C_3  and  C_23
REMARK    3  A    between atoms: C_4  and  C_8
REMARK    4  A    between atoms: C_11  and  N_14
REMARK    5  A    between atoms: N_14  and  S_16
REMARK    6  A    between atoms: N_20  and  C_28
REMARK    7  A    between atoms: C_28  and  C_29
REMARK    8  A    between atoms: C_33  and  O_35
REMARK                            x       y       z     vdW  Elec       q    Type
REMARK                         _______ _______ _______ _____ _____    ______ ____
ROOT
ATOM      1  N   UNL     1      21.028  13.560  57.887  0.00  0.00    +0.000 N 
ATOM      2  N   UNL     1      20.390  13.004  56.797  0.00  0.00    +0.000 NA
ATOM      3  C   UNL     1      19.926  11.739  58.639  0.00  0.00    +0.000 A 
ATOM      4  C   UNL     1      19.712  11.937  57.247  0.00  0.00    +0.000 A 
ATOM      5  C   UNL     1      20.755  12.775  58.999  0.00  0.00    +0.000 A 
ENDROOT
BRANCH   4   8
ATOM      6 CL   UNL     1      19.698   8.580  53.341  0.00  0.00    +0.000 Cl
ATOM      7  F   UNL     1      16.855  11.984  57.120  0.00  0.00    +0.000 F 
ATOM      8  C   UNL     1      18.935  11.144  56.302  0.00  0.00    +0.000 A 
ATOM      9  C   UNL     1      17.537  11.212  56.258  0.00  0.00    +0.000 A 
ATOM     10  C   UNL     1      19.598  10.338  55.375  0.00  0.00    +0.000 A 
ATOM     11  C   UNL     1      16.810  10.469  55.321  0.00  0.00    +0.000 A 
ATOM     12  C   UNL     1      18.876   9.603  54.442  0.00  0.00    +0.000 A 
ATOM     13  C   UNL     1      17.488   9.677  54.399  0.00  0.00    +0.000 A 
BRANCH  11  14
ATOM     14  N   UNL     1      15.386  10.633  55.230  0.00  0.00    +0.000 N 
ATOM     15  H   UNL     1      14.906   9.793  54.894  0.00  0.00    +0.000 HD
BRANCH  14  16
ATOM     16  S   UNL     1      14.801  11.941  54.360  0.00  0.00    +0.000 S 
ATOM     17  O   UNL     1      14.854  13.153  55.132  0.00  0.00    +0.000 OA
ATOM     18  O   UNL     1      14.998  11.839  52.931  0.00  0.00    +0.000 OA
ATOM     19  C   UNL     1      13.044  11.749  54.360  0.00  0.00    +0.000 C 
ENDBRANCH  14  16
ENDBRANCH  11  14
ENDBRANCH   4   8
BRANCH   3  23
ATOM     20  N   UNL     1      16.230   9.733  60.855  0.00  0.00    +0.000 N 
ATOM     21  N   UNL     1      18.097  10.715  59.767  0.00  0.00    +0.000 NA
ATOM     22  N   UNL     1      18.373   8.977  61.340  0.00  0.00    +0.000 NA
ATOM     23  C   UNL     1      19.430  10.758  59.591  0.00  0.00    +0.000 A 
ATOM     24  C   UNL     1      17.606   9.820  60.642  0.00  0.00    +0.000 A 
ATOM     25  C   UNL     1      20.301   9.934  60.267  0.00  0.00    +0.000 A 
ATOM     26  C   UNL     1      19.700   9.057  61.134  0.00  0.00    +0.000 A 
ATOM     27  H   UNL     1      16.072   9.189  61.697  0.00  0.00    +0.000 HD
BRANCH  20  28
ATOM     28  C   UNL     1      15.452  10.949  60.653  0.00  0.00    +0.000 C 
BRANCH  28  29
ATOM     29  C   UNL     1      14.748  12.139  60.338  0.00  0.00    +0.000 C 
ATOM     30  C   UNL     1      13.920  12.152  59.089  0.00  0.00    +0.000 C 
ATOM     31  O   UNL     1      16.080  12.656  62.834  0.00  0.00    +0.000 OA
ATOM     32  N   UNL     1      14.588  13.192  61.174  0.00  0.00    +0.000 N 
ATOM     33  C   UNL     1      15.211  13.391  62.378  0.00  0.00    +0.000 C 
ATOM     34  H   UNL     1      13.901  13.877  60.873  0.00  0.00    +0.000 HD
BRANCH  33  35
ATOM     35  O   UNL     1      14.722  14.533  62.970  0.00  0.00    +0.000 OA
ATOM     36  C   UNL     1      13.450  14.990  62.585  0.00  0.00    +0.000 C 
ENDBRANCH  33  35
ENDBRANCH  28  29
ENDBRANCH  20  28
ENDBRANCH   3  23
BRANCH   1  37
ATOM     37  C   UNL     1      21.841  14.720  57.924  0.00  0.00    +0.000 C 
ATOM     38  C   UNL     1      23.328  14.652  58.225  0.00  0.00    +0.000 C 
ATOM     39  C   UNL     1      21.287  16.104  57.650  0.00  0.00    +0.000 C 
ENDBRANCH   1  37
TORSDOF 8
ENDMDL
MODEL 5
REMARK VINA RESULT:      -3.7     14.969     17.866
REMARK  Name = 50922675_Encorafenib.pdbqt.pdb
REMARK  8 active torsions:
REMARK  status: ('A' for Active; 'I' for Inactive)
REMARK    1  A    between atoms: N_1  and  C_37
REMARK    2  A    between atoms: C_3  and  C_23
REMARK    3  A    between atoms: C_4  and  C_8
REMARK    4  A    between atoms: C_11  and  N_14
REMARK    5  A    between atoms: N_14  and  S_16
REMARK    6  A    between atoms: N_20  and  C_28
REMARK    7  A    between atoms: C_28  and  C_29
REMARK    8  A    between atoms: C_33  and  O_35
REMARK                            x       y       z     vdW  Elec       q    Type
REMARK                         _______ _______ _______ _____ _____    ______ ____
ROOT
ATOM      1  N   UNL     1       1.673   7.965  69.187  0.00  0.00    +0.000 N 
ATOM      2  N   UNL     1       0.333   7.633  69.176  0.00  0.00    +0.000 NA
ATOM      3  C   UNL     1       1.372   6.533  67.467  0.00  0.00    +0.000 A 
ATOM      4  C   UNL     1       0.158   6.760  68.172  0.00  0.00    +0.000 A 
ATOM      5  C   UNL     1       2.293   7.306  68.134  0.00  0.00    +0.000 A 
ENDROOT
BRANCH   4   8
ATOM      6 CL   UNL     1      -4.392   7.331  65.828  0.00  0.00    +0.000 Cl
ATOM      7  F   UNL     1      -0.830   4.344  69.340  0.00  0.00    +0.000 F 
ATOM      8  C   UNL     1      -1.177   6.232  67.921  0.00  0.00    +0.000 A 
ATOM      9  C   UNL     1      -1.631   5.055  68.529  0.00  0.00    +0.000 A 
ATOM     10  C   UNL     1      -2.053   6.943  67.099  0.00  0.00    +0.000 A 
ATOM     11  C   UNL     1      -2.928   4.582  68.303  0.00  0.00    +0.000 A 
ATOM     12  C   UNL     1      -3.343   6.475  66.877  0.00  0.00    +0.000 A 
ATOM     13  C   UNL     1      -3.791   5.309  67.487  0.00  0.00    +0.000 A 
BRANCH  11  14
ATOM     14  N   UNL     1      -3.402   3.430  69.018  0.00  0.00    +0.000 N 
ATOM     15  H   UNL     1      -4.140   2.924  68.519  0.00  0.00    +0.000 HD
BRANCH  14  16
ATOM     16  S   UNL     1      -3.905   3.641  70.602  0.00  0.00    +0.000 S 
ATOM     17  O   UNL     1      -5.248   3.165  70.796  0.00  0.00    +0.000 OA
ATOM     18  O   UNL     1      -2.838   3.583  71.576  0.00  0.00    +0.000 OA
ATOM     19  C   UNL     1      -4.254   5.368  70.752  0.00  0.00    +0.000 C 
ENDBRANCH  14  16
ENDBRANCH  11  14
ENDBRANCH   4   8
BRANCH   3  23
ATOM     20  N   UNL     1       1.590   2.194  65.538  0.00  0.00    +0.000 N 
ATOM     21  N   UNL     1       1.496   4.373  66.474  0.00  0.00    +0.000 NA
ATOM     22  N   UNL     1       2.328   4.012  64.295  0.00  0.00    +0.000 NA
ATOM     23  C   UNL     1       1.721   5.693  66.333  0.00  0.00    +0.000 A 
ATOM     24  C   UNL     1       1.809   3.569  65.443  0.00  0.00    +0.000 A 
ATOM     25  C   UNL     1       2.256   6.243  65.190  0.00  0.00    +0.000 A 
ATOM     26  C   UNL     1       2.539   5.337  64.199  0.00  0.00    +0.000 A 
ATOM     27  H   UNL     1       2.093   1.738  64.786  0.00  0.00    +0.000 HD
BRANCH  20  28
ATOM     28  C   UNL     1       1.645   1.607  66.872  0.00  0.00    +0.000 C 
BRANCH  28  29
ATOM     29  C   UNL     1       1.679   0.922  68.113  0.00  0.00    +0.000 C 
ATOM     30  C   UNL     1       3.010   0.457  68.619  0.00  0.00    +0.000 C 
ATOM     31  O   UNL     1      -1.076   1.628  67.684  0.00  0.00    +0.000 OA
ATOM     32  N   UNL     1       0.644   0.835  68.981  0.00  0.00    +0.000 N 
ATOM     33  C   UNL     1      -0.654   1.216  68.759  0.00  0.00    +0.000 C 
ATOM     34  H   UNL     1       0.885   0.480  69.902  0.00  0.00    +0.000 HD
BRANCH  33  35
ATOM     35  O   UNL     1      -1.389   1.052  69.909  0.00  0.00    +0.000 OA
ATOM     36  C   UNL     1      -0.999   0.047  70.811  0.00  0.00    +0.000 C 
ENDBRANCH  33  35
ENDBRANCH  28  29
ENDBRANCH  20  28
ENDBRANCH   3  23
BRANCH   1  37
ATOM     37  C   UNL     1       2.351   8.829  70.082  0.00  0.00    +0.000 C 
ATOM     38  C   UNL     1       1.980  10.295  70.222  0.00  0.00    +0.000 C 
ATOM     39  C   UNL     1       3.478   8.347  70.972  0.00  0.00    +0.000 C 
ENDBRANCH   1  37
TORSDOF 8
ENDMDL
MODEL 6
REMARK VINA RESULT:      -3.7     11.182     13.874
REMARK  Name = 50922675_Encorafenib.pdbqt.pdb
REMARK  8 active torsions:
REMARK  status: ('A' for Active; 'I' for Inactive)
REMARK    1  A    between atoms: N_1  and  C_37
REMARK    2  A    between atoms: C_3  and  C_23
REMARK    3  A    between atoms: C_4  and  C_8
REMARK    4  A    between atoms: C_11  and  N_14
REMARK    5  A    between atoms: N_14  and  S_16
REMARK    6  A    between atoms: N_20  and  C_28
REMARK    7  A    between atoms: C_28  and  C_29
REMARK    8  A    between atoms: C_33  and  O_35
REMARK                            x       y       z     vdW  Elec       q    Type
REMARK                         _______ _______ _______ _____ _____    ______ ____
ROOT
ATOM      1  N   UNL     1      15.268   1.226  70.042  0.00  0.00    +0.000 N 
ATOM      2  N   UNL     1      15.748   0.221  69.227  0.00  0.00    +0.000 NA
ATOM      3  C   UNL     1      16.390   2.232  68.361  0.00  0.00    +0.000 A 
ATOM      4  C   UNL     1      16.438   0.816  68.243  0.00  0.00    +0.000 A 
ATOM      5  C   UNL     1      15.648   2.446  69.497  0.00  0.00    +0.000 A 
ENDROOT
BRANCH   4   8
ATOM      6 CL   UNL     1      20.508  -1.980  66.777  0.00  0.00    +0.000 Cl
ATOM      7  F   UNL     1      15.230   0.246  65.715  0.00  0.00    +0.000 F 
ATOM      8  C   UNL     1      17.065  -0.013  67.220  0.00  0.00    +0.000 A 
ATOM      9  C   UNL     1      16.448  -0.251  65.985  0.00  0.00    +0.000 A 
ATOM     10  C   UNL     1      18.338  -0.538  67.447  0.00  0.00    +0.000 A 
ATOM     11  C   UNL     1      17.079  -1.020  65.002  0.00  0.00    +0.000 A 
ATOM     12  C   UNL     1      18.966  -1.300  66.468  0.00  0.00    +0.000 A 
ATOM     13  C   UNL     1      18.353  -1.530  65.243  0.00  0.00    +0.000 A 
BRANCH  11  14
ATOM     14  N   UNL     1      16.472  -1.165  63.709  0.00  0.00    +0.000 N 
ATOM     15  H   UNL     1      16.402  -2.140  63.404  0.00  0.00    +0.000 HD
BRANCH  14  16
ATOM     16  S   UNL     1      17.107  -0.275  62.440  0.00  0.00    +0.000 S 
ATOM     17  O   UNL     1      17.568   1.015  62.880  0.00  0.00    +0.000 OA
ATOM     18  O   UNL     1      17.703  -1.075  61.394  0.00  0.00    +0.000 OA
ATOM     19  C   UNL     1      15.705   0.289  61.521  0.00  0.00    +0.000 C 
ENDBRANCH  14  16
ENDBRANCH  11  14
ENDBRANCH   4   8
BRANCH   3  23
ATOM     20  N   UNL     1      17.370   6.864  67.934  0.00  0.00    +0.000 N 
ATOM     21  N   UNL     1      16.893   4.546  68.116  0.00  0.00    +0.000 NA
ATOM     22  N   UNL     1      17.991   5.424  66.220  0.00  0.00    +0.000 NA
ATOM     23  C   UNL     1      16.964   3.315  67.577  0.00  0.00    +0.000 A 
ATOM     24  C   UNL     1      17.413   5.569  67.416  0.00  0.00    +0.000 A 
ATOM     25  C   UNL     1      17.536   3.066  66.350  0.00  0.00    +0.000 A 
ATOM     26  C   UNL     1      18.037   4.176  65.719  0.00  0.00    +0.000 A 
ATOM     27  H   UNL     1      17.583   7.514  67.186  0.00  0.00    +0.000 HD
BRANCH  20  28
ATOM     28  C   UNL     1      16.269   7.176  68.838  0.00  0.00    +0.000 C 
BRANCH  28  29
ATOM     29  C   UNL     1      15.120   7.469  69.615  0.00  0.00    +0.000 C 
ATOM     30  C   UNL     1      15.008   6.832  70.967  0.00  0.00    +0.000 C 
ATOM     31  O   UNL     1      14.838   8.999  67.196  0.00  0.00    +0.000 OA
ATOM     32  N   UNL     1      14.218   8.438  69.334  0.00  0.00    +0.000 N 
ATOM     33  C   UNL     1      14.133   9.177  68.183  0.00  0.00    +0.000 C 
ATOM     34  H   UNL     1      13.565   8.648  70.084  0.00  0.00    +0.000 HD
BRANCH  33  35
ATOM     35  O   UNL     1      13.139  10.121  68.309  0.00  0.00    +0.000 OA
ATOM     36  C   UNL     1      13.195  11.004  69.400  0.00  0.00    +0.000 C 
ENDBRANCH  33  35
ENDBRANCH  28  29
ENDBRANCH  20  28
ENDBRANCH   3  23
BRANCH   1  37
ATOM     37  C   UNL     1      14.507   1.099  71.230  0.00  0.00    +0.000 C 
ATOM     38  C   UNL     1      13.522   2.167  71.675  0.00  0.00    +0.000 C 
ATOM     39  C   UNL     1      14.609  -0.118  72.128  0.00  0.00    +0.000 C 
ENDBRANCH   1  37
TORSDOF 8
ENDMDL
MODEL 7
REMARK VINA RESULT:      -3.6      6.765      9.885
REMARK  Name = 50922675_Encorafenib.pdbqt.pdb
REMARK  8 active torsions:
REMARK  status: ('A' for Active; 'I' for Inactive)
REMARK    1  A    between atoms: N_1  and  C_37
REMARK    2  A    between atoms: C_3  and  C_23
REMARK    3  A    between atoms: C_4  and  C_8
REMARK    4  A    between atoms: C_11  and  N_14
REMARK    5  A    between atoms: N_14  and  S_16
REMARK    6  A    between atoms: N_20  and  C_28
REMARK    7  A    between atoms: C_28  and  C_29
REMARK    8  A    between atoms: C_33  and  O_35
REMARK                            x       y       z     vdW  Elec       q    Type
REMARK                         _______ _______ _______ _____ _____    ______ ____
ROOT
ATOM      1  N   UNL     1      17.299  15.869  58.129  0.00  0.00    +0.000 N 
ATOM      2  N   UNL     1      17.792  14.675  58.616  0.00  0.00    +0.000 NA
ATOM      3  C   UNL     1      15.704  14.312  57.768  0.00  0.00    +0.000 A 
ATOM      4  C   UNL     1      16.856  13.743  58.376  0.00  0.00    +0.000 A 
ATOM      5  C   UNL     1      16.022  15.642  57.633  0.00  0.00    +0.000 A 
ENDROOT
BRANCH   4   8
ATOM      6 CL   UNL     1      16.287  10.090  61.962  0.00  0.00    +0.000 Cl
ATOM      7  F   UNL     1      18.340  11.868  56.807  0.00  0.00    +0.000 F 
ATOM      8  C   UNL     1      17.108  12.369  58.791  0.00  0.00    +0.000 A 
ATOM      9  C   UNL     1      17.858  11.487  58.002  0.00  0.00    +0.000 A 
ATOM     10  C   UNL     1      16.643  11.929  60.031  0.00  0.00    +0.000 A 
ATOM     11  C   UNL     1      18.119  10.182  58.431  0.00  0.00    +0.000 A 
ATOM     12  C   UNL     1      16.905  10.632  60.459  0.00  0.00    +0.000 A 
ATOM     13  C   UNL     1      17.654   9.763  59.675  0.00  0.00    +0.000 A 
BRANCH  11  14
ATOM     14  N   UNL     1      18.974   9.331  57.652  0.00  0.00    +0.000 N 
ATOM     15  H   UNL     1      18.805   8.334  57.814  0.00  0.00    +0.000 HD
BRANCH  14  16
ATOM     16  S   UNL     1      20.627   9.592  57.736  0.00  0.00    +0.000 S 
ATOM     17  O   UNL     1      21.156  10.028  56.472  0.00  0.00    +0.000 OA
ATOM     18  O   UNL     1      21.097  10.008  59.039  0.00  0.00    +0.000 OA
ATOM     19  C   UNL     1      21.352   7.979  57.739  0.00  0.00    +0.000 C 
ENDBRANCH  14  16
ENDBRANCH  11  14
ENDBRANCH   4   8
BRANCH   3  23
ATOM     20  N   UNL     1      13.395  11.337  54.868  0.00  0.00    +0.000 N 
ATOM     21  N   UNL     1      14.518  12.834  56.328  0.00  0.00    +0.000 NA
ATOM     22  N   UNL     1      12.167  12.628  56.359  0.00  0.00    +0.000 NA
ATOM     23  C   UNL     1      14.443  13.751  57.310  0.00  0.00    +0.000 A 
ATOM     24  C   UNL     1      13.370  12.297  55.881  0.00  0.00    +0.000 A 
ATOM     25  C   UNL     1      13.251  14.160  57.862  0.00  0.00    +0.000 A 
ATOM     26  C   UNL     1      12.139  13.552  57.337  0.00  0.00    +0.000 A 
ATOM     27  H   UNL     1      12.454  11.230  54.506  0.00  0.00    +0.000 HD
BRANCH  20  28
ATOM     28  C   UNL     1      14.503  11.404  53.923  0.00  0.00    +0.000 C 
BRANCH  28  29
ATOM     29  C   UNL     1      15.631  11.561  53.078  0.00  0.00    +0.000 C 
ATOM     30  C   UNL     1      15.541  12.568  51.972  0.00  0.00    +0.000 C 
ATOM     31  O   UNL     1      16.385   9.587  55.029  0.00  0.00    +0.000 OA
ATOM     32  N   UNL     1      16.856  11.036  53.311  0.00  0.00    +0.000 N 
ATOM     33  C   UNL     1      17.192  10.122  54.276  0.00  0.00    +0.000 C 
ATOM     34  H   UNL     1      17.599  11.398  52.719  0.00  0.00    +0.000 HD
BRANCH  33  35
ATOM     35  O   UNL     1      18.549   9.899  54.252  0.00  0.00    +0.000 OA
ATOM     36  C   UNL     1      19.004   8.575  54.138  0.00  0.00    +0.000 C 
ENDBRANCH  33  35
ENDBRANCH  28  29
ENDBRANCH  20  28
ENDBRANCH   3  23
BRANCH   1  37
ATOM     37  C   UNL     1      17.932  17.137  58.121  0.00  0.00    +0.000 C 
ATOM     38  C   UNL     1      18.089  17.950  56.848  0.00  0.00    +0.000 C 
ATOM     39  C   UNL     1      18.479  17.774  59.381  0.00  0.00    +0.000 C 
ENDBRANCH   1  37
TORSDOF 8
ENDMDL
MODEL 8
REMARK VINA RESULT:      -3.6     14.457     19.411
REMARK  Name = 50922675_Encorafenib.pdbqt.pdb
REMARK  8 active torsions:
REMARK  status: ('A' for Active; 'I' for Inactive)
REMARK    1  A    between atoms: N_1  and  C_37
REMARK    2  A    between atoms: C_3  and  C_23
REMARK    3  A    between atoms: C_4  and  C_8
REMARK    4  A    between atoms: C_11  and  N_14
REMARK    5  A    between atoms: N_14  and  S_16
REMARK    6  A    between atoms: N_20  and  C_28
REMARK    7  A    between atoms: C_28  and  C_29
REMARK    8  A    between atoms: C_33  and  O_35
REMARK                            x       y       z     vdW  Elec       q    Type
REMARK                         _______ _______ _______ _____ _____    ______ ____
ROOT
ATOM      1  N   UNL     1       6.178   4.895  76.833  0.00  0.00    +0.000 N 
ATOM      2  N   UNL     1       6.084   6.118  76.200  0.00  0.00    +0.000 NA
ATOM      3  C   UNL     1       4.003   5.497  76.903  0.00  0.00    +0.000 A 
ATOM      4  C   UNL     1       4.797   6.490  76.266  0.00  0.00    +0.000 A 
ATOM      5  C   UNL     1       4.906   4.517  77.241  0.00  0.00    +0.000 A 
ENDROOT
BRANCH   4   8
ATOM      6 CL   UNL     1       4.369  11.600  76.748  0.00  0.00    +0.000 Cl
ATOM      7  F   UNL     1       3.636   6.713  73.662  0.00  0.00    +0.000 F 
ATOM      8  C   UNL     1       4.398   7.758  75.668  0.00  0.00    +0.000 A 
ATOM      9  C   UNL     1       3.813   7.823  74.397  0.00  0.00    +0.000 A 
ATOM     10  C   UNL     1       4.546   8.938  76.399  0.00  0.00    +0.000 A 
ATOM     11  C   UNL     1       3.406   9.045  73.854  0.00  0.00    +0.000 A 
ATOM     12  C   UNL     1       4.137  10.153  75.860  0.00  0.00    +0.000 A 
ATOM     13  C   UNL     1       3.553  10.212  74.601  0.00  0.00    +0.000 A 
BRANCH  11  14
ATOM     14  N   UNL     1       2.717   9.073  72.594  0.00  0.00    +0.000 N 
ATOM     15  H   UNL     1       1.972   8.374  72.527  0.00  0.00    +0.000 HD
BRANCH  14  16
ATOM     16  S   UNL     1       3.636   8.978  71.196  0.00  0.00    +0.000 S 
ATOM     17  O   UNL     1       5.035   9.166  71.471  0.00  0.00    +0.000 OA
ATOM     18  O   UNL     1       3.083   8.111  70.180  0.00  0.00    +0.000 OA
ATOM     19  C   UNL     1       3.363  10.510  70.357  0.00  0.00    +0.000 C 
ENDBRANCH  14  16
ENDBRANCH  11  14
ENDBRANCH   4   8
BRANCH   3  23
ATOM     20  N   UNL     1       0.609   4.950  80.185  0.00  0.00    +0.000 N 
ATOM     21  N   UNL     1       2.280   5.224  78.522  0.00  0.00    +0.000 NA
ATOM     22  N   UNL     1      -0.014   5.231  77.965  0.00  0.00    +0.000 NA
ATOM     23  C   UNL     1       2.588   5.412  77.226  0.00  0.00    +0.000 A 
ATOM     24  C   UNL     1       0.980   5.139  78.853  0.00  0.00    +0.000 A 
ATOM     25  C   UNL     1       1.635   5.515  76.238  0.00  0.00    +0.000 A 
ATOM     26  C   UNL     1       0.341   5.416  76.680  0.00  0.00    +0.000 A 
ATOM     27  H   UNL     1      -0.367   4.677  80.209  0.00  0.00    +0.000 HD
BRANCH  20  28
ATOM     28  C   UNL     1       1.553   4.240  81.039  0.00  0.00    +0.000 C 
BRANCH  28  29
ATOM     29  C   UNL     1       2.552   3.649  81.854  0.00  0.00    +0.000 C 
ATOM     30  C   UNL     1       2.457   2.177  82.121  0.00  0.00    +0.000 C 
ATOM     31  O   UNL     1       3.269   6.425  81.627  0.00  0.00    +0.000 OA
ATOM     32  N   UNL     1       3.700   4.254  82.239  0.00  0.00    +0.000 N 
ATOM     33  C   UNL     1       4.028   5.576  82.082  0.00  0.00    +0.000 C 
ATOM     34  H   UNL     1       4.392   3.637  82.654  0.00  0.00    +0.000 HD
BRANCH  33  35
ATOM     35  O   UNL     1       5.313   5.790  82.522  0.00  0.00    +0.000 OA
ATOM     36  C   UNL     1       6.125   6.680  81.798  0.00  0.00    +0.000 C 
ENDBRANCH  33  35
ENDBRANCH  28  29
ENDBRANCH  20  28
ENDBRANCH   3  23
BRANCH   1  37
ATOM     37  C   UNL     1       7.338   4.110  77.049  0.00  0.00    +0.000 C 
ATOM     38  C   UNL     1       7.293   2.592  77.057  0.00  0.00    +0.000 C 
ATOM     39  C   UNL     1       8.703   4.730  77.268  0.00  0.00    +0.000 C 
ENDBRANCH   1  37
TORSDOF 8
ENDMDL
MODEL 9
REMARK VINA RESULT:      -3.6     14.219     16.223
REMARK  Name = 50922675_Encorafenib.pdbqt.pdb
REMARK  8 active torsions:
REMARK  status: ('A' for Active; 'I' for Inactive)
REMARK    1  A    between atoms: N_1  and  C_37
REMARK    2  A    between atoms: C_3  and  C_23
REMARK    3  A    between atoms: C_4  and  C_8
REMARK    4  A    between atoms: C_11  and  N_14
REMARK    5  A    between atoms: N_14  and  S_16
REMARK    6  A    between atoms: N_20  and  C_28
REMARK    7  A    between atoms: C_28  and  C_29
REMARK    8  A    between atoms: C_33  and  O_35
REMARK                            x       y       z     vdW  Elec       q    Type
REMARK                         _______ _______ _______ _____ _____    ______ ____
ROOT
ATOM      1  N   UNL     1      18.970  -2.525  55.570  0.00  0.00    +0.000 N 
ATOM      2  N   UNL     1      18.323  -2.011  54.464  0.00  0.00    +0.000 NA
ATOM      3  C   UNL     1      16.880  -1.985  56.233  0.00  0.00    +0.000 A 
ATOM      4  C   UNL     1      17.090  -1.664  54.864  0.00  0.00    +0.000 A 
ATOM      5  C   UNL     1      18.079  -2.523  56.636  0.00  0.00    +0.000 A 
ENDROOT
BRANCH   4   8
ATOM      6 CL   UNL     1      13.240  -2.401  51.523  0.00  0.00    +0.000 Cl
ATOM      7  F   UNL     1      17.093   1.101  54.136  0.00  0.00    +0.000 F 
ATOM      8  C   UNL     1      16.170  -1.087  53.891  0.00  0.00    +0.000 A 
ATOM      9  C   UNL     1      16.218   0.270  53.547  0.00  0.00    +0.000 A 
ATOM     10  C   UNL     1      15.253  -1.913  53.239  0.00  0.00    +0.000 A 
ATOM     11  C   UNL     1      15.350   0.800  52.586  0.00  0.00    +0.000 A 
ATOM     12  C   UNL     1      14.393  -1.387  52.281  0.00  0.00    +0.000 A 
ATOM     13  C   UNL     1      14.447  -0.041  51.939  0.00  0.00    +0.000 A 
BRANCH  11  14
ATOM     14  N   UNL     1      15.487   2.169  52.178  0.00  0.00    +0.000 N 
ATOM     15  H   UNL     1      14.596   2.603  51.920  0.00  0.00    +0.000 HD
BRANCH  14  16
ATOM     16  S   UNL     1      16.597   2.522  50.973  0.00  0.00    +0.000 S 
ATOM     17  O   UNL     1      17.137   3.846  51.125  0.00  0.00    +0.000 OA
ATOM     18  O   UNL     1      17.312   1.370  50.469  0.00  0.00    +0.000 OA
ATOM     19  C   UNL     1      15.629   2.837  49.528  0.00  0.00    +0.000 C 
ENDBRANCH  14  16
ENDBRANCH  11  14
ENDBRANCH   4   8
BRANCH   3  23
ATOM     20  N   UNL     1      15.207  -0.456  60.411  0.00  0.00    +0.000 N 
ATOM     21  N   UNL     1      16.012  -1.232  58.317  0.00  0.00    +0.000 NA
ATOM     22  N   UNL     1      13.735  -1.437  58.905  0.00  0.00    +0.000 NA
ATOM     23  C   UNL     1      15.750  -1.814  57.132  0.00  0.00    +0.000 A 
ATOM     24  C   UNL     1      14.989  -1.060  59.172  0.00  0.00    +0.000 A 
ATOM     25  C   UNL     1      14.493  -2.239  56.769  0.00  0.00    +0.000 A 
ATOM     26  C   UNL     1      13.521  -2.017  57.710  0.00  0.00    +0.000 A 
ATOM     27  H   UNL     1      14.397  -0.626  60.997  0.00  0.00    +0.000 HD
BRANCH  20  28
ATOM     28  C   UNL     1      16.534  -0.608  60.995  0.00  0.00    +0.000 C 
BRANCH  28  29
ATOM     29  C   UNL     1      17.767  -0.795  61.671  0.00  0.00    +0.000 C 
ATOM     30  C   UNL     1      18.264  -2.198  61.845  0.00  0.00    +0.000 C 
ATOM     31  O   UNL     1      17.355   2.049  61.568  0.00  0.00    +0.000 OA
ATOM     32  N   UNL     1      18.637   0.192  61.988  0.00  0.00    +0.000 N 
ATOM     33  C   UNL     1      18.424   1.542  61.892  0.00  0.00    +0.000 C 
ATOM     34  H   UNL     1      19.553  -0.125  62.294  0.00  0.00    +0.000 HD
BRANCH  33  35
ATOM     35  O   UNL     1      19.574   2.219  62.224  0.00  0.00    +0.000 OA
ATOM     36  C   UNL     1      20.772   1.848  61.589  0.00  0.00    +0.000 C 
ENDBRANCH  33  35
ENDBRANCH  28  29
ENDBRANCH  20  28
ENDBRANCH   3  23
BRANCH   1  37
ATOM     37  C   UNL     1      20.302  -2.999  55.660  0.00  0.00    +0.000 C 
ATOM     38  C   UNL     1      20.652  -4.463  55.456  0.00  0.00    +0.000 C 
ATOM     39  C   UNL     1      21.469  -2.077  55.948  0.00  0.00    +0.000 C 
ENDBRANCH   1  37
TORSDOF 8
ENDMDL
