MODEL 1
REMARK VINA RESULT:      -4.5      0.000      0.000
REMARK  Name = 5109870_Ethoxyphenyl.pdbqt.pdb
REMARK  6 active torsions:
REMARK  status: ('A' for Active; 'I' for Inactive)
REMARK    1  A    between atoms: N_2  and  C_22
REMARK    2  A    between atoms: C_3  and  O_11
REMARK    3  A    between atoms: C_3  and  C_13
REMARK    4  A    between atoms: C_16  and  N_19
REMARK    5  A    between atoms: C_25  and  O_28
REMARK    6  A    between atoms: O_28  and  C_29
REMARK                            x       y       z     vdW  Elec       q    Type
REMARK                         _______ _______ _______ _____ _____    ______ ____
ROOT
ATOM      1  N   UNL     1       4.446   9.947  72.483  0.00  0.00    +0.000 N 
ATOM      2  N   UNL     1       3.311   8.383  73.905  0.00  0.00    +0.000 N 
ATOM      3  C   UNL     1       3.922   8.915  71.557  0.00  0.00    +0.000 C 
ATOM      4  C   UNL     1       4.183   9.453  73.872  0.00  0.00    +0.000 C 
ATOM      5  C   UNL     1       3.156   8.100  72.503  0.00  0.00    +0.000 C 
ATOM      6  C   UNL     1       5.825  10.402  72.306  0.00  0.00    +0.000 C 
ATOM      7  C   UNL     1       5.093   9.741  74.931  0.00  0.00    +0.000 C 
ATOM      8  C   UNL     1       7.189  10.801  72.894  0.00  0.00    +0.000 C 
ATOM      9  C   UNL     1       6.488  10.240  75.342  0.00  0.00    +0.000 C 
ATOM     10  C   UNL     1       7.551  10.751  74.375  0.00  0.00    +0.000 C 
ENDROOT
BRANCH   3  11
ATOM     11  C   UNL     1       3.108   9.529  70.443  0.00  0.00    +0.000 A 
ATOM     12  C   UNL     1       2.213   8.763  69.683  0.00  0.00    +0.000 A 
ATOM     13  C   UNL     1       1.434   9.346  68.686  0.00  0.00    +0.000 A 
ATOM     14  C   UNL     1       1.544  10.714  68.459  0.00  0.00    +0.000 A 
ATOM     15  C   UNL     1       2.411  11.507  69.205  0.00  0.00    +0.000 A 
ATOM     16  C   UNL     1       3.182  10.909  70.197  0.00  0.00    +0.000 A 
BRANCH  14  17
ATOM     17  N   UNL     1       0.738  11.328  67.422  0.00  0.00    +0.000 N 
ATOM     18  O   UNL     1      -0.109  10.620  66.859  0.00  0.00    +0.000 OA
ATOM     19  O   UNL     1       0.944  12.522  67.162  0.00  0.00    +0.000 OA
ENDBRANCH  14  17
ENDBRANCH   3  11
BRANCH   2  20
ATOM     20  C   UNL     1       2.965   7.481  74.924  0.00  0.00    +0.000 A 
ATOM     21  C   UNL     1       1.928   7.743  75.826  0.00  0.00    +0.000 A 
ATOM     22  C   UNL     1       1.577   6.830  76.821  0.00  0.00    +0.000 A 
ATOM     23  C   UNL     1       2.258   5.620  76.931  0.00  0.00    +0.000 A 
ATOM     24  C   UNL     1       3.286   5.333  76.038  0.00  0.00    +0.000 A 
ATOM     25  C   UNL     1       3.629   6.253  75.047  0.00  0.00    +0.000 A 
BRANCH  23  26
ATOM     26  O   UNL     1       1.992   4.657  77.870  0.00  0.00    +0.000 OA
BRANCH  26  27
ATOM     27  C   UNL     1       3.036   4.292  78.610  0.00  0.00    +0.000 C 
ATOM     28  C   UNL     1       4.238   3.887  79.471  0.00  0.00    +0.000 C 
ENDBRANCH  26  27
ENDBRANCH  23  26
ENDBRANCH   2  20
BRANCH   3  29
ATOM     29  O   UNL     1       4.941   8.093  71.003  0.00  0.00    +0.000 OA
ATOM     30  H   UNL     1       5.123   7.422  71.682  0.00  0.00    +0.000 HD
ENDBRANCH   3  29
TORSDOF 6
ENDMDL
MODEL 2
REMARK VINA RESULT:      -4.5     10.906     12.741
REMARK  Name = 5109870_Ethoxyphenyl.pdbqt.pdb
REMARK  6 active torsions:
REMARK  status: ('A' for Active; 'I' for Inactive)
REMARK    1  A    between atoms: N_2  and  C_22
REMARK    2  A    between atoms: C_3  and  O_11
REMARK    3  A    between atoms: C_3  and  C_13
REMARK    4  A    between atoms: C_16  and  N_19
REMARK    5  A    between atoms: C_25  and  O_28
REMARK    6  A    between atoms: O_28  and  C_29
REMARK                            x       y       z     vdW  Elec       q    Type
REMARK                         _______ _______ _______ _____ _____    ______ ____
ROOT
ATOM      1  N   UNL     1      15.221   1.799  73.451  0.00  0.00    +0.000 N 
ATOM      2  N   UNL     1      12.935   1.947  74.163  0.00  0.00    +0.000 N 
ATOM      3  C   UNL     1      14.434   1.393  72.262  0.00  0.00    +0.000 C 
ATOM      4  C   UNL     1      14.251   1.940  74.582  0.00  0.00    +0.000 C 
ATOM      5  C   UNL     1      13.081   1.640  72.765  0.00  0.00    +0.000 C 
ATOM      6  C   UNL     1      16.389   0.998  73.815  0.00  0.00    +0.000 C 
ATOM      7  C   UNL     1      14.636   1.613  75.915  0.00  0.00    +0.000 C 
ATOM      8  C   UNL     1      17.261   0.309  74.879  0.00  0.00    +0.000 C 
ATOM      9  C   UNL     1      15.658   0.931  76.839  0.00  0.00    +0.000 C 
ATOM     10  C   UNL     1      16.948   0.265  76.371  0.00  0.00    +0.000 C 
ENDROOT
BRANCH   3  11
ATOM     11  C   UNL     1      14.814   2.198  71.041  0.00  0.00    +0.000 A 
ATOM     12  C   UNL     1      14.542   3.570  70.956  0.00  0.00    +0.000 A 
ATOM     13  C   UNL     1      14.935   4.314  69.846  0.00  0.00    +0.000 A 
ATOM     14  C   UNL     1      15.619   3.676  68.815  0.00  0.00    +0.000 A 
ATOM     15  C   UNL     1      15.919   2.318  68.874  0.00  0.00    +0.000 A 
ATOM     16  C   UNL     1      15.519   1.590  69.991  0.00  0.00    +0.000 A 
BRANCH  14  17
ATOM     17  N   UNL     1      16.029   4.443  67.656  0.00  0.00    +0.000 N 
ATOM     18  O   UNL     1      16.480   3.819  66.685  0.00  0.00    +0.000 OA
ATOM     19  O   UNL     1      15.903   5.674  67.706  0.00  0.00    +0.000 OA
ENDBRANCH  14  17
ENDBRANCH   3  11
BRANCH   2  20
ATOM     20  C   UNL     1      11.724   1.832  74.863  0.00  0.00    +0.000 A 
ATOM     21  C   UNL     1      11.185   2.896  75.594  0.00  0.00    +0.000 A 
ATOM     22  C   UNL     1       9.970   2.779  76.268  0.00  0.00    +0.000 A 
ATOM     23  C   UNL     1       9.254   1.585  76.217  0.00  0.00    +0.000 A 
ATOM     24  C   UNL     1       9.764   0.516  75.487  0.00  0.00    +0.000 A 
ATOM     25  C   UNL     1      10.981   0.644  74.817  0.00  0.00    +0.000 A 
BRANCH  23  26
ATOM     26  O   UNL     1       8.053   1.367  76.842  0.00  0.00    +0.000 OA
BRANCH  26  27
ATOM     27  C   UNL     1       7.212   2.399  76.814  0.00  0.00    +0.000 C 
ATOM     28  C   UNL     1       6.247   3.589  76.767  0.00  0.00    +0.000 C 
ENDBRANCH  26  27
ENDBRANCH  23  26
ENDBRANCH   2  20
BRANCH   3  29
ATOM     29  O   UNL     1      14.541   0.006  71.968  0.00  0.00    +0.000 OA
ATOM     30  H   UNL     1      15.150  -0.047  71.213  0.00  0.00    +0.000 HD
ENDBRANCH   3  29
TORSDOF 6
ENDMDL
MODEL 3
REMARK VINA RESULT:      -4.5      7.449     11.231
REMARK  Name = 5109870_Ethoxyphenyl.pdbqt.pdb
REMARK  6 active torsions:
REMARK  status: ('A' for Active; 'I' for Inactive)
REMARK    1  A    between atoms: N_2  and  C_22
REMARK    2  A    between atoms: C_3  and  O_11
REMARK    3  A    between atoms: C_3  and  C_13
REMARK    4  A    between atoms: C_16  and  N_19
REMARK    5  A    between atoms: C_25  and  O_28
REMARK    6  A    between atoms: O_28  and  C_29
REMARK                            x       y       z     vdW  Elec       q    Type
REMARK                         _______ _______ _______ _____ _____    ______ ____
ROOT
ATOM      1  N   UNL     1       1.712   4.215  66.522  0.00  0.00    +0.000 N 
ATOM      2  N   UNL     1       2.395   5.452  64.582  0.00  0.00    +0.000 N 
ATOM      3  C   UNL     1       1.766   5.625  66.978  0.00  0.00    +0.000 C 
ATOM      4  C   UNL     1       2.271   4.191  65.133  0.00  0.00    +0.000 C 
ATOM      5  C   UNL     1       2.062   6.286  65.706  0.00  0.00    +0.000 C 
ATOM      6  C   UNL     1       2.301   3.186  67.377  0.00  0.00    +0.000 C 
ATOM      7  C   UNL     1       3.017   3.068  64.669  0.00  0.00    +0.000 C 
ATOM      8  C   UNL     1       3.146   1.912  67.552  0.00  0.00    +0.000 C 
ATOM      9  C   UNL     1       3.762   1.771  65.022  0.00  0.00    +0.000 C 
ATOM     10  C   UNL     1       3.865   1.179  66.425  0.00  0.00    +0.000 C 
ENDROOT
BRANCH   3  11
ATOM     11  C   UNL     1       0.469   6.049  67.627  0.00  0.00    +0.000 A 
ATOM     12  C   UNL     1      -0.632   5.184  67.696  0.00  0.00    +0.000 A 
ATOM     13  C   UNL     1      -1.809   5.568  68.334  0.00  0.00    +0.000 A 
ATOM     14  C   UNL     1      -1.877   6.828  68.921  0.00  0.00    +0.000 A 
ATOM     15  C   UNL     1      -0.798   7.705  68.885  0.00  0.00    +0.000 A 
ATOM     16  C   UNL     1       0.371   7.306  68.243  0.00  0.00    +0.000 A 
BRANCH  14  17
ATOM     17  N   UNL     1      -3.100   7.235  69.586  0.00  0.00    +0.000 N 
ATOM     18  O   UNL     1      -4.145   6.646  69.275  0.00  0.00    +0.000 OA
ATOM     19  O   UNL     1      -3.025   8.145  70.424  0.00  0.00    +0.000 OA
ENDBRANCH  14  17
ENDBRANCH   3  11
BRANCH   2  20
ATOM     20  C   UNL     1       3.059   5.916  63.436  0.00  0.00    +0.000 A 
ATOM     21  C   UNL     1       4.427   6.207  63.438  0.00  0.00    +0.000 A 
ATOM     22  C   UNL     1       5.083   6.646  62.288  0.00  0.00    +0.000 A 
ATOM     23  C   UNL     1       4.378   6.798  61.096  0.00  0.00    +0.000 A 
ATOM     24  C   UNL     1       3.018   6.504  61.067  0.00  0.00    +0.000 A 
ATOM     25  C   UNL     1       2.373   6.066  62.223  0.00  0.00    +0.000 A 
BRANCH  23  26
ATOM     26  O   UNL     1       4.927   7.222  59.913  0.00  0.00    +0.000 OA
BRANCH  26  27
ATOM     27  C   UNL     1       6.179   7.663  60.002  0.00  0.00    +0.000 C 
ATOM     28  C   UNL     1       7.624   8.163  60.119  0.00  0.00    +0.000 C 
ENDBRANCH  26  27
ENDBRANCH  23  26
ENDBRANCH   2  20
BRANCH   3  29
ATOM     29  O   UNL     1       2.847   5.884  67.865  0.00  0.00    +0.000 OA
ATOM     30  H   UNL     1       2.527   6.586  68.456  0.00  0.00    +0.000 HD
ENDBRANCH   3  29
TORSDOF 6
ENDMDL
MODEL 4
REMARK VINA RESULT:      -4.5     14.308     17.499
REMARK  Name = 5109870_Ethoxyphenyl.pdbqt.pdb
REMARK  6 active torsions:
REMARK  status: ('A' for Active; 'I' for Inactive)
REMARK    1  A    between atoms: N_2  and  C_22
REMARK    2  A    between atoms: C_3  and  O_11
REMARK    3  A    between atoms: C_3  and  C_13
REMARK    4  A    between atoms: C_16  and  N_19
REMARK    5  A    between atoms: C_25  and  O_28
REMARK    6  A    between atoms: O_28  and  C_29
REMARK                            x       y       z     vdW  Elec       q    Type
REMARK                         _______ _______ _______ _____ _____    ______ ____
ROOT
ATOM      1  N   UNL     1      13.579  13.390  62.109  0.00  0.00    +0.000 N 
ATOM      2  N   UNL     1      14.937  11.858  60.858  0.00  0.00    +0.000 N 
ATOM      3  C   UNL     1      12.828  13.169  60.850  0.00  0.00    +0.000 C 
ATOM      4  C   UNL     1      14.901  12.706  61.947  0.00  0.00    +0.000 C 
ATOM      5  C   UNL     1      13.671  12.141  60.236  0.00  0.00    +0.000 C 
ATOM      6  C   UNL     1      13.716  14.759  62.603  0.00  0.00    +0.000 C 
ATOM      7  C   UNL     1      16.077  13.248  62.545  0.00  0.00    +0.000 C 
ATOM      8  C   UNL     1      14.568  15.879  63.226  0.00  0.00    +0.000 C 
ATOM      9  C   UNL     1      16.750  14.451  63.224  0.00  0.00    +0.000 C 
ATOM     10  C   UNL     1      16.052  15.765  63.560  0.00  0.00    +0.000 C 
ENDROOT
BRANCH   3  11
ATOM     11  C   UNL     1      11.404  12.744  61.119  0.00  0.00    +0.000 A 
ATOM     12  C   UNL     1      10.778  13.011  62.345  0.00  0.00    +0.000 A 
ATOM     13  C   UNL     1       9.451  12.655  62.569  0.00  0.00    +0.000 A 
ATOM     14  C   UNL     1       8.739  12.033  61.548  0.00  0.00    +0.000 A 
ATOM     15  C   UNL     1       9.324  11.766  60.314  0.00  0.00    +0.000 A 
ATOM     16  C   UNL     1      10.651  12.130  60.106  0.00  0.00    +0.000 A 
BRANCH  14  17
ATOM     17  N   UNL     1       7.358  11.657  61.774  0.00  0.00    +0.000 N 
ATOM     18  O   UNL     1       6.761  11.082  60.853  0.00  0.00    +0.000 OA
ATOM     19  O   UNL     1       6.859  11.932  62.875  0.00  0.00    +0.000 OA
ENDBRANCH  14  17
ENDBRANCH   3  11
BRANCH   2  20
ATOM     20  C   UNL     1      15.997  11.207  60.207  0.00  0.00    +0.000 A 
ATOM     21  C   UNL     1      16.558  11.701  59.025  0.00  0.00    +0.000 A 
ATOM     22  C   UNL     1      17.626  11.060  58.399  0.00  0.00    +0.000 A 
ATOM     23  C   UNL     1      18.168   9.902  58.951  0.00  0.00    +0.000 A 
ATOM     24  C   UNL     1      17.634   9.397  60.133  0.00  0.00    +0.000 A 
ATOM     25  C   UNL     1      16.565  10.046  60.751  0.00  0.00    +0.000 A 
BRANCH  23  26
ATOM     26  O   UNL     1      19.215   9.197  58.417  0.00  0.00    +0.000 OA
BRANCH  26  27
ATOM     27  C   UNL     1      19.139   8.990  57.104  0.00  0.00    +0.000 C 
ATOM     28  C   UNL     1      19.065   8.741  55.593  0.00  0.00    +0.000 C 
ENDBRANCH  26  27
ENDBRANCH  23  26
ENDBRANCH   2  20
BRANCH   3  29
ATOM     29  O   UNL     1      12.830  14.303  59.991  0.00  0.00    +0.000 OA
ATOM     30  H   UNL     1      13.704  14.297  59.567  0.00  0.00    +0.000 HD
ENDBRANCH   3  29
TORSDOF 6
ENDMDL
MODEL 5
REMARK VINA RESULT:      -4.3     12.130     16.141
REMARK  Name = 5109870_Ethoxyphenyl.pdbqt.pdb
REMARK  6 active torsions:
REMARK  status: ('A' for Active; 'I' for Inactive)
REMARK    1  A    between atoms: N_2  and  C_22
REMARK    2  A    between atoms: C_3  and  O_11
REMARK    3  A    between atoms: C_3  and  C_13
REMARK    4  A    between atoms: C_16  and  N_19
REMARK    5  A    between atoms: C_25  and  O_28
REMARK    6  A    between atoms: O_28  and  C_29
REMARK                            x       y       z     vdW  Elec       q    Type
REMARK                         _______ _______ _______ _____ _____    ______ ____
ROOT
ATOM      1  N   UNL     1       9.037  12.128  62.041  0.00  0.00    +0.000 N 
ATOM      2  N   UNL     1      10.574  12.115  60.198  0.00  0.00    +0.000 N 
ATOM      3  C   UNL     1       8.220  11.708  60.877  0.00  0.00    +0.000 C 
ATOM      4  C   UNL     1      10.381  12.516  61.505  0.00  0.00    +0.000 C 
ATOM      5  C   UNL     1       9.269  11.613  59.859  0.00  0.00    +0.000 C 
ATOM      6  C   UNL     1       8.487  13.135  62.947  0.00  0.00    +0.000 C 
ATOM      7  C   UNL     1      11.127  13.570  62.109  0.00  0.00    +0.000 C 
ATOM      8  C   UNL     1       8.658  14.399  63.806  0.00  0.00    +0.000 C 
ATOM      9  C   UNL     1      11.132  14.770  63.070  0.00  0.00    +0.000 C 
ATOM     10  C   UNL     1       9.939  15.221  63.908  0.00  0.00    +0.000 C 
ENDROOT
BRANCH   3  11
ATOM     11  C   UNL     1       7.484  10.417  61.151  0.00  0.00    +0.000 A 
ATOM     12  C   UNL     1       7.773   9.244  60.439  0.00  0.00    +0.000 A 
ATOM     13  C   UNL     1       7.121   8.048  60.728  0.00  0.00    +0.000 A 
ATOM     14  C   UNL     1       6.177   8.026  61.751  0.00  0.00    +0.000 A 
ATOM     15  C   UNL     1       5.878   9.167  62.488  0.00  0.00    +0.000 A 
ATOM     16  C   UNL     1       6.539  10.354  62.187  0.00  0.00    +0.000 A 
BRANCH  14  17
ATOM     17  N   UNL     1       5.493   6.785  62.056  0.00  0.00    +0.000 N 
ATOM     18  O   UNL     1       5.323   5.980  61.129  0.00  0.00    +0.000 OA
ATOM     19  O   UNL     1       5.120   6.605  63.224  0.00  0.00    +0.000 OA
ENDBRANCH  14  17
ENDBRANCH   3  11
BRANCH   2  20
ATOM     20  C   UNL     1      11.553  12.446  59.247  0.00  0.00    +0.000 A 
ATOM     21  C   UNL     1      12.917  12.260  59.491  0.00  0.00    +0.000 A 
ATOM     22  C   UNL     1      13.880  12.571  58.531  0.00  0.00    +0.000 A 
ATOM     23  C   UNL     1      13.494  13.071  57.290  0.00  0.00    +0.000 A 
ATOM     24  C   UNL     1      12.142  13.253  57.019  0.00  0.00    +0.000 A 
ATOM     25  C   UNL     1      11.187  12.940  57.987  0.00  0.00    +0.000 A 
BRANCH  23  26
ATOM     26  O   UNL     1      14.359  13.406  56.279  0.00  0.00    +0.000 OA
BRANCH  26  27
ATOM     27  C   UNL     1      14.425  12.525  55.283  0.00  0.00    +0.000 C 
ATOM     28  C   UNL     1      14.496  11.523  54.125  0.00  0.00    +0.000 C 
ENDBRANCH  26  27
ENDBRANCH  23  26
ENDBRANCH   2  20
BRANCH   3  29
ATOM     29  O   UNL     1       7.295  12.702  60.456  0.00  0.00    +0.000 OA
ATOM     30  H   UNL     1       6.664  12.787  61.189  0.00  0.00    +0.000 HD
ENDBRANCH   3  29
TORSDOF 6
ENDMDL
MODEL 6
REMARK VINA RESULT:      -4.3     19.654     22.902
REMARK  Name = 5109870_Ethoxyphenyl.pdbqt.pdb
REMARK  6 active torsions:
REMARK  status: ('A' for Active; 'I' for Inactive)
REMARK    1  A    between atoms: N_2  and  C_22
REMARK    2  A    between atoms: C_3  and  O_11
REMARK    3  A    between atoms: C_3  and  C_13
REMARK    4  A    between atoms: C_16  and  N_19
REMARK    5  A    between atoms: C_25  and  O_28
REMARK    6  A    between atoms: O_28  and  C_29
REMARK                            x       y       z     vdW  Elec       q    Type
REMARK                         _______ _______ _______ _____ _____    ______ ____
ROOT
ATOM      1  N   UNL     1      18.687  11.882  58.431  0.00  0.00    +0.000 N 
ATOM      2  N   UNL     1      19.042  10.117  56.844  0.00  0.00    +0.000 N 
ATOM      3  C   UNL     1      17.668  10.861  58.775  0.00  0.00    +0.000 C 
ATOM      4  C   UNL     1      19.340  11.427  57.162  0.00  0.00    +0.000 C 
ATOM      5  C   UNL     1      18.056   9.800  57.844  0.00  0.00    +0.000 C 
ATOM      6  C   UNL     1      18.273  13.283  58.374  0.00  0.00    +0.000 C 
ATOM      7  C   UNL     1      19.787  12.375  56.195  0.00  0.00    +0.000 C 
ATOM      8  C   UNL     1      18.302  14.661  57.690  0.00  0.00    +0.000 C 
ATOM      9  C   UNL     1      19.759  13.828  55.694  0.00  0.00    +0.000 C 
ATOM     10  C   UNL     1      19.030  14.975  56.387  0.00  0.00    +0.000 C 
ENDROOT
BRANCH   3  11
ATOM     11  C   UNL     1      17.734  10.480  60.235  0.00  0.00    +0.000 A 
ATOM     12  C   UNL     1      18.645   9.522  60.701  0.00  0.00    +0.000 A 
ATOM     13  C   UNL     1      18.729   9.207  62.055  0.00  0.00    +0.000 A 
ATOM     14  C   UNL     1      17.898   9.870  62.953  0.00  0.00    +0.000 A 
ATOM     15  C   UNL     1      16.993  10.838  62.527  0.00  0.00    +0.000 A 
ATOM     16  C   UNL     1      16.923  11.140  61.171  0.00  0.00    +0.000 A 
BRANCH  14  17
ATOM     17  N   UNL     1      17.979   9.547  64.364  0.00  0.00    +0.000 N 
ATOM     18  O   UNL     1      19.066   9.143  64.799  0.00  0.00    +0.000 OA
ATOM     19  O   UNL     1      16.956   9.695  65.048  0.00  0.00    +0.000 OA
ENDBRANCH  14  17
ENDBRANCH   3  11
BRANCH   2  20
ATOM     20  C   UNL     1      19.236   9.364  55.675  0.00  0.00    +0.000 A 
ATOM     21  C   UNL     1      18.211   9.163  54.744  0.00  0.00    +0.000 A 
ATOM     22  C   UNL     1      18.421   8.433  53.574  0.00  0.00    +0.000 A 
ATOM     23  C   UNL     1      19.675   7.891  53.303  0.00  0.00    +0.000 A 
ATOM     24  C   UNL     1      20.712   8.088  54.208  0.00  0.00    +0.000 A 
ATOM     25  C   UNL     1      20.492   8.819  55.376  0.00  0.00    +0.000 A 
BRANCH  23  26
ATOM     26  O   UNL     1      19.985   7.161  52.185  0.00  0.00    +0.000 OA
BRANCH  26  27
ATOM     27  C   UNL     1      20.697   6.060  52.414  0.00  0.00    +0.000 C 
ATOM     28  C   UNL     1      21.506   4.786  52.686  0.00  0.00    +0.000 C 
ENDBRANCH  26  27
ENDBRANCH  23  26
ENDBRANCH   2  20
BRANCH   3  29
ATOM     29  O   UNL     1      16.343  11.262  58.448  0.00  0.00    +0.000 OA
ATOM     30  H   UNL     1      16.418  12.194  58.184  0.00  0.00    +0.000 HD
ENDBRANCH   3  29
TORSDOF 6
ENDMDL
MODEL 7
REMARK VINA RESULT:      -4.2     10.341     13.900
REMARK  Name = 5109870_Ethoxyphenyl.pdbqt.pdb
REMARK  6 active torsions:
REMARK  status: ('A' for Active; 'I' for Inactive)
REMARK    1  A    between atoms: N_2  and  C_22
REMARK    2  A    between atoms: C_3  and  O_11
REMARK    3  A    between atoms: C_3  and  C_13
REMARK    4  A    between atoms: C_16  and  N_19
REMARK    5  A    between atoms: C_25  and  O_28
REMARK    6  A    between atoms: O_28  and  C_29
REMARK                            x       y       z     vdW  Elec       q    Type
REMARK                         _______ _______ _______ _____ _____    ______ ____
ROOT
ATOM      1  N   UNL     1      14.586   3.634  75.029  0.00  0.00    +0.000 N 
ATOM      2  N   UNL     1      14.625   4.026  72.662  0.00  0.00    +0.000 N 
ATOM      3  C   UNL     1      13.374   4.446  74.766  0.00  0.00    +0.000 C 
ATOM      4  C   UNL     1      15.358   3.585  73.746  0.00  0.00    +0.000 C 
ATOM      5  C   UNL     1      13.433   4.513  73.304  0.00  0.00    +0.000 C 
ATOM      6  C   UNL     1      15.426   3.993  76.171  0.00  0.00    +0.000 C 
ATOM      7  C   UNL     1      16.783   3.556  73.756  0.00  0.00    +0.000 C 
ATOM      8  C   UNL     1      16.815   4.212  76.795  0.00  0.00    +0.000 C 
ATOM      9  C   UNL     1      18.078   3.748  74.561  0.00  0.00    +0.000 C 
ATOM     10  C   UNL     1      18.139   4.087  76.048  0.00  0.00    +0.000 C 
ENDROOT
BRANCH   3  11
ATOM     11  C   UNL     1      12.133   3.787  75.320  0.00  0.00    +0.000 A 
ATOM     12  C   UNL     1      11.222   4.495  76.117  0.00  0.00    +0.000 A 
ATOM     13  C   UNL     1      10.058   3.893  76.588  0.00  0.00    +0.000 A 
ATOM     14  C   UNL     1       9.799   2.569  76.246  0.00  0.00    +0.000 A 
ATOM     15  C   UNL     1      10.673   1.841  75.444  0.00  0.00    +0.000 A 
ATOM     16  C   UNL     1      11.831   2.459  74.982  0.00  0.00    +0.000 A 
BRANCH  14  17
ATOM     17  N   UNL     1       8.590   1.934  76.734  0.00  0.00    +0.000 N 
ATOM     18  O   UNL     1       8.603   0.703  76.870  0.00  0.00    +0.000 OA
ATOM     19  O   UNL     1       7.620   2.662  76.987  0.00  0.00    +0.000 OA
ENDBRANCH  14  17
ENDBRANCH   3  11
BRANCH   2  20
ATOM     20  C   UNL     1      14.996   4.361  71.350  0.00  0.00    +0.000 A 
ATOM     21  C   UNL     1      15.381   5.658  70.995  0.00  0.00    +0.000 A 
ATOM     22  C   UNL     1      15.770   5.975  69.693  0.00  0.00    +0.000 A 
ATOM     23  C   UNL     1      15.789   4.989  68.710  0.00  0.00    +0.000 A 
ATOM     24  C   UNL     1      15.420   3.689  69.041  0.00  0.00    +0.000 A 
ATOM     25  C   UNL     1      15.033   3.383  70.346  0.00  0.00    +0.000 A 
BRANCH  23  26
ATOM     26  O   UNL     1      16.154   5.195  67.404  0.00  0.00    +0.000 OA
BRANCH  26  27
ATOM     27  C   UNL     1      16.926   4.245  66.882  0.00  0.00    +0.000 C 
ATOM     28  C   UNL     1      17.827   3.162  66.276  0.00  0.00    +0.000 C 
ENDBRANCH  26  27
ENDBRANCH  23  26
ENDBRANCH   2  20
BRANCH   3  29
ATOM     29  O   UNL     1      13.470   5.773  75.266  0.00  0.00    +0.000 OA
ATOM     30  H   UNL     1      14.255   6.150  74.835  0.00  0.00    +0.000 HD
ENDBRANCH   3  29
TORSDOF 6
ENDMDL
MODEL 8
REMARK VINA RESULT:      -4.2     10.110     11.331
REMARK  Name = 5109870_Ethoxyphenyl.pdbqt.pdb
REMARK  6 active torsions:
REMARK  status: ('A' for Active; 'I' for Inactive)
REMARK    1  A    between atoms: N_2  and  C_22
REMARK    2  A    between atoms: C_3  and  O_11
REMARK    3  A    between atoms: C_3  and  C_13
REMARK    4  A    between atoms: C_16  and  N_19
REMARK    5  A    between atoms: C_25  and  O_28
REMARK    6  A    between atoms: O_28  and  C_29
REMARK                            x       y       z     vdW  Elec       q    Type
REMARK                         _______ _______ _______ _____ _____    ______ ____
ROOT
ATOM      1  N   UNL     1      15.215   6.392  73.939  0.00  0.00    +0.000 N 
ATOM      2  N   UNL     1      13.324   4.977  74.366  0.00  0.00    +0.000 N 
ATOM      3  C   UNL     1      15.060   5.594  72.700  0.00  0.00    +0.000 C 
ATOM      4  C   UNL     1      14.247   5.832  74.936  0.00  0.00    +0.000 C 
ATOM      5  C   UNL     1      13.826   4.874  73.021  0.00  0.00    +0.000 C 
ATOM      6  C   UNL     1      16.557   6.555  74.496  0.00  0.00    +0.000 C 
ATOM      7  C   UNL     1      14.566   5.811  76.325  0.00  0.00    +0.000 C 
ATOM      8  C   UNL     1      17.511   6.590  75.703  0.00  0.00    +0.000 C 
ATOM      9  C   UNL     1      15.645   5.954  77.410  0.00  0.00    +0.000 C 
ATOM     10  C   UNL     1      17.104   6.317  77.147  0.00  0.00    +0.000 C 
ENDROOT
BRANCH   3  11
ATOM     11  C   UNL     1      14.980   6.476  71.476  0.00  0.00    +0.000 A 
ATOM     12  C   UNL     1      15.407   6.026  70.219  0.00  0.00    +0.000 A 
ATOM     13  C   UNL     1      15.290   6.829  69.088  0.00  0.00    +0.000 A 
ATOM     14  C   UNL     1      14.725   8.095  69.217  0.00  0.00    +0.000 A 
ATOM     15  C   UNL     1      14.276   8.568  70.446  0.00  0.00    +0.000 A 
ATOM     16  C   UNL     1      14.401   7.751  71.567  0.00  0.00    +0.000 A 
BRANCH  14  17
ATOM     17  N   UNL     1      14.601   8.938  68.045  0.00  0.00    +0.000 N 
ATOM     18  O   UNL     1      15.443   9.835  67.891  0.00  0.00    +0.000 OA
ATOM     19  O   UNL     1      13.663   8.711  67.268  0.00  0.00    +0.000 OA
ENDBRANCH  14  17
ENDBRANCH   3  11
BRANCH   2  20
ATOM     20  C   UNL     1      12.406   4.075  74.926  0.00  0.00    +0.000 A 
ATOM     21  C   UNL     1      11.410   4.488  75.817  0.00  0.00    +0.000 A 
ATOM     22  C   UNL     1      10.488   3.587  76.350  0.00  0.00    +0.000 A 
ATOM     23  C   UNL     1      10.537   2.242  75.994  0.00  0.00    +0.000 A 
ATOM     24  C   UNL     1      11.512   1.810  75.100  0.00  0.00    +0.000 A 
ATOM     25  C   UNL     1      12.430   2.718  74.573  0.00  0.00    +0.000 A 
BRANCH  23  26
ATOM     26  O   UNL     1       9.680   1.278  76.459  0.00  0.00    +0.000 OA
BRANCH  26  27
ATOM     27  C   UNL     1       9.302   0.380  75.553  0.00  0.00    +0.000 C 
ATOM     28  C   UNL     1       8.866  -0.668  74.521  0.00  0.00    +0.000 C 
ENDBRANCH  26  27
ENDBRANCH  23  26
ENDBRANCH   2  20
BRANCH   3  29
ATOM     29  O   UNL     1      16.091   4.630  72.523  0.00  0.00    +0.000 OA
ATOM     30  H   UNL     1      16.194   4.543  71.561  0.00  0.00    +0.000 HD
ENDBRANCH   3  29
TORSDOF 6
ENDMDL
MODEL 9
REMARK VINA RESULT:      -4.2      2.265      2.688
REMARK  Name = 5109870_Ethoxyphenyl.pdbqt.pdb
REMARK  6 active torsions:
REMARK  status: ('A' for Active; 'I' for Inactive)
REMARK    1  A    between atoms: N_2  and  C_22
REMARK    2  A    between atoms: C_3  and  O_11
REMARK    3  A    between atoms: C_3  and  C_13
REMARK    4  A    between atoms: C_16  and  N_19
REMARK    5  A    between atoms: C_25  and  O_28
REMARK    6  A    between atoms: O_28  and  C_29
REMARK                            x       y       z     vdW  Elec       q    Type
REMARK                         _______ _______ _______ _____ _____    ______ ____
ROOT
ATOM      1  N   UNL     1       4.109   9.515  73.646  0.00  0.00    +0.000 N 
ATOM      2  N   UNL     1       3.966   7.715  75.227  0.00  0.00    +0.000 N 
ATOM      3  C   UNL     1       3.402   8.434  72.917  0.00  0.00    +0.000 C 
ATOM      4  C   UNL     1       4.558   8.932  74.950  0.00  0.00    +0.000 C 
ATOM      5  C   UNL     1       3.262   7.457  73.999  0.00  0.00    +0.000 C 
ATOM      6  C   UNL     1       5.182  10.229  72.956  0.00  0.00    +0.000 C 
ATOM      7  C   UNL     1       5.781   9.351  75.551  0.00  0.00    +0.000 C 
ATOM      8  C   UNL     1       6.586  10.858  72.953  0.00  0.00    +0.000 C 
ATOM      9  C   UNL     1       7.119  10.090  75.388  0.00  0.00    +0.000 C 
ATOM     10  C   UNL     1       7.560  10.827  74.127  0.00  0.00    +0.000 C 
ENDROOT
BRANCH   3  11
ATOM     11  C   UNL     1       2.099   8.920  72.329  0.00  0.00    +0.000 A 
ATOM     12  C   UNL     1       1.103   9.496  73.131  0.00  0.00    +0.000 A 
ATOM     13  C   UNL     1      -0.078   9.981  72.574  0.00  0.00    +0.000 A 
ATOM     14  C   UNL     1      -0.256   9.900  71.196  0.00  0.00    +0.000 A 
ATOM     15  C   UNL     1       0.718   9.349  70.369  0.00  0.00    +0.000 A 
ATOM     16  C   UNL     1       1.892   8.869  70.942  0.00  0.00    +0.000 A 
BRANCH  14  17
ATOM     17  N   UNL     1      -1.483  10.402  70.610  0.00  0.00    +0.000 N 
ATOM     18  O   UNL     1      -2.448  10.586  71.366  0.00  0.00    +0.000 OA
ATOM     19  O   UNL     1      -1.493  10.617  69.390  0.00  0.00    +0.000 OA
ENDBRANCH  14  17
ENDBRANCH   3  11
BRANCH   2  20
ATOM     20  C   UNL     1       4.244   6.730  76.188  0.00  0.00    +0.000 A 
ATOM     21  C   UNL     1       3.839   6.858  77.520  0.00  0.00    +0.000 A 
ATOM     22  C   UNL     1       4.100   5.863  78.462  0.00  0.00    +0.000 A 
ATOM     23  C   UNL     1       4.773   4.703  78.085  0.00  0.00    +0.000 A 
ATOM     24  C   UNL     1       5.177   4.548  76.763  0.00  0.00    +0.000 A 
ATOM     25  C   UNL     1       4.910   5.550  75.829  0.00  0.00    +0.000 A 
BRANCH  23  26
ATOM     26  O   UNL     1       5.078   3.667  78.931  0.00  0.00    +0.000 OA
BRANCH  26  27
ATOM     27  C   UNL     1       6.334   3.232  78.854  0.00  0.00    +0.000 C 
ATOM     28  C   UNL     1       7.785   2.745  78.774  0.00  0.00    +0.000 C 
ENDBRANCH  26  27
ENDBRANCH  23  26
ENDBRANCH   2  20
BRANCH   3  29
ATOM     29  O   UNL     1       4.192   7.839  71.895  0.00  0.00    +0.000 OA
ATOM     30  H   UNL     1       4.150   6.884  72.067  0.00  0.00    +0.000 HD
ENDBRANCH   3  29
TORSDOF 6
ENDMDL
