MODEL 1
REMARK VINA RESULT:      -4.3      0.000      0.000
REMARK  Name = 5280445_Luteolin.pdbqt.pdb
REMARK  5 active torsions:
REMARK  status: ('A' for Active; 'I' for Inactive)
REMARK    1  A    between atoms: C_5  and  C_12
REMARK    2  A    between atoms: C_8  and  O_22
REMARK    3  A    between atoms: C_10  and  O_24
REMARK    4  A    between atoms: C_15  and  O_18
REMARK    5  A    between atoms: C_17  and  O_20
REMARK                            x       y       z     vdW  Elec       q    Type
REMARK                         _______ _______ _______ _____ _____    ______ ____
ROOT
ATOM      1  O   UNL     1      14.500  11.253  60.896  0.00  0.00    +0.000 OA
ATOM      2  O   UNL     1      15.794  13.205  57.515  0.00  0.00    +0.000 OA
ATOM      3  C   UNL     1      16.293  11.567  59.198  0.00  0.00    +0.000 A 
ATOM      4  C   UNL     1      15.754  10.954  60.357  0.00  0.00    +0.000 A 
ATOM      5  C   UNL     1      13.707  12.220  60.267  0.00  0.00    +0.000 A 
ATOM      6  C   UNL     1      15.477  12.589  58.516  0.00  0.00    +0.000 A 
ATOM      7  C   UNL     1      14.254  12.739  59.219  0.00  0.00    +0.000 A 
ATOM      8  C   UNL     1      17.554  11.208  58.725  0.00  0.00    +0.000 A 
ATOM      9  C   UNL     1      16.494   9.985  61.027  0.00  0.00    +0.000 A 
ATOM     10  C   UNL     1      17.753   9.638  60.542  0.00  0.00    +0.000 A 
ATOM     11  C   UNL     1      18.288  10.239  59.401  0.00  0.00    +0.000 A 
ENDROOT
BRANCH   5  12
ATOM     12  C   UNL     1      12.399  12.530  60.832  0.00  0.00    +0.000 A 
ATOM     13  C   UNL     1      12.297  13.157  62.077  0.00  0.00    +0.000 A 
ATOM     14  C   UNL     1      11.225  12.207  60.138  0.00  0.00    +0.000 A 
ATOM     15  C   UNL     1      11.046  13.448  62.606  0.00  0.00    +0.000 A 
ATOM     16  C   UNL     1       9.969  12.498  60.670  0.00  0.00    +0.000 A 
ATOM     17  C   UNL     1       9.889  13.122  61.908  0.00  0.00    +0.000 A 
BRANCH  15  18
ATOM     18  O   UNL     1      10.961  14.061  63.824  0.00  0.00    +0.000 OA
ATOM     19  H   UNL     1      10.196  14.666  63.751  0.00  0.00    +0.000 HD
ENDBRANCH  15  18
BRANCH  17  20
ATOM     20  O   UNL     1       8.682  13.429  62.472  0.00  0.00    +0.000 OA
ATOM     21  H   UNL     1       8.034  13.527  61.751  0.00  0.00    +0.000 HD
ENDBRANCH  17  20
ENDBRANCH   5  12
BRANCH   8  22
ATOM     22  O   UNL     1      18.126  11.764  57.614  0.00  0.00    +0.000 OA
ATOM     23  H   UNL     1      17.832  12.697  57.525  0.00  0.00    +0.000 HD
ENDBRANCH   8  22
BRANCH  10  24
ATOM     24  O   UNL     1      18.462   8.685  61.216  0.00  0.00    +0.000 OA
ATOM     25  H   UNL     1      17.936   7.866  61.230  0.00  0.00    +0.000 HD
ENDBRANCH  10  24
TORSDOF 5
ENDMDL
MODEL 2
REMARK VINA RESULT:      -4.2      2.488      3.702
REMARK  Name = 5280445_Luteolin.pdbqt.pdb
REMARK  5 active torsions:
REMARK  status: ('A' for Active; 'I' for Inactive)
REMARK    1  A    between atoms: C_5  and  C_12
REMARK    2  A    between atoms: C_8  and  O_22
REMARK    3  A    between atoms: C_10  and  O_24
REMARK    4  A    between atoms: C_15  and  O_18
REMARK    5  A    between atoms: C_17  and  O_20
REMARK                            x       y       z     vdW  Elec       q    Type
REMARK                         _______ _______ _______ _____ _____    ______ ____
ROOT
ATOM      1  O   UNL     1      14.619  11.251  60.136  0.00  0.00    +0.000 OA
ATOM      2  O   UNL     1      15.294  13.901  63.208  0.00  0.00    +0.000 OA
ATOM      3  C   UNL     1      16.059  11.946  62.044  0.00  0.00    +0.000 A 
ATOM      4  C   UNL     1      15.736  11.091  60.961  0.00  0.00    +0.000 A 
ATOM      5  C   UNL     1      13.748  12.320  60.377  0.00  0.00    +0.000 A 
ATOM      6  C   UNL     1      15.157  13.080  62.320  0.00  0.00    +0.000 A 
ATOM      7  C   UNL     1      14.099  13.060  61.376  0.00  0.00    +0.000 A 
ATOM      8  C   UNL     1      17.195  11.715  62.818  0.00  0.00    +0.000 A 
ATOM      9  C   UNL     1      16.563  10.011  60.669  0.00  0.00    +0.000 A 
ATOM     10  C   UNL     1      17.695   9.793  61.453  0.00  0.00    +0.000 A 
ATOM     11  C   UNL     1      18.017  10.632  62.521  0.00  0.00    +0.000 A 
ENDROOT
BRANCH   5  12
ATOM     12  C   UNL     1      12.585  12.485  59.515  0.00  0.00    +0.000 A 
ATOM     13  C   UNL     1      12.747  12.748  58.152  0.00  0.00    +0.000 A 
ATOM     14  C   UNL     1      11.288  12.383  60.035  0.00  0.00    +0.000 A 
ATOM     15  C   UNL     1      11.631  12.904  57.339  0.00  0.00    +0.000 A 
ATOM     16  C   UNL     1      10.167  12.540  59.220  0.00  0.00    +0.000 A 
ATOM     17  C   UNL     1      10.350  12.800  57.868  0.00  0.00    +0.000 A 
BRANCH  15  18
ATOM     18  O   UNL     1      11.803  13.161  56.009  0.00  0.00    +0.000 OA
ATOM     19  H   UNL     1      12.037  12.298  55.611  0.00  0.00    +0.000 HD
ENDBRANCH  15  18
BRANCH  17  20
ATOM     20  O   UNL     1       9.284  12.962  57.025  0.00  0.00    +0.000 OA
ATOM     21  H   UNL     1       8.702  13.642  57.411  0.00  0.00    +0.000 HD
ENDBRANCH  17  20
ENDBRANCH   5  12
BRANCH   8  22
ATOM     22  O   UNL     1      17.557  12.504  63.875  0.00  0.00    +0.000 OA
ATOM     23  H   UNL     1      16.943  12.350  64.625  0.00  0.00    +0.000 HD
ENDBRANCH   8  22
BRANCH  10  24
ATOM     24  O   UNL     1      18.492   8.726  61.150  0.00  0.00    +0.000 OA
ATOM     25  H   UNL     1      18.065   7.920  61.491  0.00  0.00    +0.000 HD
ENDBRANCH  10  24
TORSDOF 5
ENDMDL
MODEL 3
REMARK VINA RESULT:      -4.1      4.458      6.746
REMARK  Name = 5280445_Luteolin.pdbqt.pdb
REMARK  5 active torsions:
REMARK  status: ('A' for Active; 'I' for Inactive)
REMARK    1  A    between atoms: C_5  and  C_12
REMARK    2  A    between atoms: C_8  and  O_22
REMARK    3  A    between atoms: C_10  and  O_24
REMARK    4  A    between atoms: C_15  and  O_18
REMARK    5  A    between atoms: C_17  and  O_20
REMARK                            x       y       z     vdW  Elec       q    Type
REMARK                         _______ _______ _______ _____ _____    ______ ____
ROOT
ATOM      1  O   UNL     1      20.106   8.906  58.277  0.00  0.00    +0.000 OA
ATOM      2  O   UNL     1      17.555   9.317  55.077  0.00  0.00    +0.000 OA
ATOM      3  C   UNL     1      19.755   8.708  55.821  0.00  0.00    +0.000 A 
ATOM      4  C   UNL     1      20.552   8.602  56.988  0.00  0.00    +0.000 A 
ATOM      5  C   UNL     1      18.789   9.348  58.451  0.00  0.00    +0.000 A 
ATOM      6  C   UNL     1      18.363   9.172  55.976  0.00  0.00    +0.000 A 
ATOM      7  C   UNL     1      18.118   9.423  57.350  0.00  0.00    +0.000 A 
ATOM      8  C   UNL     1      20.279   8.384  54.570  0.00  0.00    +0.000 A 
ATOM      9  C   UNL     1      21.869   8.168  56.882  0.00  0.00    +0.000 A 
ATOM     10  C   UNL     1      22.378   7.847  55.625  0.00  0.00    +0.000 A 
ATOM     11  C   UNL     1      21.597   7.951  54.473  0.00  0.00    +0.000 A 
ENDROOT
BRANCH   5  12
ATOM     12  C   UNL     1      18.327   9.664  59.796  0.00  0.00    +0.000 A 
ATOM     13  C   UNL     1      16.975   9.927  60.036  0.00  0.00    +0.000 A 
ATOM     14  C   UNL     1      19.226   9.708  60.870  0.00  0.00    +0.000 A 
ATOM     15  C   UNL     1      16.545  10.228  61.322  0.00  0.00    +0.000 A 
ATOM     16  C   UNL     1      18.795  10.010  62.162  0.00  0.00    +0.000 A 
ATOM     17  C   UNL     1      17.448  10.269  62.379  0.00  0.00    +0.000 A 
BRANCH  15  18
ATOM     18  O   UNL     1      15.222  10.483  61.542  0.00  0.00    +0.000 OA
ATOM     19  H   UNL     1      14.907   9.739  62.093  0.00  0.00    +0.000 HD
ENDBRANCH  15  18
BRANCH  17  20
ATOM     20  O   UNL     1      16.974  10.570  63.626  0.00  0.00    +0.000 OA
ATOM     21  H   UNL     1      16.131  11.045  63.516  0.00  0.00    +0.000 HD
ENDBRANCH  17  20
ENDBRANCH   5  12
BRANCH   8  22
ATOM     22  O   UNL     1      19.560   8.467  53.410  0.00  0.00    +0.000 OA
ATOM     23  H   UNL     1      18.961   7.692  53.337  0.00  0.00    +0.000 HD
ENDBRANCH   8  22
BRANCH  10  24
ATOM     24  O   UNL     1      23.674   7.423  55.544  0.00  0.00    +0.000 OA
ATOM     25  H   UNL     1      23.740   6.556  55.982  0.00  0.00    +0.000 HD
ENDBRANCH  10  24
TORSDOF 5
ENDMDL
MODEL 4
REMARK VINA RESULT:      -4.0     10.106     11.452
REMARK  Name = 5280445_Luteolin.pdbqt.pdb
REMARK  5 active torsions:
REMARK  status: ('A' for Active; 'I' for Inactive)
REMARK    1  A    between atoms: C_5  and  C_12
REMARK    2  A    between atoms: C_8  and  O_22
REMARK    3  A    between atoms: C_10  and  O_24
REMARK    4  A    between atoms: C_15  and  O_18
REMARK    5  A    between atoms: C_17  and  O_20
REMARK                            x       y       z     vdW  Elec       q    Type
REMARK                         _______ _______ _______ _____ _____    ______ ____
ROOT
ATOM      1  O   UNL     1      17.168   1.771  65.966  0.00  0.00    +0.000 OA
ATOM      2  O   UNL     1      19.079   4.787  63.926  0.00  0.00    +0.000 OA
ATOM      3  C   UNL     1      18.558   2.445  64.015  0.00  0.00    +0.000 A 
ATOM      4  C   UNL     1      17.868   1.482  64.791  0.00  0.00    +0.000 A 
ATOM      5  C   UNL     1      17.134   3.093  66.426  0.00  0.00    +0.000 A 
ATOM      6  C   UNL     1      18.538   3.846  64.477  0.00  0.00    +0.000 A 
ATOM      7  C   UNL     1      17.781   3.919  65.674  0.00  0.00    +0.000 A 
ATOM      8  C   UNL     1      19.232   2.072  62.853  0.00  0.00    +0.000 A 
ATOM      9  C   UNL     1      17.863   0.151  64.387  0.00  0.00    +0.000 A 
ATOM     10  C   UNL     1      18.541  -0.207  63.224  0.00  0.00    +0.000 A 
ATOM     11  C   UNL     1      19.223   0.739  62.456  0.00  0.00    +0.000 A 
ENDROOT
BRANCH   5  12
ATOM     12  C   UNL     1      16.403   3.391  67.650  0.00  0.00    +0.000 A 
ATOM     13  C   UNL     1      16.005   4.700  67.935  0.00  0.00    +0.000 A 
ATOM     14  C   UNL     1      16.087   2.374  68.561  0.00  0.00    +0.000 A 
ATOM     15  C   UNL     1      15.309   4.974  69.106  0.00  0.00    +0.000 A 
ATOM     16  C   UNL     1      15.389   2.648  69.737  0.00  0.00    +0.000 A 
ATOM     17  C   UNL     1      15.002   3.956  70.001  0.00  0.00    +0.000 A 
BRANCH  15  18
ATOM     18  O   UNL     1      14.926   6.257  69.372  0.00  0.00    +0.000 OA
ATOM     19  H   UNL     1      14.097   6.175  69.885  0.00  0.00    +0.000 HD
ENDBRANCH  15  18
BRANCH  17  20
ATOM     20  O   UNL     1      14.315   4.277  71.140  0.00  0.00    +0.000 OA
ATOM     21  H   UNL     1      14.454   5.226  71.311  0.00  0.00    +0.000 HD
ENDBRANCH  17  20
ENDBRANCH   5  12
BRANCH   8  22
ATOM     22  O   UNL     1      19.915   2.955  62.064  0.00  0.00    +0.000 OA
ATOM     23  H   UNL     1      20.191   3.730  62.601  0.00  0.00    +0.000 HD
ENDBRANCH   8  22
BRANCH  10  24
ATOM     24  O   UNL     1      18.525  -1.519  62.846  0.00  0.00    +0.000 OA
ATOM     25  H   UNL     1      19.446  -1.820  62.747  0.00  0.00    +0.000 HD
ENDBRANCH  10  24
TORSDOF 5
ENDMDL
MODEL 5
REMARK VINA RESULT:      -4.0      4.394      7.017
REMARK  Name = 5280445_Luteolin.pdbqt.pdb
REMARK  5 active torsions:
REMARK  status: ('A' for Active; 'I' for Inactive)
REMARK    1  A    between atoms: C_5  and  C_12
REMARK    2  A    between atoms: C_8  and  O_22
REMARK    3  A    between atoms: C_10  and  O_24
REMARK    4  A    between atoms: C_15  and  O_18
REMARK    5  A    between atoms: C_17  and  O_20
REMARK                            x       y       z     vdW  Elec       q    Type
REMARK                         _______ _______ _______ _____ _____    ______ ____
ROOT
ATOM      1  O   UNL     1      18.232   9.486  57.372  0.00  0.00    +0.000 OA
ATOM      2  O   UNL     1      22.042   7.962  57.092  0.00  0.00    +0.000 OA
ATOM      3  C   UNL     1      20.064   8.643  55.913  0.00  0.00    +0.000 A 
ATOM      4  C   UNL     1      18.765   9.171  56.119  0.00  0.00    +0.000 A 
ATOM      5  C   UNL     1      19.014   9.272  58.513  0.00  0.00    +0.000 A 
ATOM      6  C   UNL     1      20.910   8.409  57.099  0.00  0.00    +0.000 A 
ATOM      7  C   UNL     1      20.185   8.791  58.257  0.00  0.00    +0.000 A 
ATOM      8  C   UNL     1      20.520   8.358  54.627  0.00  0.00    +0.000 A 
ATOM      9  C   UNL     1      17.939   9.406  55.026  0.00  0.00    +0.000 A 
ATOM     10  C   UNL     1      18.408   9.116  53.746  0.00  0.00    +0.000 A 
ATOM     11  C   UNL     1      19.687   8.595  53.538  0.00  0.00    +0.000 A 
ENDROOT
BRANCH   5  12
ATOM     12  C   UNL     1      18.456   9.602  59.819  0.00  0.00    +0.000 A 
ATOM     13  C   UNL     1      17.120   9.996  59.937  0.00  0.00    +0.000 A 
ATOM     14  C   UNL     1      19.245   9.528  60.974  0.00  0.00    +0.000 A 
ATOM     15  C   UNL     1      16.598  10.308  61.186  0.00  0.00    +0.000 A 
ATOM     16  C   UNL     1      18.721   9.841  62.229  0.00  0.00    +0.000 A 
ATOM     17  C   UNL     1      17.392  10.231  62.324  0.00  0.00    +0.000 A 
BRANCH  15  18
ATOM     18  O   UNL     1      15.291  10.692  61.287  0.00  0.00    +0.000 OA
ATOM     19  H   UNL     1      15.163  11.351  60.575  0.00  0.00    +0.000 HD
ENDBRANCH  15  18
BRANCH  17  20
ATOM     20  O   UNL     1      16.830  10.549  63.531  0.00  0.00    +0.000 OA
ATOM     21  H   UNL     1      16.612  11.498  63.514  0.00  0.00    +0.000 HD
ENDBRANCH  17  20
ENDBRANCH   5  12
BRANCH   8  22
ATOM     22  O   UNL     1      21.761   7.847  54.366  0.00  0.00    +0.000 OA
ATOM     23  H   UNL     1      22.031   8.089  53.453  0.00  0.00    +0.000 HD
ENDBRANCH   8  22
BRANCH  10  24
ATOM     24  O   UNL     1      17.580   9.353  52.687  0.00  0.00    +0.000 OA
ATOM     25  H   UNL     1      17.279   8.496  52.337  0.00  0.00    +0.000 HD
ENDBRANCH  10  24
TORSDOF 5
ENDMDL
MODEL 6
REMARK VINA RESULT:      -4.0      2.142      3.354
REMARK  Name = 5280445_Luteolin.pdbqt.pdb
REMARK  5 active torsions:
REMARK  status: ('A' for Active; 'I' for Inactive)
REMARK    1  A    between atoms: C_5  and  C_12
REMARK    2  A    between atoms: C_8  and  O_22
REMARK    3  A    between atoms: C_10  and  O_24
REMARK    4  A    between atoms: C_15  and  O_18
REMARK    5  A    between atoms: C_17  and  O_20
REMARK                            x       y       z     vdW  Elec       q    Type
REMARK                         _______ _______ _______ _____ _____    ______ ____
ROOT
ATOM      1  O   UNL     1      16.009  10.991  62.146  0.00  0.00    +0.000 OA
ATOM      2  O   UNL     1      18.243   9.360  59.101  0.00  0.00    +0.000 OA
ATOM      3  C   UNL     1      18.003   9.662  61.471  0.00  0.00    +0.000 A 
ATOM      4  C   UNL     1      17.166  10.264  62.443  0.00  0.00    +0.000 A 
ATOM      5  C   UNL     1      15.635  11.149  60.806  0.00  0.00    +0.000 A 
ATOM      6  C   UNL     1      17.631   9.814  60.051  0.00  0.00    +0.000 A 
ATOM      7  C   UNL     1      16.439  10.578  59.973  0.00  0.00    +0.000 A 
ATOM      8  C   UNL     1      19.140   8.951  61.854  0.00  0.00    +0.000 A 
ATOM      9  C   UNL     1      17.483  10.142  63.792  0.00  0.00    +0.000 A 
ATOM     10  C   UNL     1      18.623   9.429  64.159  0.00  0.00    +0.000 A 
ATOM     11  C   UNL     1      19.451   8.835  63.205  0.00  0.00    +0.000 A 
ENDROOT
BRANCH   5  12
ATOM     12  C   UNL     1      14.430  11.907  60.500  0.00  0.00    +0.000 A 
ATOM     13  C   UNL     1      13.677  12.485  61.526  0.00  0.00    +0.000 A 
ATOM     14  C   UNL     1      14.005  12.071  59.174  0.00  0.00    +0.000 A 
ATOM     15  C   UNL     1      12.529  13.205  61.223  0.00  0.00    +0.000 A 
ATOM     16  C   UNL     1      12.852  12.795  58.869  0.00  0.00    +0.000 A 
ATOM     17  C   UNL     1      12.118  13.360  59.904  0.00  0.00    +0.000 A 
BRANCH  15  18
ATOM     18  O   UNL     1      11.803  13.764  62.236  0.00  0.00    +0.000 OA
ATOM     19  H   UNL     1      11.767  13.079  62.933  0.00  0.00    +0.000 HD
ENDBRANCH  15  18
BRANCH  17  20
ATOM     20  O   UNL     1      10.980  14.079  59.658  0.00  0.00    +0.000 OA
ATOM     21  H   UNL     1      10.272  13.713  60.218  0.00  0.00    +0.000 HD
ENDBRANCH  17  20
ENDBRANCH   5  12
BRANCH   8  22
ATOM     22  O   UNL     1      19.986   8.351  60.963  0.00  0.00    +0.000 OA
ATOM     23  H   UNL     1      19.726   8.594  60.047  0.00  0.00    +0.000 HD
ENDBRANCH   8  22
BRANCH  10  24
ATOM     24  O   UNL     1      18.916   9.323  65.488  0.00  0.00    +0.000 OA
ATOM     25  H   UNL     1      19.840   9.028  65.574  0.00  0.00    +0.000 HD
ENDBRANCH  10  24
TORSDOF 5
ENDMDL
MODEL 7
REMARK VINA RESULT:      -3.9     15.110     19.107
REMARK  Name = 5280445_Luteolin.pdbqt.pdb
REMARK  5 active torsions:
REMARK  status: ('A' for Active; 'I' for Inactive)
REMARK    1  A    between atoms: C_5  and  C_12
REMARK    2  A    between atoms: C_8  and  O_22
REMARK    3  A    between atoms: C_10  and  O_24
REMARK    4  A    between atoms: C_15  and  O_18
REMARK    5  A    between atoms: C_17  and  O_20
REMARK                            x       y       z     vdW  Elec       q    Type
REMARK                         _______ _______ _______ _____ _____    ______ ____
ROOT
ATOM      1  O   UNL     1       1.852   8.478  74.372  0.00  0.00    +0.000 OA
ATOM      2  O   UNL     1       4.406   5.270  74.699  0.00  0.00    +0.000 OA
ATOM      3  C   UNL     1       2.547   6.457  75.649  0.00  0.00    +0.000 A 
ATOM      4  C   UNL     1       1.721   7.590  75.444  0.00  0.00    +0.000 A 
ATOM      5  C   UNL     1       2.859   8.252  73.426  0.00  0.00    +0.000 A 
ATOM      6  C   UNL     1       3.616   6.196  74.666  0.00  0.00    +0.000 A 
ATOM      7  C   UNL     1       3.574   7.205  73.671  0.00  0.00    +0.000 A 
ATOM      8  C   UNL     1       2.348   5.621  76.746  0.00  0.00    +0.000 A 
ATOM      9  C   UNL     1       0.702   7.869  76.349  0.00  0.00    +0.000 A 
ATOM     10  C   UNL     1       0.515   7.024  77.441  0.00  0.00    +0.000 A 
ATOM     11  C   UNL     1       1.327   5.906  77.647  0.00  0.00    +0.000 A 
ENDROOT
BRANCH   5  12
ATOM     12  C   UNL     1       2.993   9.179  72.309  0.00  0.00    +0.000 A 
ATOM     13  C   UNL     1       4.189   9.873  72.106  0.00  0.00    +0.000 A 
ATOM     14  C   UNL     1       1.928   9.388  71.422  0.00  0.00    +0.000 A 
ATOM     15  C   UNL     1       4.305  10.755  71.039  0.00  0.00    +0.000 A 
ATOM     16  C   UNL     1       2.045  10.273  70.350  0.00  0.00    +0.000 A 
ATOM     17  C   UNL     1       3.242  10.954  70.166  0.00  0.00    +0.000 A 
BRANCH  15  18
ATOM     18  O   UNL     1       5.479  11.426  70.851  0.00  0.00    +0.000 OA
ATOM     19  H   UNL     1       5.474  11.692  69.910  0.00  0.00    +0.000 HD
ENDBRANCH  15  18
BRANCH  17  20
ATOM     20  O   UNL     1       3.407  11.832  69.130  0.00  0.00    +0.000 OA
ATOM     21  H   UNL     1       3.060  11.408  68.324  0.00  0.00    +0.000 HD
ENDBRANCH  17  20
ENDBRANCH   5  12
BRANCH   8  22
ATOM     22  O   UNL     1       3.112   4.515  76.996  0.00  0.00    +0.000 OA
ATOM     23  H   UNL     1       3.761   4.393  76.270  0.00  0.00    +0.000 HD
ENDBRANCH   8  22
BRANCH  10  24
ATOM     24  O   UNL     1      -0.490   7.316  78.317  0.00  0.00    +0.000 OA
ATOM     25  H   UNL     1      -1.333   7.028  77.922  0.00  0.00    +0.000 HD
ENDBRANCH  10  24
TORSDOF 5
ENDMDL
MODEL 8
REMARK VINA RESULT:      -3.9      1.659      2.447
REMARK  Name = 5280445_Luteolin.pdbqt.pdb
REMARK  5 active torsions:
REMARK  status: ('A' for Active; 'I' for Inactive)
REMARK    1  A    between atoms: C_5  and  C_12
REMARK    2  A    between atoms: C_8  and  O_22
REMARK    3  A    between atoms: C_10  and  O_24
REMARK    4  A    between atoms: C_15  and  O_18
REMARK    5  A    between atoms: C_17  and  O_20
REMARK                            x       y       z     vdW  Elec       q    Type
REMARK                         _______ _______ _______ _____ _____    ______ ____
ROOT
ATOM      1  O   UNL     1      12.676  11.946  60.983  0.00  0.00    +0.000 OA
ATOM      2  O   UNL     1      12.904  13.040  57.025  0.00  0.00    +0.000 OA
ATOM      3  C   UNL     1      14.108  12.381  58.995  0.00  0.00    +0.000 A 
ATOM      4  C   UNL     1      13.921  12.016  60.351  0.00  0.00    +0.000 A 
ATOM      5  C   UNL     1      11.525  12.253  60.247  0.00  0.00    +0.000 A 
ATOM      6  C   UNL     1      12.912  12.710  58.196  0.00  0.00    +0.000 A 
ATOM      7  C   UNL     1      11.766  12.577  59.021  0.00  0.00    +0.000 A 
ATOM      8  C   UNL     1      15.387  12.425  58.441  0.00  0.00    +0.000 A 
ATOM      9  C   UNL     1      15.024  11.699  61.135  0.00  0.00    +0.000 A 
ATOM     10  C   UNL     1      16.296  11.747  60.567  0.00  0.00    +0.000 A 
ATOM     11  C   UNL     1      16.486  12.107  59.232  0.00  0.00    +0.000 A 
ENDROOT
BRANCH   5  12
ATOM     12  C   UNL     1      10.229  12.179  60.909  0.00  0.00    +0.000 A 
ATOM     13  C   UNL     1      10.051  12.731  62.181  0.00  0.00    +0.000 A 
ATOM     14  C   UNL     1       9.141  11.556  60.283  0.00  0.00    +0.000 A 
ATOM     15  C   UNL     1       8.812  12.655  62.803  0.00  0.00    +0.000 A 
ATOM     16  C   UNL     1       7.895  11.479  60.908  0.00  0.00    +0.000 A 
ATOM     17  C   UNL     1       7.740  12.034  62.171  0.00  0.00    +0.000 A 
BRANCH  15  18
ATOM     18  O   UNL     1       8.652  13.198  64.045  0.00  0.00    +0.000 OA
ATOM     19  H   UNL     1       8.145  14.022  63.900  0.00  0.00    +0.000 HD
ENDBRANCH  15  18
BRANCH  17  20
ATOM     20  O   UNL     1       6.540  11.984  62.826  0.00  0.00    +0.000 OA
ATOM     21  H   UNL     1       6.550  11.199  63.402  0.00  0.00    +0.000 HD
ENDBRANCH  17  20
ENDBRANCH   5  12
BRANCH   8  22
ATOM     22  O   UNL     1      15.631  12.770  57.140  0.00  0.00    +0.000 OA
ATOM     23  H   UNL     1      16.284  13.503  57.112  0.00  0.00    +0.000 HD
ENDBRANCH   8  22
BRANCH  10  24
ATOM     24  O   UNL     1      17.366  11.433  61.356  0.00  0.00    +0.000 OA
ATOM     25  H   UNL     1      17.434  12.103  62.059  0.00  0.00    +0.000 HD
ENDBRANCH  10  24
TORSDOF 5
ENDMDL
MODEL 9
REMARK VINA RESULT:      -3.7      3.663      8.734
REMARK  Name = 5280445_Luteolin.pdbqt.pdb
REMARK  5 active torsions:
REMARK  status: ('A' for Active; 'I' for Inactive)
REMARK    1  A    between atoms: C_5  and  C_12
REMARK    2  A    between atoms: C_8  and  O_22
REMARK    3  A    between atoms: C_10  and  O_24
REMARK    4  A    between atoms: C_15  and  O_18
REMARK    5  A    between atoms: C_17  and  O_20
REMARK                            x       y       z     vdW  Elec       q    Type
REMARK                         _______ _______ _______ _____ _____    ______ ____
ROOT
ATOM      1  O   UNL     1      18.048   9.127  61.567  0.00  0.00    +0.000 OA
ATOM      2  O   UNL     1      18.019  11.835  64.662  0.00  0.00    +0.000 OA
ATOM      3  C   UNL     1      17.115  11.227  62.523  0.00  0.00    +0.000 A 
ATOM      4  C   UNL     1      17.201  10.238  61.512  0.00  0.00    +0.000 A 
ATOM      5  C   UNL     1      18.875   8.961  62.684  0.00  0.00    +0.000 A 
ATOM      6  C   UNL     1      17.975  11.076  63.711  0.00  0.00    +0.000 A 
ATOM      7  C   UNL     1      18.747   9.895  63.566  0.00  0.00    +0.000 A 
ATOM      8  C   UNL     1      16.241  12.305  62.390  0.00  0.00    +0.000 A 
ATOM      9  C   UNL     1      16.405  10.345  60.377  0.00  0.00    +0.000 A 
ATOM     10  C   UNL     1      15.537  11.429  60.258  0.00  0.00    +0.000 A 
ATOM     11  C   UNL     1      15.448  12.406  61.250  0.00  0.00    +0.000 A 
ENDROOT
BRANCH   5  12
ATOM     12  C   UNL     1      19.756   7.802  62.739  0.00  0.00    +0.000 A 
ATOM     13  C   UNL     1      20.854   7.707  61.879  0.00  0.00    +0.000 A 
ATOM     14  C   UNL     1      19.520   6.765  63.652  0.00  0.00    +0.000 A 
ATOM     15  C   UNL     1      21.687   6.597  61.939  0.00  0.00    +0.000 A 
ATOM     16  C   UNL     1      20.357   5.651  63.713  0.00  0.00    +0.000 A 
ATOM     17  C   UNL     1      21.442   5.576  62.849  0.00  0.00    +0.000 A 
BRANCH  15  18
ATOM     18  O   UNL     1      22.756   6.517  61.093  0.00  0.00    +0.000 OA
ATOM     19  H   UNL     1      23.482   6.984  61.555  0.00  0.00    +0.000 HD
ENDBRANCH  15  18
BRANCH  17  20
ATOM     20  O   UNL     1      22.292   4.504  62.869  0.00  0.00    +0.000 OA
ATOM     21  H   UNL     1      22.910   4.631  63.612  0.00  0.00    +0.000 HD
ENDBRANCH  17  20
ENDBRANCH   5  12
BRANCH   8  22
ATOM     22  O   UNL     1      16.114  13.290  63.330  0.00  0.00    +0.000 OA
ATOM     23  H   UNL     1      15.222  13.696  63.262  0.00  0.00    +0.000 HD
ENDBRANCH   8  22
BRANCH  10  24
ATOM     24  O   UNL     1      14.765  11.516  59.134  0.00  0.00    +0.000 OA
ATOM     25  H   UNL     1      13.866  11.217  59.358  0.00  0.00    +0.000 HD
ENDBRANCH  10  24
TORSDOF 5
ENDMDL
