REMARK  Name = 5280445_Luteolin.pdbqt.pdb
REMARK  5 active torsions:
REMARK  status: ('A' for Active; 'I' for Inactive)
REMARK    1  A    between atoms: C_5  and  C_12
REMARK    2  A    between atoms: C_8  and  O_22
REMARK    3  A    between atoms: C_10  and  O_24
REMARK    4  A    between atoms: C_15  and  O_18
REMARK    5  A    between atoms: C_17  and  O_20
REMARK                            x       y       z     vdW  Elec       q    Type
REMARK                         _______ _______ _______ _____ _____    ______ ____
ROOT
ATOM      1  O   UNL     1      -0.267   0.753   0.014  0.00  0.00    +0.000 OA
ATOM      2  O   UNL     1      -2.015  -2.970  -0.035  0.00  0.00    +0.000 OA
ATOM      3  C   UNL     1      -2.360  -0.594  -0.005  0.00  0.00    +0.000 A 
ATOM      4  C   UNL     1      -1.660   0.638   0.012  0.00  0.00    +0.000 A 
ATOM      5  C   UNL     1       0.508  -0.413   0.000  0.00  0.00    +0.000 A 
ATOM      6  C   UNL     1      -1.567  -1.838  -0.020  0.00  0.00    +0.000 A 
ATOM      7  C   UNL     1      -0.190  -1.499  -0.015  0.00  0.00    +0.000 A 
ATOM      8  C   UNL     1      -3.754  -0.620  -0.007  0.00  0.00    +0.000 A 
ATOM      9  C   UNL     1      -2.373   1.832   0.026  0.00  0.00    +0.000 A 
ATOM     10  C   UNL     1      -3.766   1.790   0.024  0.00  0.00    +0.000 A 
ATOM     11  C   UNL     1      -4.460   0.579   0.008  0.00  0.00    +0.000 A 
ENDROOT
BRANCH   5  12
ATOM     12  C   UNL     1       1.960  -0.290   0.002  0.00  0.00    +0.000 A 
ATOM     13  C   UNL     1       2.563   0.971   0.020  0.00  0.00    +0.000 A 
ATOM     14  C   UNL     1       2.775  -1.430  -0.013  0.00  0.00    +0.000 A 
ATOM     15  C   UNL     1       3.948   1.077   0.021  0.00  0.00    +0.000 A 
ATOM     16  C   UNL     1       4.166  -1.324  -0.012  0.00  0.00    +0.000 A 
ATOM     17  C   UNL     1       4.745  -0.062   0.006  0.00  0.00    +0.000 A 
BRANCH  15  18
ATOM     18  O   UNL     1       4.524   2.315   0.039  0.00  0.00    +0.000 OA
ATOM     19  H   UNL     1       5.488   2.148   0.037  0.00  0.00    +0.000 HD
ENDBRANCH  15  18
BRANCH  17  20
ATOM     20  O   UNL     1       6.104   0.096   0.008  0.00  0.00    +0.000 OA
ATOM     21  H   UNL     1       6.505  -0.792  -0.004  0.00  0.00    +0.000 HD
ENDBRANCH  17  20
ENDBRANCH   5  12
BRANCH   8  22
ATOM     22  O   UNL     1      -4.484  -1.776  -0.022  0.00  0.00    +0.000 OA
ATOM     23  H   UNL     1      -3.877  -2.548  -0.032  0.00  0.00    +0.000 HD
ENDBRANCH   8  22
BRANCH  10  24
ATOM     24  O   UNL     1      -4.446   2.974   0.039  0.00  0.00    +0.000 OA
ATOM     25  H   UNL     1      -5.400   2.778   0.035  0.00  0.00    +0.000 HD
ENDBRANCH  10  24
TORSDOF 5
