MODEL 1
REMARK VINA RESULT:      -4.7      0.000      0.000
REMARK  Name = 5281239_Fucoxanthin.pdbqt.pdb
REMARK  19 active torsions:
REMARK  status: ('A' for Active; 'I' for Inactive)
REMARK    1  A    between atoms: C_1  and  C_5
REMARK    2  A    between atoms: C_2  and  C_26
REMARK    3  A    between atoms: C_3  and  C_5
REMARK    4  A    between atoms: C_3  and  C_7
REMARK    5  A    between atoms: C_6  and  C_10
REMARK    6  A    between atoms: C_8  and  C_10
REMARK    7  A    between atoms: C_8  and  C_12
REMARK    8  A    between atoms: C_12  and  C_13
REMARK    9  A    between atoms: C_13  and  C_15
REMARK   10  A    between atoms: C_20  and  O_24
REMARK   11  A    between atoms: C_26  and  C_27
REMARK   12  A    between atoms: C_27  and  C_30
REMARK   13  A    between atoms: C_29  and  C_33
REMARK   14  A    between atoms: C_31  and  C_33
REMARK   15  A    between atoms: C_31  and  C_44
REMARK   16  A    between atoms: C_35  and  O_45
REMARK   17  A    between atoms: C_37  and  O_47
REMARK   18  A    between atoms: C_39  and  C_43
REMARK   19  A    between atoms: O_47  and  C_49
REMARK                            x       y       z     vdW  Elec       q    Type
REMARK                         _______ _______ _______ _____ _____    ______ ____
ROOT
ATOM      1  C   UNL     1      18.757   6.498  51.866  0.00  0.00    +0.000 C 
ATOM      2  C   UNL     1      18.389   7.624  52.057  0.00  0.00    +0.000 C 
ENDROOT
BRANCH   2   3
ATOM      3  C   UNL     1      17.922   9.064  52.306  0.00  0.00    +0.000 C 
BRANCH   3   4
ATOM      4  C   UNL     1      17.530  10.281  52.514  0.00  0.00    +0.000 C 
ATOM      5  C   UNL     1      17.096  11.133  51.360  0.00  0.00    +0.000 C 
BRANCH   4   7
ATOM      6  C   UNL     1      17.405  11.214  54.955  0.00  0.00    +0.000 C 
ATOM      7  C   UNL     1      17.464  10.786  53.834  0.00  0.00    +0.000 C 
BRANCH   6   8
ATOM      8  C   UNL     1      17.327  11.755  56.387  0.00  0.00    +0.000 C 
BRANCH   8   9
ATOM      9  C   UNL     1      17.254  12.218  57.596  0.00  0.00    +0.000 C 
ATOM     10  C   UNL     1      18.497  12.396  58.412  0.00  0.00    +0.000 C 
BRANCH   9  12
ATOM     11  C   UNL     1      14.911  12.637  58.693  0.00  0.00    +0.000 C 
ATOM     12  C   UNL     1      15.986  12.446  58.187  0.00  0.00    +0.000 C 
BRANCH  11  18
ATOM     13  C   UNL     1      12.531  13.381  58.453  0.00  0.00    +0.000 C 
ATOM     14  C   UNL     1      13.513  12.604  60.734  0.00  0.00    +0.000 C 
ATOM     15  C   UNL     1      11.282  13.235  59.213  0.00  0.00    +0.000 C 
ATOM     16  C   UNL     1      10.851  12.835  60.493  0.00  0.00    +0.000 C 
ATOM     17  C   UNL     1      12.099  12.557  61.088  0.00  0.00    +0.000 C 
ATOM     18  C   UNL     1      13.733  12.841  59.248  0.00  0.00    +0.000 C 
ATOM     19  C   UNL     1      12.784  14.879  58.132  0.00  0.00    +0.000 C 
ATOM     20  C   UNL     1      12.390  12.571  57.129  0.00  0.00    +0.000 C 
ATOM     21  C   UNL     1      14.263  13.646  61.570  0.00  0.00    +0.000 C 
BRANCH  14  22
ATOM     22  O   UNL     1      14.086  11.368  61.095  0.00  0.00    +0.000 OA
ATOM     23  H   UNL     1      13.832  10.808  60.338  0.00  0.00    +0.000 HD
ENDBRANCH  14  22
BRANCH  16  24
ATOM     24  O   UNL     1       9.909  13.605  61.161  0.00  0.00    +0.000 OA
BRANCH  24  26
ATOM     25  O   UNL     1       9.168  12.769  63.225  0.00  0.00    +0.000 OA
ATOM     26  C   UNL     1       9.191  12.827  62.009  0.00  0.00    +0.000 C 
ATOM     27  C   UNL     1       8.279  11.867  61.329  0.00  0.00    +0.000 C 
ENDBRANCH  24  26
ENDBRANCH  16  24
ENDBRANCH  11  18
ENDBRANCH   9  12
ENDBRANCH   8   9
ENDBRANCH   6   8
ENDBRANCH   4   7
ENDBRANCH   3   4
ENDBRANCH   2   3
BRANCH   1  28
ATOM     28  C   UNL     1      19.235   5.061  51.631  0.00  0.00    +0.000 C 
BRANCH  28  29
ATOM     29  C   UNL     1      19.627   3.843  51.430  0.00  0.00    +0.000 C 
ATOM     30  C   UNL     1      20.163   3.439  50.090  0.00  0.00    +0.000 C 
BRANCH  29  32
ATOM     31  C   UNL     1      19.408   2.085  53.356  0.00  0.00    +0.000 C 
ATOM     32  C   UNL     1      19.512   2.886  52.467  0.00  0.00    +0.000 C 
BRANCH  31  33
ATOM     33  C   UNL     1      19.270   1.074  54.500  0.00  0.00    +0.000 C 
BRANCH  33  34
ATOM     34  C   UNL     1      19.149   0.223  55.475  0.00  0.00    +0.000 C 
ATOM     35  C   UNL     1      20.341   0.067  56.397  0.00  0.00    +0.000 C 
BRANCH  34  37
ATOM     36  O   UNL     1      17.627  -1.192  56.657  0.00  0.00    +0.000 OA
ATOM     37  C   UNL     1      17.898  -0.583  55.626  0.00  0.00    +0.000 C 
BRANCH  37  38
ATOM     38  C   UNL     1      16.941  -0.678  54.549  0.00  0.00    +0.000 C 
BRANCH  38  40
ATOM     39  O   UNL     1      15.886  -2.191  53.052  0.00  0.00    +0.000 OA
ATOM     40  C   UNL     1      15.970  -0.803  53.480  0.00  0.00    +0.000 C 
ATOM     41  C   UNL     1      14.719  -1.682  53.696  0.00  0.00    +0.000 C 
ATOM     42  C   UNL     1      15.921   0.283  52.346  0.00  0.00    +0.000 C 
ATOM     43  C   UNL     1      13.634  -1.509  52.786  0.00  0.00    +0.000 C 
ATOM     44  C   UNL     1      14.682   0.065  51.598  0.00  0.00    +0.000 C 
ATOM     45  C   UNL     1      13.490  -0.684  51.657  0.00  0.00    +0.000 C 
ATOM     46  C   UNL     1      14.409  -2.375  55.026  0.00  0.00    +0.000 C 
ATOM     47  C   UNL     1      15.897   1.646  53.081  0.00  0.00    +0.000 C 
ATOM     48  C   UNL     1      17.206   0.084  51.512  0.00  0.00    +0.000 C 
BRANCH  45  49
ATOM     49  O   UNL     1      12.295  -0.149  51.282  0.00  0.00    +0.000 OA
ATOM     50  H   UNL     1      11.581  -0.359  51.910  0.00  0.00    +0.000 HD
ENDBRANCH  45  49
ENDBRANCH  38  40
ENDBRANCH  37  38
ENDBRANCH  34  37
ENDBRANCH  33  34
ENDBRANCH  31  33
ENDBRANCH  29  32
ENDBRANCH  28  29
ENDBRANCH   1  28
TORSDOF 19
ENDMDL
MODEL 2
REMARK VINA RESULT:      -4.5      5.340     14.126
REMARK  Name = 5281239_Fucoxanthin.pdbqt.pdb
REMARK  19 active torsions:
REMARK  status: ('A' for Active; 'I' for Inactive)
REMARK    1  A    between atoms: C_1  and  C_5
REMARK    2  A    between atoms: C_2  and  C_26
REMARK    3  A    between atoms: C_3  and  C_5
REMARK    4  A    between atoms: C_3  and  C_7
REMARK    5  A    between atoms: C_6  and  C_10
REMARK    6  A    between atoms: C_8  and  C_10
REMARK    7  A    between atoms: C_8  and  C_12
REMARK    8  A    between atoms: C_12  and  C_13
REMARK    9  A    between atoms: C_13  and  C_15
REMARK   10  A    between atoms: C_20  and  O_24
REMARK   11  A    between atoms: C_26  and  C_27
REMARK   12  A    between atoms: C_27  and  C_30
REMARK   13  A    between atoms: C_29  and  C_33
REMARK   14  A    between atoms: C_31  and  C_33
REMARK   15  A    between atoms: C_31  and  C_44
REMARK   16  A    between atoms: C_35  and  O_45
REMARK   17  A    between atoms: C_37  and  O_47
REMARK   18  A    between atoms: C_39  and  C_43
REMARK   19  A    between atoms: O_47  and  C_49
REMARK                            x       y       z     vdW  Elec       q    Type
REMARK                         _______ _______ _______ _____ _____    ______ ____
ROOT
ATOM      1  C   UNL     1      19.417   9.307  57.786  0.00  0.00    +0.000 C 
ATOM      2  C   UNL     1      19.929   9.121  56.717  0.00  0.00    +0.000 C 
ENDROOT
BRANCH   2   3
ATOM      3  C   UNL     1      20.589   8.888  55.353  0.00  0.00    +0.000 C 
BRANCH   3   4
ATOM      4  C   UNL     1      21.144   8.688  54.199  0.00  0.00    +0.000 C 
ATOM      5  C   UNL     1      22.174   9.649  53.689  0.00  0.00    +0.000 C 
BRANCH   4   7
ATOM      6  C   UNL     1      20.530   6.561  52.805  0.00  0.00    +0.000 C 
ATOM      7  C   UNL     1      20.812   7.536  53.446  0.00  0.00    +0.000 C 
BRANCH   6   8
ATOM      8  C   UNL     1      20.171   5.318  51.983  0.00  0.00    +0.000 C 
BRANCH   8   9
ATOM      9  C   UNL     1      19.877   4.264  51.287  0.00  0.00    +0.000 C 
ATOM     10  C   UNL     1      20.285   4.173  49.849  0.00  0.00    +0.000 C 
BRANCH   9  12
ATOM     11  C   UNL     1      18.380   2.384  52.332  0.00  0.00    +0.000 C 
ATOM     12  C   UNL     1      19.069   3.248  51.855  0.00  0.00    +0.000 C 
BRANCH  11  18
ATOM     13  C   UNL     1      18.202   0.283  53.685  0.00  0.00    +0.000 C 
ATOM     14  C   UNL     1      16.121   1.416  52.611  0.00  0.00    +0.000 C 
ATOM     15  C   UNL     1      17.142  -0.449  54.392  0.00  0.00    +0.000 C 
ATOM     16  C   UNL     1      15.736  -0.477  54.472  0.00  0.00    +0.000 C 
ATOM     17  C   UNL     1      15.423   0.519  53.525  0.00  0.00    +0.000 C 
ATOM     18  C   UNL     1      17.622   1.441  52.854  0.00  0.00    +0.000 C 
ATOM     19  C   UNL     1      18.964  -0.677  52.732  0.00  0.00    +0.000 C 
ATOM     20  C   UNL     1      19.183   0.861  54.749  0.00  0.00    +0.000 C 
ATOM     21  C   UNL     1      15.809   1.077  51.150  0.00  0.00    +0.000 C 
BRANCH  14  22
ATOM     22  O   UNL     1      15.600   2.712  52.803  0.00  0.00    +0.000 OA
ATOM     23  H   UNL     1      15.614   3.063  51.893  0.00  0.00    +0.000 HD
ENDBRANCH  14  22
BRANCH  16  24
ATOM     24  O   UNL     1      15.082  -1.702  54.447  0.00  0.00    +0.000 OA
BRANCH  24  26
ATOM     25  O   UNL     1      12.828  -1.646  55.099  0.00  0.00    +0.000 OA
ATOM     26  C   UNL     1      14.028  -1.682  55.301  0.00  0.00    +0.000 C 
ATOM     27  C   UNL     1      14.410  -1.694  56.739  0.00  0.00    +0.000 C 
ENDBRANCH  24  26
ENDBRANCH  16  24
ENDBRANCH  11  18
ENDBRANCH   9  12
ENDBRANCH   8   9
ENDBRANCH   6   8
ENDBRANCH   4   7
ENDBRANCH   3   4
ENDBRANCH   2   3
BRANCH   1  28
ATOM     28  C   UNL     1      18.771   9.550  59.155  0.00  0.00    +0.000 C 
BRANCH  28  29
ATOM     29  C   UNL     1      18.235   9.754  60.317  0.00  0.00    +0.000 C 
ATOM     30  C   UNL     1      17.194  10.818  60.487  0.00  0.00    +0.000 C 
BRANCH  29  32
ATOM     31  C   UNL     1      19.017   8.342  62.377  0.00  0.00    +0.000 C 
ATOM     32  C   UNL     1      18.664   8.995  61.432  0.00  0.00    +0.000 C 
BRANCH  31  33
ATOM     33  C   UNL     1      19.454   7.500  63.581  0.00  0.00    +0.000 C 
BRANCH  33  34
ATOM     34  C   UNL     1      19.827   6.793  64.607  0.00  0.00    +0.000 C 
ATOM     35  C   UNL     1      21.016   5.876  64.408  0.00  0.00    +0.000 C 
BRANCH  34  37
ATOM     36  O   UNL     1      18.876   5.887  66.604  0.00  0.00    +0.000 OA
ATOM     37  C   UNL     1      19.069   6.870  65.894  0.00  0.00    +0.000 C 
BRANCH  37  38
ATOM     38  C   UNL     1      18.528   8.123  66.365  0.00  0.00    +0.000 C 
BRANCH  38  40
ATOM     39  O   UNL     1      16.553   9.391  66.734  0.00  0.00    +0.000 OA
ATOM     40  C   UNL     1      18.002   9.377  66.867  0.00  0.00    +0.000 C 
ATOM     41  C   UNL     1      17.041   9.362  68.075  0.00  0.00    +0.000 C 
ATOM     42  C   UNL     1      18.749  10.718  66.534  0.00  0.00    +0.000 C 
ATOM     43  C   UNL     1      16.825  10.600  68.752  0.00  0.00    +0.000 C 
ATOM     44  C   UNL     1      18.177  11.752  67.400  0.00  0.00    +0.000 C 
ATOM     45  C   UNL     1      17.309  11.895  68.500  0.00  0.00    +0.000 C 
ATOM     46  C   UNL     1      16.670   8.082  68.828  0.00  0.00    +0.000 C 
ATOM     47  C   UNL     1      20.235  10.460  66.879  0.00  0.00    +0.000 C 
ATOM     48  C   UNL     1      18.526  10.965  65.025  0.00  0.00    +0.000 C 
BRANCH  45  49
ATOM     49  O   UNL     1      17.560  12.794  69.491  0.00  0.00    +0.000 OA
ATOM     50  H   UNL     1      18.472  13.133  69.463  0.00  0.00    +0.000 HD
ENDBRANCH  45  49
ENDBRANCH  38  40
ENDBRANCH  37  38
ENDBRANCH  34  37
ENDBRANCH  33  34
ENDBRANCH  31  33
ENDBRANCH  29  32
ENDBRANCH  28  29
ENDBRANCH   1  28
TORSDOF 19
ENDMDL
MODEL 3
REMARK VINA RESULT:      -4.4      8.958     13.574
REMARK  Name = 5281239_Fucoxanthin.pdbqt.pdb
REMARK  19 active torsions:
REMARK  status: ('A' for Active; 'I' for Inactive)
REMARK    1  A    between atoms: C_1  and  C_5
REMARK    2  A    between atoms: C_2  and  C_26
REMARK    3  A    between atoms: C_3  and  C_5
REMARK    4  A    between atoms: C_3  and  C_7
REMARK    5  A    between atoms: C_6  and  C_10
REMARK    6  A    between atoms: C_8  and  C_10
REMARK    7  A    between atoms: C_8  and  C_12
REMARK    8  A    between atoms: C_12  and  C_13
REMARK    9  A    between atoms: C_13  and  C_15
REMARK   10  A    between atoms: C_20  and  O_24
REMARK   11  A    between atoms: C_26  and  C_27
REMARK   12  A    between atoms: C_27  and  C_30
REMARK   13  A    between atoms: C_29  and  C_33
REMARK   14  A    between atoms: C_31  and  C_33
REMARK   15  A    between atoms: C_31  and  C_44
REMARK   16  A    between atoms: C_35  and  O_45
REMARK   17  A    between atoms: C_37  and  O_47
REMARK   18  A    between atoms: C_39  and  C_43
REMARK   19  A    between atoms: O_47  and  C_49
REMARK                            x       y       z     vdW  Elec       q    Type
REMARK                         _______ _______ _______ _____ _____    ______ ____
ROOT
ATOM      1  C   UNL     1      14.014  11.994  60.534  0.00  0.00    +0.000 C 
ATOM      2  C   UNL     1      12.919  12.328  60.892  0.00  0.00    +0.000 C 
ENDROOT
BRANCH   2   3
ATOM      3  C   UNL     1      11.516  12.752  61.343  0.00  0.00    +0.000 C 
BRANCH   3   4
ATOM      4  C   UNL     1      10.331  13.114  61.723  0.00  0.00    +0.000 C 
ATOM      5  C   UNL     1       9.273  13.400  60.701  0.00  0.00    +0.000 C 
BRANCH   4   7
ATOM      6  C   UNL     1       9.764  13.257  64.273  0.00  0.00    +0.000 C 
ATOM      7  C   UNL     1      10.024  13.189  63.102  0.00  0.00    +0.000 C 
BRANCH   6   8
ATOM      8  C   UNL     1       9.430  13.346  65.766  0.00  0.00    +0.000 C 
BRANCH   8   9
ATOM      9  C   UNL     1       9.157  13.422  67.032  0.00  0.00    +0.000 C 
ATOM     10  C   UNL     1       7.986  14.227  67.504  0.00  0.00    +0.000 C 
BRANCH   9  12
ATOM     11  C   UNL     1      10.781  12.346  68.783  0.00  0.00    +0.000 C 
ATOM     12  C   UNL     1      10.035  12.837  67.978  0.00  0.00    +0.000 C 
BRANCH  11  18
ATOM     13  C   UNL     1      11.228  11.651  71.149  0.00  0.00    +0.000 C 
ATOM     14  C   UNL     1      13.002  11.367  69.267  0.00  0.00    +0.000 C 
ATOM     15  C   UNL     1      12.175  10.770  71.846  0.00  0.00    +0.000 C 
ATOM     16  C   UNL     1      13.383  10.092  71.596  0.00  0.00    +0.000 C 
ATOM     17  C   UNL     1      13.621  10.509  70.271  0.00  0.00    +0.000 C 
ATOM     18  C   UNL     1      11.602  11.810  69.665  0.00  0.00    +0.000 C 
ATOM     19  C   UNL     1      11.226  13.056  71.811  0.00  0.00    +0.000 C 
ATOM     20  C   UNL     1       9.808  11.015  71.252  0.00  0.00    +0.000 C 
ATOM     21  C   UNL     1      13.886  12.576  68.944  0.00  0.00    +0.000 C 
BRANCH  14  22
ATOM     22  O   UNL     1      12.931  10.636  68.064  0.00  0.00    +0.000 OA
ATOM     23  H   UNL     1      13.663  10.003  68.179  0.00  0.00    +0.000 HD
ENDBRANCH  14  22
BRANCH  16  24
ATOM     24  O   UNL     1      14.397  10.146  72.543  0.00  0.00    +0.000 OA
BRANCH  24  26
ATOM     25  O   UNL     1      14.741  12.464  72.654  0.00  0.00    +0.000 OA
ATOM     26  C   UNL     1      15.075  11.315  72.431  0.00  0.00    +0.000 C 
ATOM     27  C   UNL     1      16.470  11.165  71.936  0.00  0.00    +0.000 C 
ENDBRANCH  24  26
ENDBRANCH  16  24
ENDBRANCH  11  18
ENDBRANCH   9  12
ENDBRANCH   8   9
ENDBRANCH   6   8
ENDBRANCH   4   7
ENDBRANCH   3   4
ENDBRANCH   2   3
BRANCH   1  28
ATOM     28  C   UNL     1      15.410  11.564  60.068  0.00  0.00    +0.000 C 
BRANCH  28  29
ATOM     29  C   UNL     1      16.592  11.197  59.684  0.00  0.00    +0.000 C 
ATOM     30  C   UNL     1      17.127  11.657  58.362  0.00  0.00    +0.000 C 
BRANCH  29  32
ATOM     31  C   UNL     1      18.021   9.601  61.186  0.00  0.00    +0.000 C 
ATOM     32  C   UNL     1      17.359  10.331  60.499  0.00  0.00    +0.000 C 
BRANCH  31  33
ATOM     33  C   UNL     1      18.881   8.676  62.056  0.00  0.00    +0.000 C 
BRANCH  33  34
ATOM     34  C   UNL     1      19.611   7.899  62.799  0.00  0.00    +0.000 C 
ATOM     35  C   UNL     1      20.822   7.267  62.144  0.00  0.00    +0.000 C 
BRANCH  34  37
ATOM     36  O   UNL     1      19.300   6.506  64.716  0.00  0.00    +0.000 OA
ATOM     37  C   UNL     1      19.222   7.624  64.217  0.00  0.00    +0.000 C 
BRANCH  37  38
ATOM     38  C   UNL     1      18.734   8.681  65.071  0.00  0.00    +0.000 C 
BRANCH  38  40
ATOM     39  O   UNL     1      16.819   9.641  66.098  0.00  0.00    +0.000 OA
ATOM     40  C   UNL     1      18.255   9.766  65.906  0.00  0.00    +0.000 C 
ATOM     41  C   UNL     1      17.607   9.439  67.269  0.00  0.00    +0.000 C 
ATOM     42  C   UNL     1      18.809  11.218  65.681  0.00  0.00    +0.000 C 
ATOM     43  C   UNL     1      17.472  10.511  68.201  0.00  0.00    +0.000 C 
ATOM     44  C   UNL     1      18.387  12.020  66.832  0.00  0.00    +0.000 C 
ATOM     45  C   UNL     1      17.794  11.876  68.101  0.00  0.00    +0.000 C 
ATOM     46  C   UNL     1      17.513   8.016  67.826  0.00  0.00    +0.000 C 
ATOM     47  C   UNL     1      20.350  11.071  65.638  0.00  0.00    +0.000 C 
ATOM     48  C   UNL     1      18.223  11.692  64.333  0.00  0.00    +0.000 C 
BRANCH  45  49
ATOM     49  O   UNL     1      18.208  12.616  69.167  0.00  0.00    +0.000 OA
ATOM     50  H   UNL     1      18.478  13.516  68.912  0.00  0.00    +0.000 HD
ENDBRANCH  45  49
ENDBRANCH  38  40
ENDBRANCH  37  38
ENDBRANCH  34  37
ENDBRANCH  33  34
ENDBRANCH  31  33
ENDBRANCH  29  32
ENDBRANCH  28  29
ENDBRANCH   1  28
TORSDOF 19
ENDMDL
MODEL 4
REMARK VINA RESULT:      -4.4      6.417     13.822
REMARK  Name = 5281239_Fucoxanthin.pdbqt.pdb
REMARK  19 active torsions:
REMARK  status: ('A' for Active; 'I' for Inactive)
REMARK    1  A    between atoms: C_1  and  C_5
REMARK    2  A    between atoms: C_2  and  C_26
REMARK    3  A    between atoms: C_3  and  C_5
REMARK    4  A    between atoms: C_3  and  C_7
REMARK    5  A    between atoms: C_6  and  C_10
REMARK    6  A    between atoms: C_8  and  C_10
REMARK    7  A    between atoms: C_8  and  C_12
REMARK    8  A    between atoms: C_12  and  C_13
REMARK    9  A    between atoms: C_13  and  C_15
REMARK   10  A    between atoms: C_20  and  O_24
REMARK   11  A    between atoms: C_26  and  C_27
REMARK   12  A    between atoms: C_27  and  C_30
REMARK   13  A    between atoms: C_29  and  C_33
REMARK   14  A    between atoms: C_31  and  C_33
REMARK   15  A    between atoms: C_31  and  C_44
REMARK   16  A    between atoms: C_35  and  O_45
REMARK   17  A    between atoms: C_37  and  O_47
REMARK   18  A    between atoms: C_39  and  C_43
REMARK   19  A    between atoms: O_47  and  C_49
REMARK                            x       y       z     vdW  Elec       q    Type
REMARK                         _______ _______ _______ _____ _____    ______ ____
ROOT
ATOM      1  C   UNL     1      18.367   9.629  57.172  0.00  0.00    +0.000 C 
ATOM      2  C   UNL     1      18.709   9.431  56.039  0.00  0.00    +0.000 C 
ENDROOT
BRANCH   2   3
ATOM      3  C   UNL     1      19.143   9.172  54.592  0.00  0.00    +0.000 C 
BRANCH   3   4
ATOM      4  C   UNL     1      19.512   8.950  53.369  0.00  0.00    +0.000 C 
ATOM      5  C   UNL     1      20.366   9.951  52.652  0.00  0.00    +0.000 C 
BRANCH   4   7
ATOM      6  C   UNL     1      18.843   6.713  52.189  0.00  0.00    +0.000 C 
ATOM      7  C   UNL     1      19.151   7.739  52.732  0.00  0.00    +0.000 C 
BRANCH   6   8
ATOM      8  C   UNL     1      18.449   5.405  51.492  0.00  0.00    +0.000 C 
BRANCH   8   9
ATOM      9  C   UNL     1      18.125   4.300  50.897  0.00  0.00    +0.000 C 
ATOM     10  C   UNL     1      17.926   4.274  49.413  0.00  0.00    +0.000 C 
BRANCH   9  12
ATOM     11  C   UNL     1      17.612   2.157  52.313  0.00  0.00    +0.000 C 
ATOM     12  C   UNL     1      17.845   3.142  51.665  0.00  0.00    +0.000 C 
BRANCH  11  18
ATOM     13  C   UNL     1      18.457   0.272  53.732  0.00  0.00    +0.000 C 
ATOM     14  C   UNL     1      15.940   0.523  53.124  0.00  0.00    +0.000 C 
ATOM     15  C   UNL     1      17.885  -0.693  54.681  0.00  0.00    +0.000 C 
ATOM     16  C   UNL     1      16.626  -1.182  55.078  0.00  0.00    +0.000 C 
ATOM     17  C   UNL     1      15.800  -0.454  54.197  0.00  0.00    +0.000 C 
ATOM     18  C   UNL     1      17.353   1.074  53.020  0.00  0.00    +0.000 C 
ATOM     19  C   UNL     1      19.297  -0.472  52.660  0.00  0.00    +0.000 C 
ATOM     20  C   UNL     1      19.367   1.255  54.531  0.00  0.00    +0.000 C 
ATOM     21  C   UNL     1      15.479  -0.053  51.781  0.00  0.00    +0.000 C 
BRANCH  14  22
ATOM     22  O   UNL     1      15.048   1.582  53.390  0.00  0.00    +0.000 OA
ATOM     23  H   UNL     1      14.534   1.219  54.134  0.00  0.00    +0.000 HD
ENDBRANCH  14  22
BRANCH  16  24
ATOM     24  O   UNL     1      16.451  -2.551  55.237  0.00  0.00    +0.000 OA
BRANCH  24  26
ATOM     25  O   UNL     1      16.171  -2.149  57.531  0.00  0.00    +0.000 OA
ATOM     26  C   UNL     1      16.344  -2.854  56.554  0.00  0.00    +0.000 C 
ATOM     27  C   UNL     1      16.471  -4.306  56.857  0.00  0.00    +0.000 C 
ENDBRANCH  24  26
ENDBRANCH  16  24
ENDBRANCH  11  18
ENDBRANCH   9  12
ENDBRANCH   8   9
ENDBRANCH   6   8
ENDBRANCH   4   7
ENDBRANCH   3   4
ENDBRANCH   2   3
BRANCH   1  28
ATOM     28  C   UNL     1      17.924   9.872  58.619  0.00  0.00    +0.000 C 
BRANCH  28  29
ATOM     29  C   UNL     1      17.540  10.071  59.841  0.00  0.00    +0.000 C 
ATOM     30  C   UNL     1      16.462  11.070  60.135  0.00  0.00    +0.000 C 
BRANCH  29  32
ATOM     31  C   UNL     1      18.690   8.778  61.803  0.00  0.00    +0.000 C 
ATOM     32  C   UNL     1      18.169   9.372  60.898  0.00  0.00    +0.000 C 
BRANCH  31  33
ATOM     33  C   UNL     1      19.342   8.021  62.966  0.00  0.00    +0.000 C 
BRANCH  33  34
ATOM     34  C   UNL     1      19.896   7.387  63.957  0.00  0.00    +0.000 C 
ATOM     35  C   UNL     1      21.205   7.945  64.477  0.00  0.00    +0.000 C 
BRANCH  34  37
ATOM     36  O   UNL     1      19.068   5.150  63.812  0.00  0.00    +0.000 OA
ATOM     37  C   UNL     1      19.272   6.143  64.504  0.00  0.00    +0.000 C 
BRANCH  37  38
ATOM     38  C   UNL     1      18.880   6.057  65.890  0.00  0.00    +0.000 C 
BRANCH  38  40
ATOM     39  O   UNL     1      17.042   6.250  67.383  0.00  0.00    +0.000 OA
ATOM     40  C   UNL     1      18.471   6.001  67.281  0.00  0.00    +0.000 C 
ATOM     41  C   UNL     1      17.454   4.928  67.725  0.00  0.00    +0.000 C 
ATOM     42  C   UNL     1      19.378   6.660  68.381  0.00  0.00    +0.000 C 
ATOM     43  C   UNL     1      17.343   4.675  69.126  0.00  0.00    +0.000 C 
ATOM     44  C   UNL     1      18.882   6.196  69.678  0.00  0.00    +0.000 C 
ATOM     45  C   UNL     1      17.980   5.265  70.231  0.00  0.00    +0.000 C 
ATOM     46  C   UNL     1      16.906   3.857  66.778  0.00  0.00    +0.000 C 
ATOM     47  C   UNL     1      20.808   6.132  68.109  0.00  0.00    +0.000 C 
ATOM     48  C   UNL     1      19.262   8.186  68.170  0.00  0.00    +0.000 C 
BRANCH  45  49
ATOM     49  O   UNL     1      18.278   4.574  71.365  0.00  0.00    +0.000 OA
ATOM     50  H   UNL     1      19.146   4.819  71.732  0.00  0.00    +0.000 HD
ENDBRANCH  45  49
ENDBRANCH  38  40
ENDBRANCH  37  38
ENDBRANCH  34  37
ENDBRANCH  33  34
ENDBRANCH  31  33
ENDBRANCH  29  32
ENDBRANCH  28  29
ENDBRANCH   1  28
TORSDOF 19
ENDMDL
MODEL 5
REMARK VINA RESULT:      -4.4      6.702     12.400
REMARK  Name = 5281239_Fucoxanthin.pdbqt.pdb
REMARK  19 active torsions:
REMARK  status: ('A' for Active; 'I' for Inactive)
REMARK    1  A    between atoms: C_1  and  C_5
REMARK    2  A    between atoms: C_2  and  C_26
REMARK    3  A    between atoms: C_3  and  C_5
REMARK    4  A    between atoms: C_3  and  C_7
REMARK    5  A    between atoms: C_6  and  C_10
REMARK    6  A    between atoms: C_8  and  C_10
REMARK    7  A    between atoms: C_8  and  C_12
REMARK    8  A    between atoms: C_12  and  C_13
REMARK    9  A    between atoms: C_13  and  C_15
REMARK   10  A    between atoms: C_20  and  O_24
REMARK   11  A    between atoms: C_26  and  C_27
REMARK   12  A    between atoms: C_27  and  C_30
REMARK   13  A    between atoms: C_29  and  C_33
REMARK   14  A    between atoms: C_31  and  C_33
REMARK   15  A    between atoms: C_31  and  C_44
REMARK   16  A    between atoms: C_35  and  O_45
REMARK   17  A    between atoms: C_37  and  O_47
REMARK   18  A    between atoms: C_39  and  C_43
REMARK   19  A    between atoms: O_47  and  C_49
REMARK                            x       y       z     vdW  Elec       q    Type
REMARK                         _______ _______ _______ _____ _____    ______ ____
ROOT
ATOM      1  C   UNL     1      14.135  11.542  54.926  0.00  0.00    +0.000 C 
ATOM      2  C   UNL     1      15.151  10.948  54.694  0.00  0.00    +0.000 C 
ENDROOT
BRANCH   2   3
ATOM      3  C   UNL     1      16.454  10.193  54.404  0.00  0.00    +0.000 C 
BRANCH   3   4
ATOM      4  C   UNL     1      17.554   9.551  54.162  0.00  0.00    +0.000 C 
ATOM      5  C   UNL     1      17.890   9.147  52.759  0.00  0.00    +0.000 C 
BRANCH   4   7
ATOM      6  C   UNL     1      19.224   9.048  56.112  0.00  0.00    +0.000 C 
ATOM      7  C   UNL     1      18.459   9.280  55.216  0.00  0.00    +0.000 C 
BRANCH   6   8
ATOM      8  C   UNL     1      20.199   8.747  57.256  0.00  0.00    +0.000 C 
BRANCH   8   9
ATOM      9  C   UNL     1      21.024   8.483  58.221  0.00  0.00    +0.000 C 
ATOM     10  C   UNL     1      22.335   7.818  57.932  0.00  0.00    +0.000 C 
BRANCH   9  12
ATOM     11  C   UNL     1      20.301   8.920  60.701  0.00  0.00    +0.000 C 
ATOM     12  C   UNL     1      20.634   8.717  59.563  0.00  0.00    +0.000 C 
BRANCH  11  18
ATOM     13  C   UNL     1      19.365  10.500  62.406  0.00  0.00    +0.000 C 
ATOM     14  C   UNL     1      20.120   8.089  63.024  0.00  0.00    +0.000 C 
ATOM     15  C   UNL     1      18.768  10.400  63.745  0.00  0.00    +0.000 C 
ATOM     16  C   UNL     1      18.638   9.463  64.788  0.00  0.00    +0.000 C 
ATOM     17  C   UNL     1      19.365   8.389  64.236  0.00  0.00    +0.000 C 
ATOM     18  C   UNL     1      19.937   9.147  61.948  0.00  0.00    +0.000 C 
ATOM     19  C   UNL     1      20.513  11.545  62.414  0.00  0.00    +0.000 C 
ATOM     20  C   UNL     1      18.250  10.945  61.411  0.00  0.00    +0.000 C 
ATOM     21  C   UNL     1      21.605   7.871  63.331  0.00  0.00    +0.000 C 
BRANCH  14  22
ATOM     22  O   UNL     1      19.665   6.847  62.534  0.00  0.00    +0.000 OA
ATOM     23  H   UNL     1      20.311   6.670  61.826  0.00  0.00    +0.000 HD
ENDBRANCH  14  22
BRANCH  16  24
ATOM     24  O   UNL     1      18.869   9.870  66.095  0.00  0.00    +0.000 OA
BRANCH  24  26
ATOM     25  O   UNL     1      16.642   9.307  66.573  0.00  0.00    +0.000 OA
ATOM     26  C   UNL     1      17.711   9.844  66.801  0.00  0.00    +0.000 C 
ATOM     27  C   UNL     1      17.754  10.617  68.071  0.00  0.00    +0.000 C 
ENDBRANCH  24  26
ENDBRANCH  16  24
ENDBRANCH  11  18
ENDBRANCH   9  12
ENDBRANCH   8   9
ENDBRANCH   6   8
ENDBRANCH   4   7
ENDBRANCH   3   4
ENDBRANCH   2   3
BRANCH   1  28
ATOM     28  C   UNL     1      12.841  12.305  55.230  0.00  0.00    +0.000 C 
BRANCH  28  29
ATOM     29  C   UNL     1      11.750  12.952  55.498  0.00  0.00    +0.000 C 
ATOM     30  C   UNL     1      11.082  13.768  54.434  0.00  0.00    +0.000 C 
BRANCH  29  32
ATOM     31  C   UNL     1      10.773  12.880  57.924  0.00  0.00    +0.000 C 
ATOM     32  C   UNL     1      11.215  12.915  56.808  0.00  0.00    +0.000 C 
BRANCH  31  33
ATOM     33  C   UNL     1      10.223  12.829  59.355  0.00  0.00    +0.000 C 
BRANCH  33  34
ATOM     34  C   UNL     1       9.749  12.790  60.564  0.00  0.00    +0.000 C 
ATOM     35  C   UNL     1       8.247  12.641  60.705  0.00  0.00    +0.000 C 
BRANCH  34  37
ATOM     36  O   UNL     1      10.302  12.685  62.887  0.00  0.00    +0.000 OA
ATOM     37  C   UNL     1      10.662  12.934  61.740  0.00  0.00    +0.000 C 
BRANCH  37  38
ATOM     38  C   UNL     1      12.026  13.374  61.572  0.00  0.00    +0.000 C 
BRANCH  38  40
ATOM     39  O   UNL     1      14.323  12.805  61.777  0.00  0.00    +0.000 OA
ATOM     40  C   UNL     1      13.385  13.849  61.396  0.00  0.00    +0.000 C 
ATOM     41  C   UNL     1      14.309  13.132  60.389  0.00  0.00    +0.000 C 
ATOM     42  C   UNL     1      13.754  15.314  61.824  0.00  0.00    +0.000 C 
ATOM     43  C   UNL     1      15.494  13.819  59.986  0.00  0.00    +0.000 C 
ATOM     44  C   UNL     1      15.077  15.602  61.264  0.00  0.00    +0.000 C 
ATOM     45  C   UNL     1      16.024  15.062  60.373  0.00  0.00    +0.000 C 
ATOM     46  C   UNL     1      13.836  11.979  59.499  0.00  0.00    +0.000 C 
ATOM     47  C   UNL     1      12.670  16.216  61.187  0.00  0.00    +0.000 C 
ATOM     48  C   UNL     1      13.705  15.331  63.368  0.00  0.00    +0.000 C 
BRANCH  45  49
ATOM     49  O   UNL     1      16.737  15.855  59.527  0.00  0.00    +0.000 OA
ATOM     50  H   UNL     1      17.666  15.953  59.803  0.00  0.00    +0.000 HD
ENDBRANCH  45  49
ENDBRANCH  38  40
ENDBRANCH  37  38
ENDBRANCH  34  37
ENDBRANCH  33  34
ENDBRANCH  31  33
ENDBRANCH  29  32
ENDBRANCH  28  29
ENDBRANCH   1  28
TORSDOF 19
ENDMDL
MODEL 6
REMARK VINA RESULT:      -4.4      6.410     13.954
REMARK  Name = 5281239_Fucoxanthin.pdbqt.pdb
REMARK  19 active torsions:
REMARK  status: ('A' for Active; 'I' for Inactive)
REMARK    1  A    between atoms: C_1  and  C_5
REMARK    2  A    between atoms: C_2  and  C_26
REMARK    3  A    between atoms: C_3  and  C_5
REMARK    4  A    between atoms: C_3  and  C_7
REMARK    5  A    between atoms: C_6  and  C_10
REMARK    6  A    between atoms: C_8  and  C_10
REMARK    7  A    between atoms: C_8  and  C_12
REMARK    8  A    between atoms: C_12  and  C_13
REMARK    9  A    between atoms: C_13  and  C_15
REMARK   10  A    between atoms: C_20  and  O_24
REMARK   11  A    between atoms: C_26  and  C_27
REMARK   12  A    between atoms: C_27  and  C_30
REMARK   13  A    between atoms: C_29  and  C_33
REMARK   14  A    between atoms: C_31  and  C_33
REMARK   15  A    between atoms: C_31  and  C_44
REMARK   16  A    between atoms: C_35  and  O_45
REMARK   17  A    between atoms: C_37  and  O_47
REMARK   18  A    between atoms: C_39  and  C_43
REMARK   19  A    between atoms: O_47  and  C_49
REMARK                            x       y       z     vdW  Elec       q    Type
REMARK                         _______ _______ _______ _____ _____    ______ ____
ROOT
ATOM      1  C   UNL     1      19.604   9.186  57.725  0.00  0.00    +0.000 C 
ATOM      2  C   UNL     1      20.198   8.921  56.716  0.00  0.00    +0.000 C 
ENDROOT
BRANCH   2   3
ATOM      3  C   UNL     1      20.955   8.576  55.429  0.00  0.00    +0.000 C 
BRANCH   3   4
ATOM      4  C   UNL     1      21.594   8.280  54.341  0.00  0.00    +0.000 C 
ATOM      5  C   UNL     1      22.855   9.010  53.992  0.00  0.00    +0.000 C 
BRANCH   4   7
ATOM      6  C   UNL     1      20.733   6.344  52.806  0.00  0.00    +0.000 C 
ATOM      7  C   UNL     1      21.127   7.233  53.510  0.00  0.00    +0.000 C 
BRANCH   6   8
ATOM      8  C   UNL     1      20.234   5.205  51.909  0.00  0.00    +0.000 C 
BRANCH   8   9
ATOM      9  C   UNL     1      19.807   4.238  51.159  0.00  0.00    +0.000 C 
ATOM     10  C   UNL     1      20.024   4.280  49.677  0.00  0.00    +0.000 C 
BRANCH   9  12
ATOM     11  C   UNL     1      18.378   2.311  52.213  0.00  0.00    +0.000 C 
ATOM     12  C   UNL     1      19.032   3.196  51.726  0.00  0.00    +0.000 C 
BRANCH  11  18
ATOM     13  C   UNL     1      18.300   0.215  53.584  0.00  0.00    +0.000 C 
ATOM     14  C   UNL     1      16.166   1.243  52.508  0.00  0.00    +0.000 C 
ATOM     15  C   UNL     1      17.277  -0.558  54.300  0.00  0.00    +0.000 C 
ATOM     16  C   UNL     1      15.874  -0.650  54.386  0.00  0.00    +0.000 C 
ATOM     17  C   UNL     1      15.513   0.322  53.432  0.00  0.00    +0.000 C 
ATOM     18  C   UNL     1      17.665   1.338  52.745  0.00  0.00    +0.000 C 
ATOM     19  C   UNL     1      19.102  -0.716  52.636  0.00  0.00    +0.000 C 
ATOM     20  C   UNL     1      19.257   0.847  54.640  0.00  0.00    +0.000 C 
ATOM     21  C   UNL     1      15.866   0.878  51.051  0.00  0.00    +0.000 C 
BRANCH  14  22
ATOM     22  O   UNL     1      15.587   2.515  52.690  0.00  0.00    +0.000 OA
ATOM     23  H   UNL     1      15.028   2.589  51.895  0.00  0.00    +0.000 HD
ENDBRANCH  14  22
BRANCH  16  24
ATOM     24  O   UNL     1      15.277  -1.904  54.374  0.00  0.00    +0.000 OA
BRANCH  24  26
ATOM     25  O   UNL     1      15.662  -3.276  56.238  0.00  0.00    +0.000 OA
ATOM     26  C   UNL     1      15.127  -2.359  55.642  0.00  0.00    +0.000 C 
ATOM     27  C   UNL     1      14.121  -1.609  56.443  0.00  0.00    +0.000 C 
ENDBRANCH  24  26
ENDBRANCH  16  24
ENDBRANCH  11  18
ENDBRANCH   9  12
ENDBRANCH   8   9
ENDBRANCH   6   8
ENDBRANCH   4   7
ENDBRANCH   3   4
ENDBRANCH   2   3
BRANCH   1  28
ATOM     28  C   UNL     1      18.843   9.514  59.015  0.00  0.00    +0.000 C 
BRANCH  28  29
ATOM     29  C   UNL     1      18.191   9.787  60.100  0.00  0.00    +0.000 C 
ATOM     30  C   UNL     1      17.084  10.798  60.075  0.00  0.00    +0.000 C 
BRANCH  29  32
ATOM     31  C   UNL     1      18.849   8.633  62.354  0.00  0.00    +0.000 C 
ATOM     32  C   UNL     1      18.551   9.158  61.315  0.00  0.00    +0.000 C 
BRANCH  31  33
ATOM     33  C   UNL     1      19.221   7.975  63.688  0.00  0.00    +0.000 C 
BRANCH  33  34
ATOM     34  C   UNL     1      19.542   7.412  64.815  0.00  0.00    +0.000 C 
ATOM     35  C   UNL     1      20.276   6.089  64.732  0.00  0.00    +0.000 C 
BRANCH  34  37
ATOM     36  O   UNL     1      19.443   9.199  66.398  0.00  0.00    +0.000 OA
ATOM     37  C   UNL     1      19.152   8.041  66.114  0.00  0.00    +0.000 C 
BRANCH  37  38
ATOM     38  C   UNL     1      18.401   7.302  67.101  0.00  0.00    +0.000 C 
BRANCH  38  40
ATOM     39  O   UNL     1      17.768   7.224  69.389  0.00  0.00    +0.000 OA
ATOM     40  C   UNL     1      17.677   6.547  68.105  0.00  0.00    +0.000 C 
ATOM     41  C   UNL     1      16.466   7.196  68.809  0.00  0.00    +0.000 C 
ATOM     42  C   UNL     1      17.793   4.981  68.129  0.00  0.00    +0.000 C 
ATOM     43  C   UNL     1      15.580   6.328  69.515  0.00  0.00    +0.000 C 
ATOM     44  C   UNL     1      16.747   4.488  69.029  0.00  0.00    +0.000 C 
ATOM     45  C   UNL     1      15.618   4.941  69.737  0.00  0.00    +0.000 C 
ATOM     46  C   UNL     1      15.935   8.584  68.441  0.00  0.00    +0.000 C 
ATOM     47  C   UNL     1      17.535   4.525  66.672  0.00  0.00    +0.000 C 
ATOM     48  C   UNL     1      19.230   4.668  68.601  0.00  0.00    +0.000 C 
BRANCH  45  49
ATOM     49  O   UNL     1      14.493   4.180  69.843  0.00  0.00    +0.000 OA
ATOM     50  H   UNL     1      13.691   4.665  69.579  0.00  0.00    +0.000 HD
ENDBRANCH  45  49
ENDBRANCH  38  40
ENDBRANCH  37  38
ENDBRANCH  34  37
ENDBRANCH  33  34
ENDBRANCH  31  33
ENDBRANCH  29  32
ENDBRANCH  28  29
ENDBRANCH   1  28
TORSDOF 19
ENDMDL
MODEL 7
REMARK VINA RESULT:      -4.2      3.146      6.903
REMARK  Name = 5281239_Fucoxanthin.pdbqt.pdb
REMARK  19 active torsions:
REMARK  status: ('A' for Active; 'I' for Inactive)
REMARK    1  A    between atoms: C_1  and  C_5
REMARK    2  A    between atoms: C_2  and  C_26
REMARK    3  A    between atoms: C_3  and  C_5
REMARK    4  A    between atoms: C_3  and  C_7
REMARK    5  A    between atoms: C_6  and  C_10
REMARK    6  A    between atoms: C_8  and  C_10
REMARK    7  A    between atoms: C_8  and  C_12
REMARK    8  A    between atoms: C_12  and  C_13
REMARK    9  A    between atoms: C_13  and  C_15
REMARK   10  A    between atoms: C_20  and  O_24
REMARK   11  A    between atoms: C_26  and  C_27
REMARK   12  A    between atoms: C_27  and  C_30
REMARK   13  A    between atoms: C_29  and  C_33
REMARK   14  A    between atoms: C_31  and  C_33
REMARK   15  A    between atoms: C_31  and  C_44
REMARK   16  A    between atoms: C_35  and  O_45
REMARK   17  A    between atoms: C_37  and  O_47
REMARK   18  A    between atoms: C_39  and  C_43
REMARK   19  A    between atoms: O_47  and  C_49
REMARK                            x       y       z     vdW  Elec       q    Type
REMARK                         _______ _______ _______ _____ _____    ______ ____
ROOT
ATOM      1  C   UNL     1      18.927   9.448  58.207  0.00  0.00    +0.000 C 
ATOM      2  C   UNL     1      18.138   9.789  59.045  0.00  0.00    +0.000 C 
ENDROOT
BRANCH   2   3
ATOM      3  C   UNL     1      17.136  10.226  60.121  0.00  0.00    +0.000 C 
BRANCH   3   4
ATOM      4  C   UNL     1      16.287  10.593  61.028  0.00  0.00    +0.000 C 
ATOM      5  C   UNL     1      16.629  10.442  62.479  0.00  0.00    +0.000 C 
BRANCH   4   7
ATOM      6  C   UNL     1      14.014  11.683  60.325  0.00  0.00    +0.000 C 
ATOM      7  C   UNL     1      15.058  11.183  60.646  0.00  0.00    +0.000 C 
BRANCH   6   8
ATOM      8  C   UNL     1      12.681  12.323  59.920  0.00  0.00    +0.000 C 
BRANCH   8   9
ATOM      9  C   UNL     1      11.552  12.865  59.588  0.00  0.00    +0.000 C 
ATOM     10  C   UNL     1      11.512  13.956  58.561  0.00  0.00    +0.000 C 
BRANCH   9  12
ATOM     11  C   UNL     1       9.366  12.198  60.869  0.00  0.00    +0.000 C 
ATOM     12  C   UNL     1      10.368  12.507  60.280  0.00  0.00    +0.000 C 
BRANCH  11  18
ATOM     13  C   UNL     1       7.211  10.920  60.898  0.00  0.00    +0.000 C 
ATOM     14  C   UNL     1       7.955  12.419  62.890  0.00  0.00    +0.000 C 
ATOM     15  C   UNL     1       6.251  10.462  61.912  0.00  0.00    +0.000 C 
ATOM     16  C   UNL     1       5.939  10.690  63.267  0.00  0.00    +0.000 C 
ATOM     17  C   UNL     1       6.896  11.681  63.568  0.00  0.00    +0.000 C 
ATOM     18  C   UNL     1       8.267  11.855  61.512  0.00  0.00    +0.000 C 
ATOM     19  C   UNL     1       6.467  11.686  59.771  0.00  0.00    +0.000 C 
ATOM     20  C   UNL     1       7.923   9.666  60.306  0.00  0.00    +0.000 C 
ATOM     21  C   UNL     1       7.629  13.913  62.807  0.00  0.00    +0.000 C 
BRANCH  14  22
ATOM     22  O   UNL     1       9.112  12.344  63.693  0.00  0.00    +0.000 OA
ATOM     23  H   UNL     1       8.730  12.113  64.560  0.00  0.00    +0.000 HD
ENDBRANCH  14  22
BRANCH  16  24
ATOM     24  O   UNL     1       4.612  10.859  63.636  0.00  0.00    +0.000 OA
BRANCH  24  26
ATOM     25  O   UNL     1       3.374  11.168  61.667  0.00  0.00    +0.000 OA
ATOM     26  C   UNL     1       3.946  11.544  62.674  0.00  0.00    +0.000 C 
ATOM     27  C   UNL     1       3.922  13.017  62.882  0.00  0.00    +0.000 C 
ENDBRANCH  24  26
ENDBRANCH  16  24
ENDBRANCH  11  18
ENDBRANCH   9  12
ENDBRANCH   8   9
ENDBRANCH   6   8
ENDBRANCH   4   7
ENDBRANCH   3   4
ENDBRANCH   2   3
BRANCH   1  28
ATOM     28  C   UNL     1      19.942   9.013  57.144  0.00  0.00    +0.000 C 
BRANCH  28  29
ATOM     29  C   UNL     1      20.792   8.649  56.237  0.00  0.00    +0.000 C 
ATOM     30  C   UNL     1      22.260   8.670  56.535  0.00  0.00    +0.000 C 
BRANCH  29  32
ATOM     31  C   UNL     1      19.956   7.944  53.860  0.00  0.00    +0.000 C 
ATOM     32  C   UNL     1      20.332   8.268  54.954  0.00  0.00    +0.000 C 
BRANCH  31  33
ATOM     33  C   UNL     1      19.491   7.530  52.459  0.00  0.00    +0.000 C 
BRANCH  33  34
ATOM     34  C   UNL     1      19.096   7.171  51.274  0.00  0.00    +0.000 C 
ATOM     35  C   UNL     1      19.494   8.068  50.120  0.00  0.00    +0.000 C 
BRANCH  34  37
ATOM     36  O   UNL     1      17.097   6.003  50.681  0.00  0.00    +0.000 OA
ATOM     37  C   UNL     1      18.250   5.950  51.096  0.00  0.00    +0.000 C 
BRANCH  37  38
ATOM     38  C   UNL     1      18.766   4.638  51.406  0.00  0.00    +0.000 C 
BRANCH  38  40
ATOM     39  O   UNL     1      20.572   3.121  51.122  0.00  0.00    +0.000 OA
ATOM     40  C   UNL     1      19.277   3.326  51.752  0.00  0.00    +0.000 C 
ATOM     41  C   UNL     1      20.597   3.216  52.545  0.00  0.00    +0.000 C 
ATOM     42  C   UNL     1      18.302   2.094  51.766  0.00  0.00    +0.000 C 
ATOM     43  C   UNL     1      20.885   1.962  53.163  0.00  0.00    +0.000 C 
ATOM     44  C   UNL     1      19.011   0.995  52.426  0.00  0.00    +0.000 C 
ATOM     45  C   UNL     1      20.187   0.741  53.158  0.00  0.00    +0.000 C 
ATOM     46  C   UNL     1      21.364   4.437  53.059  0.00  0.00    +0.000 C 
ATOM     47  C   UNL     1      17.077   2.547  52.597  0.00  0.00    +0.000 C 
ATOM     48  C   UNL     1      17.945   1.818  50.289  0.00  0.00    +0.000 C 
BRANCH  45  49
ATOM     49  O   UNL     1      20.194  -0.116  54.216  0.00  0.00    +0.000 OA
ATOM     50  H   UNL     1      19.818   0.284  55.021  0.00  0.00    +0.000 HD
ENDBRANCH  45  49
ENDBRANCH  38  40
ENDBRANCH  37  38
ENDBRANCH  34  37
ENDBRANCH  33  34
ENDBRANCH  31  33
ENDBRANCH  29  32
ENDBRANCH  28  29
ENDBRANCH   1  28
TORSDOF 19
ENDMDL
MODEL 8
REMARK VINA RESULT:      -4.2      6.989     13.168
REMARK  Name = 5281239_Fucoxanthin.pdbqt.pdb
REMARK  19 active torsions:
REMARK  status: ('A' for Active; 'I' for Inactive)
REMARK    1  A    between atoms: C_1  and  C_5
REMARK    2  A    between atoms: C_2  and  C_26
REMARK    3  A    between atoms: C_3  and  C_5
REMARK    4  A    between atoms: C_3  and  C_7
REMARK    5  A    between atoms: C_6  and  C_10
REMARK    6  A    between atoms: C_8  and  C_10
REMARK    7  A    between atoms: C_8  and  C_12
REMARK    8  A    between atoms: C_12  and  C_13
REMARK    9  A    between atoms: C_13  and  C_15
REMARK   10  A    between atoms: C_20  and  O_24
REMARK   11  A    between atoms: C_26  and  C_27
REMARK   12  A    between atoms: C_27  and  C_30
REMARK   13  A    between atoms: C_29  and  C_33
REMARK   14  A    between atoms: C_31  and  C_33
REMARK   15  A    between atoms: C_31  and  C_44
REMARK   16  A    between atoms: C_35  and  O_45
REMARK   17  A    between atoms: C_37  and  O_47
REMARK   18  A    between atoms: C_39  and  C_43
REMARK   19  A    between atoms: O_47  and  C_49
REMARK                            x       y       z     vdW  Elec       q    Type
REMARK                         _______ _______ _______ _____ _____    ______ ____
ROOT
ATOM      1  C   UNL     1      20.799   8.940  58.257  0.00  0.00    +0.000 C 
ATOM      2  C   UNL     1      20.288   9.141  57.190  0.00  0.00    +0.000 C 
ENDROOT
BRANCH   2   3
ATOM      3  C   UNL     1      19.642   9.400  55.824  0.00  0.00    +0.000 C 
BRANCH   3   4
ATOM      4  C   UNL     1      19.099   9.621  54.668  0.00  0.00    +0.000 C 
ATOM      5  C   UNL     1      18.725  11.016  54.272  0.00  0.00    +0.000 C 
BRANCH   4   7
ATOM      6  C   UNL     1      18.747   7.640  52.995  0.00  0.00    +0.000 C 
ATOM      7  C   UNL     1      18.908   8.550  53.762  0.00  0.00    +0.000 C 
BRANCH   6   8
ATOM      8  C   UNL     1      18.540   6.475  52.020  0.00  0.00    +0.000 C 
BRANCH   8   9
ATOM      9  C   UNL     1      18.355   5.493  51.194  0.00  0.00    +0.000 C 
ATOM     10  C   UNL     1      18.344   5.741  49.717  0.00  0.00    +0.000 C 
BRANCH   9  12
ATOM     11  C   UNL     1      17.788   3.105  52.112  0.00  0.00    +0.000 C 
ATOM     12  C   UNL     1      18.046   4.202  51.693  0.00  0.00    +0.000 C 
BRANCH  11  18
ATOM     13  C   UNL     1      18.594   0.887  52.956  0.00  0.00    +0.000 C 
ATOM     14  C   UNL     1      16.063   1.424  52.681  0.00  0.00    +0.000 C 
ATOM     15  C   UNL     1      18.028  -0.243  53.704  0.00  0.00    +0.000 C 
ATOM     16  C   UNL     1      16.771  -0.739  54.100  0.00  0.00    +0.000 C 
ATOM     17  C   UNL     1      15.935   0.227  53.503  0.00  0.00    +0.000 C 
ATOM     18  C   UNL     1      17.503   1.901  52.567  0.00  0.00    +0.000 C 
ATOM     19  C   UNL     1      19.278   0.376  51.660  0.00  0.00    +0.000 C 
ATOM     20  C   UNL     1      19.645   1.593  53.867  0.00  0.00    +0.000 C 
ATOM     21  C   UNL     1      15.446   1.218  51.294  0.00  0.00    +0.000 C 
BRANCH  14  22
ATOM     22  O   UNL     1      15.286   2.439  53.277  0.00  0.00    +0.000 OA
ATOM     23  H   UNL     1      14.432   1.984  53.393  0.00  0.00    +0.000 HD
ENDBRANCH  14  22
BRANCH  16  24
ATOM     24  O   UNL     1      16.499  -2.093  53.950  0.00  0.00    +0.000 OA
BRANCH  24  26
ATOM     25  O   UNL     1      15.907  -2.602  56.162  0.00  0.00    +0.000 OA
ATOM     26  C   UNL     1      16.575  -2.717  55.152  0.00  0.00    +0.000 C 
ATOM     27  C   UNL     1      17.680  -3.709  55.253  0.00  0.00    +0.000 C 
ENDBRANCH  24  26
ENDBRANCH  16  24
ENDBRANCH  11  18
ENDBRANCH   9  12
ENDBRANCH   8   9
ENDBRANCH   6   8
ENDBRANCH   4   7
ENDBRANCH   3   4
ENDBRANCH   2   3
BRANCH   1  28
ATOM     28  C   UNL     1      21.461   8.686  59.616  0.00  0.00    +0.000 C 
BRANCH  28  29
ATOM     29  C   UNL     1      22.027   8.463  60.760  0.00  0.00    +0.000 C 
ATOM     30  C   UNL     1      23.474   8.796  60.957  0.00  0.00    +0.000 C 
BRANCH  29  32
ATOM     31  C   UNL     1      20.650   7.354  62.688  0.00  0.00    +0.000 C 
ATOM     32  C   UNL     1      21.285   7.868  61.808  0.00  0.00    +0.000 C 
BRANCH  31  33
ATOM     33  C   UNL     1      19.832   6.688  63.801  0.00  0.00    +0.000 C 
BRANCH  33  34
ATOM     34  C   UNL     1      19.146   6.117  64.747  0.00  0.00    +0.000 C 
ATOM     35  C   UNL     1      18.799   6.971  65.949  0.00  0.00    +0.000 C 
BRANCH  34  37
ATOM     36  O   UNL     1      19.100   3.974  63.690  0.00  0.00    +0.000 OA
ATOM     37  C   UNL     1      18.772   4.673  64.644  0.00  0.00    +0.000 C 
BRANCH  37  38
ATOM     38  C   UNL     1      18.001   4.030  65.681  0.00  0.00    +0.000 C 
BRANCH  38  40
ATOM     39  O   UNL     1      15.988   2.857  66.146  0.00  0.00    +0.000 OA
ATOM     40  C   UNL     1      17.233   3.353  66.709  0.00  0.00    +0.000 C 
ATOM     41  C   UNL     1      16.916   1.851  66.547  0.00  0.00    +0.000 C 
ATOM     42  C   UNL     1      17.153   3.974  68.150  0.00  0.00    +0.000 C 
ATOM     43  C   UNL     1      16.479   1.148  67.710  0.00  0.00    +0.000 C 
ATOM     44  C   UNL     1      16.582   2.949  69.026  0.00  0.00    +0.000 C 
ATOM     45  C   UNL     1      16.234   1.584  69.023  0.00  0.00    +0.000 C 
ATOM     46  C   UNL     1      17.442   1.010  65.381  0.00  0.00    +0.000 C 
ATOM     47  C   UNL     1      18.616   4.294  68.544  0.00  0.00    +0.000 C 
ATOM     48  C   UNL     1      16.285   5.245  68.017  0.00  0.00    +0.000 C 
BRANCH  45  49
ATOM     49  O   UNL     1      16.442   0.795  70.113  0.00  0.00    +0.000 OA
ATOM     50  H   UNL     1      16.696  -0.113  69.871  0.00  0.00    +0.000 HD
ENDBRANCH  45  49
ENDBRANCH  38  40
ENDBRANCH  37  38
ENDBRANCH  34  37
ENDBRANCH  33  34
ENDBRANCH  31  33
ENDBRANCH  29  32
ENDBRANCH  28  29
ENDBRANCH   1  28
TORSDOF 19
ENDMDL
MODEL 9
REMARK VINA RESULT:      -4.2      5.753     14.063
REMARK  Name = 5281239_Fucoxanthin.pdbqt.pdb
REMARK  19 active torsions:
REMARK  status: ('A' for Active; 'I' for Inactive)
REMARK    1  A    between atoms: C_1  and  C_5
REMARK    2  A    between atoms: C_2  and  C_26
REMARK    3  A    between atoms: C_3  and  C_5
REMARK    4  A    between atoms: C_3  and  C_7
REMARK    5  A    between atoms: C_6  and  C_10
REMARK    6  A    between atoms: C_8  and  C_10
REMARK    7  A    between atoms: C_8  and  C_12
REMARK    8  A    between atoms: C_12  and  C_13
REMARK    9  A    between atoms: C_13  and  C_15
REMARK   10  A    between atoms: C_20  and  O_24
REMARK   11  A    between atoms: C_26  and  C_27
REMARK   12  A    between atoms: C_27  and  C_30
REMARK   13  A    between atoms: C_29  and  C_33
REMARK   14  A    between atoms: C_31  and  C_33
REMARK   15  A    between atoms: C_31  and  C_44
REMARK   16  A    between atoms: C_35  and  O_45
REMARK   17  A    between atoms: C_37  and  O_47
REMARK   18  A    between atoms: C_39  and  C_43
REMARK   19  A    between atoms: O_47  and  C_49
REMARK                            x       y       z     vdW  Elec       q    Type
REMARK                         _______ _______ _______ _____ _____    ______ ____
ROOT
ATOM      1  C   UNL     1      17.872  10.235  57.494  0.00  0.00    +0.000 C 
ATOM      2  C   UNL     1      17.866  10.105  56.301  0.00  0.00    +0.000 C 
ENDROOT
BRANCH   2   3
ATOM      3  C   UNL     1      17.854   9.944  54.777  0.00  0.00    +0.000 C 
BRANCH   3   4
ATOM      4  C   UNL     1      17.847   9.806  53.488  0.00  0.00    +0.000 C 
ATOM      5  C   UNL     1      17.547  10.983  52.611  0.00  0.00    +0.000 C 
BRANCH   4   7
ATOM      6  C   UNL     1      18.451   7.495  52.421  0.00  0.00    +0.000 C 
ATOM      7  C   UNL     1      18.172   8.555  52.911  0.00  0.00    +0.000 C 
BRANCH   6   8
ATOM      8  C   UNL     1      18.811   6.141  51.797  0.00  0.00    +0.000 C 
BRANCH   8   9
ATOM      9  C   UNL     1      19.109   4.998  51.262  0.00  0.00    +0.000 C 
ATOM     10  C   UNL     1      19.880   4.945  49.979  0.00  0.00    +0.000 C 
BRANCH   9  12
ATOM     11  C   UNL     1      18.179   2.789  52.319  0.00  0.00    +0.000 C 
ATOM     12  C   UNL     1      18.606   3.802  51.831  0.00  0.00    +0.000 C 
BRANCH  11  18
ATOM     13  C   UNL     1      18.638   0.627  53.500  0.00  0.00    +0.000 C 
ATOM     14  C   UNL     1      16.233   1.345  52.818  0.00  0.00    +0.000 C 
ATOM     15  C   UNL     1      17.867  -0.353  54.278  0.00  0.00    +0.000 C 
ATOM     16  C   UNL     1      16.526  -0.686  54.545  0.00  0.00    +0.000 C 
ATOM     17  C   UNL     1      15.877   0.271  53.737  0.00  0.00    +0.000 C 
ATOM     18  C   UNL     1      17.716   1.678  52.856  0.00  0.00    +0.000 C 
ATOM     19  C   UNL     1      19.427  -0.093  52.374  0.00  0.00    +0.000 C 
ATOM     20  C   UNL     1      19.629   1.342  54.467  0.00  0.00    +0.000 C 
ATOM     21  C   UNL     1      15.781   1.029  51.389  0.00  0.00    +0.000 C 
BRANCH  14  22
ATOM     22  O   UNL     1      15.493   2.487  53.188  0.00  0.00    +0.000 OA
ATOM     23  H   UNL     1      15.944   2.752  54.010  0.00  0.00    +0.000 HD
ENDBRANCH  14  22
BRANCH  16  24
ATOM     24  O   UNL     1      16.139  -2.019  54.504  0.00  0.00    +0.000 OA
BRANCH  24  26
ATOM     25  O   UNL     1      17.011  -3.554  56.049  0.00  0.00    +0.000 OA
ATOM     26  C   UNL     1      16.337  -2.597  55.714  0.00  0.00    +0.000 C 
ATOM     27  C   UNL     1      15.588  -1.953  56.827  0.00  0.00    +0.000 C 
ENDBRANCH  24  26
ENDBRANCH  16  24
ENDBRANCH  11  18
ENDBRANCH   9  12
ENDBRANCH   8   9
ENDBRANCH   6   8
ENDBRANCH   4   7
ENDBRANCH   3   4
ENDBRANCH   2   3
BRANCH   1  28
ATOM     28  C   UNL     1      17.870  10.407  59.018  0.00  0.00    +0.000 C 
BRANCH  28  29
ATOM     29  C   UNL     1      17.858  10.548  60.305  0.00  0.00    +0.000 C 
ATOM     30  C   UNL     1      17.255  11.774  60.919  0.00  0.00    +0.000 C 
BRANCH  29  32
ATOM     31  C   UNL     1      18.948   8.711  61.816  0.00  0.00    +0.000 C 
ATOM     32  C   UNL     1      18.452   9.559  61.127  0.00  0.00    +0.000 C 
BRANCH  31  33
ATOM     33  C   UNL     1      19.574   7.616  62.688  0.00  0.00    +0.000 C 
BRANCH  33  34
ATOM     34  C   UNL     1      20.097   6.685  63.430  0.00  0.00    +0.000 C 
ATOM     35  C   UNL     1      21.380   6.053  62.930  0.00  0.00    +0.000 C 
BRANCH  34  37
ATOM     36  O   UNL     1      18.772   5.205  64.759  0.00  0.00    +0.000 OA
ATOM     37  C   UNL     1      19.416   6.248  64.688  0.00  0.00    +0.000 C 
BRANCH  37  38
ATOM     38  C   UNL     1      19.491   7.045  65.888  0.00  0.00    +0.000 C 
BRANCH  38  40
ATOM     39  O   UNL     1      20.371   7.100  68.094  0.00  0.00    +0.000 OA
ATOM     40  C   UNL     1      19.597   7.831  67.103  0.00  0.00    +0.000 C 
ATOM     41  C   UNL     1      20.990   8.282  67.590  0.00  0.00    +0.000 C 
ATOM     42  C   UNL     1      18.341   8.612  67.631  0.00  0.00    +0.000 C 
ATOM     43  C   UNL     1      21.035   9.324  68.564  0.00  0.00    +0.000 C 
ATOM     44  C   UNL     1      18.814   9.530  68.670  0.00  0.00    +0.000 C 
ATOM     45  C   UNL     1      20.011  10.025  69.224  0.00  0.00    +0.000 C 
ATOM     46  C   UNL     1      22.276   8.006  66.806  0.00  0.00    +0.000 C 
ATOM     47  C   UNL     1      17.793   9.388  66.408  0.00  0.00    +0.000 C 
ATOM     48  C   UNL     1      17.355   7.538  68.139  0.00  0.00    +0.000 C 
BRANCH  45  49
ATOM     49  O   UNL     1      20.133  11.328  69.601  0.00  0.00    +0.000 OA
ATOM     50  H   UNL     1      20.945  11.491  70.113  0.00  0.00    +0.000 HD
ENDBRANCH  45  49
ENDBRANCH  38  40
ENDBRANCH  37  38
ENDBRANCH  34  37
ENDBRANCH  33  34
ENDBRANCH  31  33
ENDBRANCH  29  32
ENDBRANCH  28  29
ENDBRANCH   1  28
TORSDOF 19
ENDMDL
