MODEL 1
REMARK VINA RESULT:      -5.5      0.000      0.000
REMARK  Name = 5281224_Astaxanthin.pdbqt.pdb
REMARK  16 active torsions:
REMARK  status: ('A' for Active; 'I' for Inactive)
REMARK    1  A    between atoms: C_1  and  C_5
REMARK    2  A    between atoms: C_2  and  C_27
REMARK    3  A    between atoms: C_3  and  C_5
REMARK    4  A    between atoms: C_3  and  C_7
REMARK    5  A    between atoms: C_6  and  C_10
REMARK    6  A    between atoms: C_8  and  C_10
REMARK    7  A    between atoms: C_8  and  C_12
REMARK    8  A    between atoms: C_11  and  C_16
REMARK    9  A    between atoms: C_17  and  O_23
REMARK   10  A    between atoms: C_25  and  C_27
REMARK   11  A    between atoms: C_25  and  C_29
REMARK   12  A    between atoms: C_28  and  C_32
REMARK   13  A    between atoms: C_30  and  C_32
REMARK   14  A    between atoms: C_30  and  C_34
REMARK   15  A    between atoms: C_33  and  C_38
REMARK   16  A    between atoms: C_39  and  O_45
REMARK                            x       y       z     vdW  Elec       q    Type
REMARK                         _______ _______ _______ _____ _____    ______ ____
ROOT
ATOM      1  C   UNL     1      18.046   9.633  56.604  0.00  0.00    +0.000 C 
ATOM      2  C   UNL     1      18.143   9.375  55.436  0.00  0.00    +0.000 C 
ENDROOT
BRANCH   2   3
ATOM      3  C   UNL     1      18.277   9.043  53.944  0.00  0.00    +0.000 C 
BRANCH   3   4
ATOM      4  C   UNL     1      18.387   8.757  52.685  0.00  0.00    +0.000 C 
ATOM      5  C   UNL     1      18.325   9.851  51.662  0.00  0.00    +0.000 C 
BRANCH   4   7
ATOM      6  C   UNL     1      18.570   6.263  51.919  0.00  0.00    +0.000 C 
ATOM      7  C   UNL     1      18.486   7.407  52.272  0.00  0.00    +0.000 C 
BRANCH   6   8
ATOM      8  C   UNL     1      18.676   4.803  51.463  0.00  0.00    +0.000 C 
BRANCH   8   9
ATOM      9  C   UNL     1      18.759   3.565  51.083  0.00  0.00    +0.000 C 
ATOM     10  C   UNL     1      19.392   3.229  49.767  0.00  0.00    +0.000 C 
BRANCH   9  12
ATOM     11  C   UNL     1      18.080   1.665  52.753  0.00  0.00    +0.000 C 
ATOM     12  C   UNL     1      18.393   2.529  51.978  0.00  0.00    +0.000 C 
BRANCH  11  16
ATOM     13  O   UNL     1      18.985  -0.957  56.794  0.00  0.00    +0.000 OA
ATOM     14  C   UNL     1      16.363  -0.108  53.462  0.00  0.00    +0.000 C 
ATOM     15  C   UNL     1      16.255  -1.063  54.551  0.00  0.00    +0.000 C 
ATOM     16  C   UNL     1      17.704   0.634  53.701  0.00  0.00    +0.000 C 
ATOM     17  C   UNL     1      16.994  -1.448  55.665  0.00  0.00    +0.000 C 
ATOM     18  C   UNL     1      15.202   0.912  53.529  0.00  0.00    +0.000 C 
ATOM     19  C   UNL     1      16.420  -0.847  52.107  0.00  0.00    +0.000 C 
ATOM     20  C   UNL     1      18.522   0.358  54.759  0.00  0.00    +0.000 C 
ATOM     21  C   UNL     1      18.259  -0.702  55.842  0.00  0.00    +0.000 C 
ATOM     22  C   UNL     1      19.821   1.161  54.915  0.00  0.00    +0.000 C 
BRANCH  17  23
ATOM     23  O   UNL     1      16.586  -2.429  56.530  0.00  0.00    +0.000 OA
ATOM     24  H   UNL     1      16.888  -3.308  56.224  0.00  0.00    +0.000 HD
ENDBRANCH  17  23
ENDBRANCH  11  16
ENDBRANCH   9  12
ENDBRANCH   8   9
ENDBRANCH   6   8
ENDBRANCH   4   7
ENDBRANCH   3   4
ENDBRANCH   2   3
BRANCH   1  25
ATOM     25  C   UNL     1      17.932   9.964  58.096  0.00  0.00    +0.000 C 
BRANCH  25  26
ATOM     26  C   UNL     1      17.830  10.243  59.358  0.00  0.00    +0.000 C 
ATOM     27  C   UNL     1      18.877   9.759  60.316  0.00  0.00    +0.000 C 
BRANCH  26  29
ATOM     28  C   UNL     1      15.721  11.507  60.250  0.00  0.00    +0.000 C 
ATOM     29  C   UNL     1      16.690  10.927  59.842  0.00  0.00    +0.000 C 
BRANCH  28  30
ATOM     30  C   UNL     1      14.483  12.249  60.769  0.00  0.00    +0.000 C 
BRANCH  30  31
ATOM     31  C   UNL     1      13.439  12.883  61.202  0.00  0.00    +0.000 C 
ATOM     32  C   UNL     1      13.559  13.809  62.375  0.00  0.00    +0.000 C 
BRANCH  31  34
ATOM     33  C   UNL     1      11.205  12.755  59.839  0.00  0.00    +0.000 C 
ATOM     34  C   UNL     1      12.226  12.822  60.472  0.00  0.00    +0.000 C 
BRANCH  33  38
ATOM     35  O   UNL     1       8.826  13.038  55.564  0.00  0.00    +0.000 OA
ATOM     36  C   UNL     1       8.680  12.291  59.820  0.00  0.00    +0.000 C 
ATOM     37  C   UNL     1       7.641  12.273  58.804  0.00  0.00    +0.000 C 
ATOM     38  C   UNL     1       9.982  12.662  59.065  0.00  0.00    +0.000 C 
ATOM     39  C   UNL     1       7.532  12.487  57.434  0.00  0.00    +0.000 C 
ATOM     40  C   UNL     1       8.841  10.885  60.444  0.00  0.00    +0.000 C 
ATOM     41  C   UNL     1       8.373  13.374  60.878  0.00  0.00    +0.000 C 
ATOM     42  C   UNL     1      10.017  12.894  57.720  0.00  0.00    +0.000 C 
ATOM     43  C   UNL     1       8.808  12.833  56.771  0.00  0.00    +0.000 C 
ATOM     44  C   UNL     1      11.361  13.240  57.065  0.00  0.00    +0.000 C 
BRANCH  39  45
ATOM     45  O   UNL     1       6.348  12.383  56.754  0.00  0.00    +0.000 OA
ATOM     46  H   UNL     1       5.778  11.695  57.155  0.00  0.00    +0.000 HD
ENDBRANCH  39  45
ENDBRANCH  33  38
ENDBRANCH  31  34
ENDBRANCH  30  31
ENDBRANCH  28  30
ENDBRANCH  26  29
ENDBRANCH  25  26
ENDBRANCH   1  25
TORSDOF 16
ENDMDL
MODEL 2
REMARK VINA RESULT:      -5.3      0.873     14.129
REMARK  Name = 5281224_Astaxanthin.pdbqt.pdb
REMARK  16 active torsions:
REMARK  status: ('A' for Active; 'I' for Inactive)
REMARK    1  A    between atoms: C_1  and  C_5
REMARK    2  A    between atoms: C_2  and  C_27
REMARK    3  A    between atoms: C_3  and  C_5
REMARK    4  A    between atoms: C_3  and  C_7
REMARK    5  A    between atoms: C_6  and  C_10
REMARK    6  A    between atoms: C_8  and  C_10
REMARK    7  A    between atoms: C_8  and  C_12
REMARK    8  A    between atoms: C_11  and  C_16
REMARK    9  A    between atoms: C_17  and  O_23
REMARK   10  A    between atoms: C_25  and  C_27
REMARK   11  A    between atoms: C_25  and  C_29
REMARK   12  A    between atoms: C_28  and  C_32
REMARK   13  A    between atoms: C_30  and  C_32
REMARK   14  A    between atoms: C_30  and  C_34
REMARK   15  A    between atoms: C_33  and  C_38
REMARK   16  A    between atoms: C_39  and  O_45
REMARK                            x       y       z     vdW  Elec       q    Type
REMARK                         _______ _______ _______ _____ _____    ______ ____
ROOT
ATOM      1  C   UNL     1      18.512   9.470  56.161  0.00  0.00    +0.000 C 
ATOM      2  C   UNL     1      18.219   9.628  57.314  0.00  0.00    +0.000 C 
ENDROOT
BRANCH   2   3
ATOM      3  C   UNL     1      17.849   9.837  58.788  0.00  0.00    +0.000 C 
BRANCH   3   4
ATOM      4  C   UNL     1      17.540  10.020  60.033  0.00  0.00    +0.000 C 
ATOM      5  C   UNL     1      18.348   9.359  61.109  0.00  0.00    +0.000 C 
BRANCH   4   7
ATOM      6  C   UNL     1      15.420  11.416  60.664  0.00  0.00    +0.000 C 
ATOM      7  C   UNL     1      16.394  10.777  60.374  0.00  0.00    +0.000 C 
BRANCH   6   8
ATOM      8  C   UNL     1      14.176  12.230  61.038  0.00  0.00    +0.000 C 
BRANCH   8   9
ATOM      9  C   UNL     1      13.123  12.922  61.346  0.00  0.00    +0.000 C 
ATOM     10  C   UNL     1      13.188  13.928  62.455  0.00  0.00    +0.000 C 
BRANCH   9  12
ATOM     11  C   UNL     1      10.969  12.744  59.865  0.00  0.00    +0.000 C 
ATOM     12  C   UNL     1      11.963  12.834  60.538  0.00  0.00    +0.000 C 
BRANCH  11  16
ATOM     13  O   UNL     1       8.665  13.030  55.549  0.00  0.00    +0.000 OA
ATOM     14  C   UNL     1       8.466  12.183  59.785  0.00  0.00    +0.000 C 
ATOM     15  C   UNL     1       7.448  12.147  58.748  0.00  0.00    +0.000 C 
ATOM     16  C   UNL     1       9.767  12.621  59.064  0.00  0.00    +0.000 C 
ATOM     17  C   UNL     1       7.357  12.387  57.381  0.00  0.00    +0.000 C 
ATOM     18  C   UNL     1       8.670  10.771  60.382  0.00  0.00    +0.000 C 
ATOM     19  C   UNL     1       8.096  13.229  60.859  0.00  0.00    +0.000 C 
ATOM     20  C   UNL     1       9.817  12.884  57.725  0.00  0.00    +0.000 C 
ATOM     21  C   UNL     1       8.631  12.798  56.750  0.00  0.00    +0.000 C 
ATOM     22  C   UNL     1      11.160  13.296  57.106  0.00  0.00    +0.000 C 
BRANCH  17  23
ATOM     23  O   UNL     1       6.192  12.252  56.675  0.00  0.00    +0.000 OA
ATOM     24  H   UNL     1       6.375  12.162  55.717  0.00  0.00    +0.000 HD
ENDBRANCH  17  23
ENDBRANCH  11  16
ENDBRANCH   9  12
ENDBRANCH   8   9
ENDBRANCH   6   8
ENDBRANCH   4   7
ENDBRANCH   3   4
ENDBRANCH   2   3
BRANCH   1  25
ATOM     25  C   UNL     1      18.890   9.277  54.688  0.00  0.00    +0.000 C 
BRANCH  25  26
ATOM     26  C   UNL     1      19.214   9.117  53.443  0.00  0.00    +0.000 C 
ATOM     27  C   UNL     1      19.665  10.295  52.632  0.00  0.00    +0.000 C 
BRANCH  26  29
ATOM     28  C   UNL     1      18.931   6.780  52.304  0.00  0.00    +0.000 C 
ATOM     29  C   UNL     1      19.059   7.853  52.828  0.00  0.00    +0.000 C 
BRANCH  28  30
ATOM     30  C   UNL     1      18.768   5.410  51.633  0.00  0.00    +0.000 C 
BRANCH  30  31
ATOM     31  C   UNL     1      18.639   4.252  51.067  0.00  0.00    +0.000 C 
ATOM     32  C   UNL     1      18.860   4.111  49.591  0.00  0.00    +0.000 C 
BRANCH  31  34
ATOM     33  C   UNL     1      18.266   2.126  52.552  0.00  0.00    +0.000 C 
ATOM     34  C   UNL     1      18.447   3.097  51.865  0.00  0.00    +0.000 C 
BRANCH  33  38
ATOM     35  O   UNL     1      15.217  -1.055  54.697  0.00  0.00    +0.000 OA
ATOM     36  C   UNL     1      19.277   0.252  53.986  0.00  0.00    +0.000 C 
ATOM     37  C   UNL     1      18.745  -0.853  54.765  0.00  0.00    +0.000 C 
ATOM     38  C   UNL     1      18.035   0.966  53.391  0.00  0.00    +0.000 C 
ATOM     39  C   UNL     1      17.501  -1.388  55.085  0.00  0.00    +0.000 C 
ATOM     40  C   UNL     1      20.154  -0.284  52.830  0.00  0.00    +0.000 C 
ATOM     41  C   UNL     1      20.043   1.231  54.903  0.00  0.00    +0.000 C 
ATOM     42  C   UNL     1      16.758   0.542  53.621  0.00  0.00    +0.000 C 
ATOM     43  C   UNL     1      16.358  -0.666  54.484  0.00  0.00    +0.000 C 
ATOM     44  C   UNL     1      15.599   1.310  52.972  0.00  0.00    +0.000 C 
BRANCH  39  45
ATOM     45  O   UNL     1      17.344  -2.489  55.882  0.00  0.00    +0.000 OA
ATOM     46  H   UNL     1      16.501  -2.441  56.378  0.00  0.00    +0.000 HD
ENDBRANCH  39  45
ENDBRANCH  33  38
ENDBRANCH  31  34
ENDBRANCH  30  31
ENDBRANCH  28  30
ENDBRANCH  26  29
ENDBRANCH  25  26
ENDBRANCH   1  25
TORSDOF 16
ENDMDL
MODEL 3
REMARK VINA RESULT:      -5.2      5.119     11.532
REMARK  Name = 5281224_Astaxanthin.pdbqt.pdb
REMARK  16 active torsions:
REMARK  status: ('A' for Active; 'I' for Inactive)
REMARK    1  A    between atoms: C_1  and  C_5
REMARK    2  A    between atoms: C_2  and  C_27
REMARK    3  A    between atoms: C_3  and  C_5
REMARK    4  A    between atoms: C_3  and  C_7
REMARK    5  A    between atoms: C_6  and  C_10
REMARK    6  A    between atoms: C_8  and  C_10
REMARK    7  A    between atoms: C_8  and  C_12
REMARK    8  A    between atoms: C_11  and  C_16
REMARK    9  A    between atoms: C_17  and  O_23
REMARK   10  A    between atoms: C_25  and  C_27
REMARK   11  A    between atoms: C_25  and  C_29
REMARK   12  A    between atoms: C_28  and  C_32
REMARK   13  A    between atoms: C_30  and  C_32
REMARK   14  A    between atoms: C_30  and  C_34
REMARK   15  A    between atoms: C_33  and  C_38
REMARK   16  A    between atoms: C_39  and  O_45
REMARK                            x       y       z     vdW  Elec       q    Type
REMARK                         _______ _______ _______ _____ _____    ______ ____
ROOT
ATOM      1  C   UNL     1      15.127  11.030  60.562  0.00  0.00    +0.000 C 
ATOM      2  C   UNL     1      14.063  11.585  60.521  0.00  0.00    +0.000 C 
ENDROOT
BRANCH   2   3
ATOM      3  C   UNL     1      12.708  12.300  60.465  0.00  0.00    +0.000 C 
BRANCH   3   4
ATOM      4  C   UNL     1      11.565  12.909  60.422  0.00  0.00    +0.000 C 
ATOM      5  C   UNL     1      11.499  14.392  60.631  0.00  0.00    +0.000 C 
BRANCH   4   7
ATOM      6  C   UNL     1       9.359  11.535  60.115  0.00  0.00    +0.000 C 
ATOM      7  C   UNL     1      10.372  12.164  60.257  0.00  0.00    +0.000 C 
BRANCH   6   8
ATOM      8  C   UNL     1       8.065  10.735  59.931  0.00  0.00    +0.000 C 
BRANCH   8   9
ATOM      9  C   UNL     1       6.971  10.057  59.767  0.00  0.00    +0.000 C 
ATOM     10  C   UNL     1       5.649  10.762  59.759  0.00  0.00    +0.000 C 
BRANCH   9  12
ATOM     11  C   UNL     1       7.116   7.506  59.186  0.00  0.00    +0.000 C 
ATOM     12  C   UNL     1       7.040   8.679  59.446  0.00  0.00    +0.000 C 
BRANCH  11  16
ATOM     13  O   UNL     1       5.703   2.868  59.897  0.00  0.00    +0.000 OA
ATOM     14  C   UNL     1       8.257   5.664  57.811  0.00  0.00    +0.000 C 
ATOM     15  C   UNL     1       8.139   4.219  57.721  0.00  0.00    +0.000 C 
ATOM     16  C   UNL     1       7.222   6.093  58.883  0.00  0.00    +0.000 C 
ATOM     17  C   UNL     1       7.390   3.205  58.310  0.00  0.00    +0.000 C 
ATOM     18  C   UNL     1       7.883   6.315  56.459  0.00  0.00    +0.000 C 
ATOM     19  C   UNL     1       9.676   6.055  58.280  0.00  0.00    +0.000 C 
ATOM     20  C   UNL     1       6.420   5.199  59.534  0.00  0.00    +0.000 C 
ATOM     21  C   UNL     1       6.418   3.677  59.321  0.00  0.00    +0.000 C 
ATOM     22  C   UNL     1       5.417   5.729  60.568  0.00  0.00    +0.000 C 
BRANCH  17  23
ATOM     23  O   UNL     1       7.532   1.883  57.980  0.00  0.00    +0.000 OA
ATOM     24  H   UNL     1       8.420   1.557  58.232  0.00  0.00    +0.000 HD
ENDBRANCH  17  23
ENDBRANCH  11  16
ENDBRANCH   9  12
ENDBRANCH   8   9
ENDBRANCH   6   8
ENDBRANCH   4   7
ENDBRANCH   3   4
ENDBRANCH   2   3
BRANCH   1  25
ATOM     25  C   UNL     1      16.489  10.328  60.607  0.00  0.00    +0.000 C 
BRANCH  25  26
ATOM     26  C   UNL     1      17.639   9.731  60.648  0.00  0.00    +0.000 C 
ATOM     27  C   UNL     1      18.261   9.400  61.972  0.00  0.00    +0.000 C 
BRANCH  26  29
ATOM     28  C   UNL     1      18.944   9.247  58.434  0.00  0.00    +0.000 C 
ATOM     29  C   UNL     1      18.344   9.470  59.450  0.00  0.00    +0.000 C 
BRANCH  28  30
ATOM     30  C   UNL     1      19.714   8.960  57.139  0.00  0.00    +0.000 C 
BRANCH  30  31
ATOM     31  C   UNL     1      20.357   8.714  56.041  0.00  0.00    +0.000 C 
ATOM     32  C   UNL     1      21.709   8.070  56.094  0.00  0.00    +0.000 C 
BRANCH  31  34
ATOM     33  C   UNL     1      19.181   9.055  53.725  0.00  0.00    +0.000 C 
ATOM     34  C   UNL     1      19.716   8.908  54.792  0.00  0.00    +0.000 C 
BRANCH  33  38
ATOM     35  O   UNL     1      17.797   7.238  49.388  0.00  0.00    +0.000 OA
ATOM     36  C   UNL     1      17.951  10.608  52.094  0.00  0.00    +0.000 C 
ATOM     37  C   UNL     1      17.393  10.471  50.759  0.00  0.00    +0.000 C 
ATOM     38  C   UNL     1      18.547   9.217  52.431  0.00  0.00    +0.000 C 
ATOM     39  C   UNL     1      17.269   9.483  49.786  0.00  0.00    +0.000 C 
ATOM     40  C   UNL     1      16.830  10.938  53.108  0.00  0.00    +0.000 C 
ATOM     41  C   UNL     1      19.077  11.665  52.094  0.00  0.00    +0.000 C 
ATOM     42  C   UNL     1      18.491   8.160  51.569  0.00  0.00    +0.000 C 
ATOM     43  C   UNL     1      17.854   8.179  50.169  0.00  0.00    +0.000 C 
ATOM     44  C   UNL     1      19.098   6.820  52.006  0.00  0.00    +0.000 C 
BRANCH  39  45
ATOM     45  O   UNL     1      16.657   9.695  48.581  0.00  0.00    +0.000 OA
ATOM     46  H   UNL     1      15.849   9.147  48.502  0.00  0.00    +0.000 HD
ENDBRANCH  39  45
ENDBRANCH  33  38
ENDBRANCH  31  34
ENDBRANCH  30  31
ENDBRANCH  28  30
ENDBRANCH  26  29
ENDBRANCH  25  26
ENDBRANCH   1  25
TORSDOF 16
ENDMDL
MODEL 4
REMARK VINA RESULT:      -5.2      7.273     12.549
REMARK  Name = 5281224_Astaxanthin.pdbqt.pdb
REMARK  16 active torsions:
REMARK  status: ('A' for Active; 'I' for Inactive)
REMARK    1  A    between atoms: C_1  and  C_5
REMARK    2  A    between atoms: C_2  and  C_27
REMARK    3  A    between atoms: C_3  and  C_5
REMARK    4  A    between atoms: C_3  and  C_7
REMARK    5  A    between atoms: C_6  and  C_10
REMARK    6  A    between atoms: C_8  and  C_10
REMARK    7  A    between atoms: C_8  and  C_12
REMARK    8  A    between atoms: C_11  and  C_16
REMARK    9  A    between atoms: C_17  and  O_23
REMARK   10  A    between atoms: C_25  and  C_27
REMARK   11  A    between atoms: C_25  and  C_29
REMARK   12  A    between atoms: C_28  and  C_32
REMARK   13  A    between atoms: C_30  and  C_32
REMARK   14  A    between atoms: C_30  and  C_34
REMARK   15  A    between atoms: C_33  and  C_38
REMARK   16  A    between atoms: C_39  and  O_45
REMARK                            x       y       z     vdW  Elec       q    Type
REMARK                         _______ _______ _______ _____ _____    ______ ____
ROOT
ATOM      1  C   UNL     1      15.244  11.133  60.569  0.00  0.00    +0.000 C 
ATOM      2  C   UNL     1      14.173  11.645  60.742  0.00  0.00    +0.000 C 
ENDROOT
BRANCH   2   3
ATOM      3  C   UNL     1      12.806  12.307  60.960  0.00  0.00    +0.000 C 
BRANCH   3   4
ATOM      4  C   UNL     1      11.650  12.863  61.139  0.00  0.00    +0.000 C 
ATOM      5  C   UNL     1      11.549  14.153  61.896  0.00  0.00    +0.000 C 
BRANCH   4   7
ATOM      6  C   UNL     1       9.477  11.663  60.312  0.00  0.00    +0.000 C 
ATOM      7  C   UNL     1      10.475  12.212  60.691  0.00  0.00    +0.000 C 
BRANCH   6   8
ATOM      8  C   UNL     1       8.201  10.965  59.827  0.00  0.00    +0.000 C 
BRANCH   8   9
ATOM      9  C   UNL     1       7.123  10.378  59.409  0.00  0.00    +0.000 C 
ATOM     10  C   UNL     1       5.945  11.197  58.977  0.00  0.00    +0.000 C 
BRANCH   9  12
ATOM     11  C   UNL     1       7.092   7.780  59.070  0.00  0.00    +0.000 C 
ATOM     12  C   UNL     1       7.116   8.974  59.219  0.00  0.00    +0.000 C 
BRANCH  11  16
ATOM     13  O   UNL     1       5.235   3.397  60.236  0.00  0.00    +0.000 OA
ATOM     14  C   UNL     1       8.014   5.710  57.864  0.00  0.00    +0.000 C 
ATOM     15  C   UNL     1       7.749   4.282  57.914  0.00  0.00    +0.000 C 
ATOM     16  C   UNL     1       7.050   6.341  58.902  0.00  0.00    +0.000 C 
ATOM     17  C   UNL     1       6.914   3.410  58.605  0.00  0.00    +0.000 C 
ATOM     18  C   UNL     1       7.679   6.266  56.460  0.00  0.00    +0.000 C 
ATOM     19  C   UNL     1       9.474   5.997  58.278  0.00  0.00    +0.000 C 
ATOM     20  C   UNL     1       6.176   5.599  59.644  0.00  0.00    +0.000 C 
ATOM     21  C   UNL     1       6.016   4.071  59.577  0.00  0.00    +0.000 C 
ATOM     22  C   UNL     1       5.252   6.323  60.634  0.00  0.00    +0.000 C 
BRANCH  17  23
ATOM     23  O   UNL     1       6.916   2.056  58.402  0.00  0.00    +0.000 OA
ATOM     24  H   UNL     1       7.782   1.758  58.054  0.00  0.00    +0.000 HD
ENDBRANCH  17  23
ENDBRANCH  11  16
ENDBRANCH   9  12
ENDBRANCH   8   9
ENDBRANCH   6   8
ENDBRANCH   4   7
ENDBRANCH   3   4
ENDBRANCH   2   3
BRANCH   1  25
ATOM     25  C   UNL     1      16.616  10.486  60.343  0.00  0.00    +0.000 C 
BRANCH  25  26
ATOM     26  C   UNL     1      17.778   9.944  60.155  0.00  0.00    +0.000 C 
ATOM     27  C   UNL     1      18.441  10.044  58.814  0.00  0.00    +0.000 C 
BRANCH  26  29
ATOM     28  C   UNL     1      18.888   8.539  62.062  0.00  0.00    +0.000 C 
ATOM     29  C   UNL     1      18.379   9.185  61.186  0.00  0.00    +0.000 C 
BRANCH  28  30
ATOM     30  C   UNL     1      19.535   7.711  63.180  0.00  0.00    +0.000 C 
BRANCH  30  31
ATOM     31  C   UNL     1      20.089   7.012  64.119  0.00  0.00    +0.000 C 
ATOM     32  C   UNL     1      21.566   6.756  64.091  0.00  0.00    +0.000 C 
BRANCH  31  34
ATOM     33  C   UNL     1      18.681   6.318  66.217  0.00  0.00    +0.000 C 
ATOM     34  C   UNL     1      19.327   6.625  65.250  0.00  0.00    +0.000 C 
BRANCH  33  38
ATOM     35  O   UNL     1      15.779   3.198  68.638  0.00  0.00    +0.000 OA
ATOM     36  C   UNL     1      17.879   6.977  68.564  0.00  0.00    +0.000 C 
ATOM     37  C   UNL     1      17.039   6.363  69.579  0.00  0.00    +0.000 C 
ATOM     38  C   UNL     1      17.905   5.965  67.390  0.00  0.00    +0.000 C 
ATOM     39  C   UNL     1      16.311   5.189  69.747  0.00  0.00    +0.000 C 
ATOM     40  C   UNL     1      19.317   7.164  69.104  0.00  0.00    +0.000 C 
ATOM     41  C   UNL     1      17.252   8.305  68.085  0.00  0.00    +0.000 C 
ATOM     42  C   UNL     1      17.239   4.774  67.426  0.00  0.00    +0.000 C 
ATOM     43  C   UNL     1      16.380   4.264  68.595  0.00  0.00    +0.000 C 
ATOM     44  C   UNL     1      17.342   3.835  66.216  0.00  0.00    +0.000 C 
BRANCH  39  45
ATOM     45  O   UNL     1      15.597   4.909  70.880  0.00  0.00    +0.000 OA
ATOM     46  H   UNL     1      15.799   4.006  71.203  0.00  0.00    +0.000 HD
ENDBRANCH  39  45
ENDBRANCH  33  38
ENDBRANCH  31  34
ENDBRANCH  30  31
ENDBRANCH  28  30
ENDBRANCH  26  29
ENDBRANCH  25  26
ENDBRANCH   1  25
TORSDOF 16
ENDMDL
MODEL 5
REMARK VINA RESULT:      -5.1     15.701     20.563
REMARK  Name = 5281224_Astaxanthin.pdbqt.pdb
REMARK  16 active torsions:
REMARK  status: ('A' for Active; 'I' for Inactive)
REMARK    1  A    between atoms: C_1  and  C_5
REMARK    2  A    between atoms: C_2  and  C_27
REMARK    3  A    between atoms: C_3  and  C_5
REMARK    4  A    between atoms: C_3  and  C_7
REMARK    5  A    between atoms: C_6  and  C_10
REMARK    6  A    between atoms: C_8  and  C_10
REMARK    7  A    between atoms: C_8  and  C_12
REMARK    8  A    between atoms: C_11  and  C_16
REMARK    9  A    between atoms: C_17  and  O_23
REMARK   10  A    between atoms: C_25  and  C_27
REMARK   11  A    between atoms: C_25  and  C_29
REMARK   12  A    between atoms: C_28  and  C_32
REMARK   13  A    between atoms: C_30  and  C_32
REMARK   14  A    between atoms: C_30  and  C_34
REMARK   15  A    between atoms: C_33  and  C_38
REMARK   16  A    between atoms: C_39  and  O_45
REMARK                            x       y       z     vdW  Elec       q    Type
REMARK                         _______ _______ _______ _____ _____    ______ ____
ROOT
ATOM      1  C   UNL     1       7.427  -1.464  72.466  0.00  0.00    +0.000 C 
ATOM      2  C   UNL     1       7.013  -1.678  71.360  0.00  0.00    +0.000 C 
ENDROOT
BRANCH   2   3
ATOM      3  C   UNL     1       6.477  -1.953  69.950  0.00  0.00    +0.000 C 
BRANCH   3   4
ATOM      4  C   UNL     1       6.023  -2.180  68.757  0.00  0.00    +0.000 C 
ATOM      5  C   UNL     1       6.191  -3.535  68.138  0.00  0.00    +0.000 C 
BRANCH   4   7
ATOM      6  C   UNL     1       4.950  -0.237  67.373  0.00  0.00    +0.000 C 
ATOM      7  C   UNL     1       5.441  -1.128  68.010  0.00  0.00    +0.000 C 
BRANCH   6   8
ATOM      8  C   UNL     1       4.323   0.899  66.557  0.00  0.00    +0.000 C 
BRANCH   8   9
ATOM      9  C   UNL     1       3.789   1.863  65.873  0.00  0.00    +0.000 C 
ATOM     10  C   UNL     1       4.130   2.029  64.423  0.00  0.00    +0.000 C 
BRANCH   9  12
ATOM     11  C   UNL     1       1.920   3.355  66.942  0.00  0.00    +0.000 C 
ATOM     12  C   UNL     1       2.773   2.660  66.456  0.00  0.00    +0.000 C 
BRANCH  11  16
ATOM     13  O   UNL     1      -2.137   3.937  69.630  0.00  0.00    +0.000 OA
ATOM     14  C   UNL     1       0.998   5.730  67.252  0.00  0.00    +0.000 C 
ATOM     15  C   UNL     1      -0.137   6.315  67.946  0.00  0.00    +0.000 C 
ATOM     16  C   UNL     1       0.899   4.206  67.521  0.00  0.00    +0.000 C 
ATOM     17  C   UNL     1      -1.204   5.885  68.728  0.00  0.00    +0.000 C 
ATOM     18  C   UNL     1       2.321   6.264  67.849  0.00  0.00    +0.000 C 
ATOM     19  C   UNL     1       0.888   5.993  65.734  0.00  0.00    +0.000 C 
ATOM     20  C   UNL     1      -0.095   3.652  68.275  0.00  0.00    +0.000 C 
ATOM     21  C   UNL     1      -1.242   4.423  68.951  0.00  0.00    +0.000 C 
ATOM     22  C   UNL     1      -0.094   2.133  68.494  0.00  0.00    +0.000 C 
BRANCH  17  23
ATOM     23  O   UNL     1      -2.138   6.738  69.252  0.00  0.00    +0.000 OA
ATOM     24  H   UNL     1      -1.850   7.669  69.157  0.00  0.00    +0.000 HD
ENDBRANCH  17  23
ENDBRANCH  11  16
ENDBRANCH   9  12
ENDBRANCH   8   9
ENDBRANCH   6   8
ENDBRANCH   4   7
ENDBRANCH   3   4
ENDBRANCH   2   3
BRANCH   1  25
ATOM     25  C   UNL     1       7.946  -1.195  73.883  0.00  0.00    +0.000 C 
BRANCH  25  26
ATOM     26  C   UNL     1       8.385  -0.972  75.082  0.00  0.00    +0.000 C 
ATOM     27  C   UNL     1       8.040  -1.921  76.192  0.00  0.00    +0.000 C 
BRANCH  26  29
ATOM     28  C   UNL     1       9.736   1.207  75.598  0.00  0.00    +0.000 C 
ATOM     29  C   UNL     1       9.114   0.207  75.362  0.00  0.00    +0.000 C 
BRANCH  28  30
ATOM     30  C   UNL     1      10.533   2.483  75.899  0.00  0.00    +0.000 C 
BRANCH  30  31
ATOM     31  C   UNL     1      11.199   3.565  76.154  0.00  0.00    +0.000 C 
ATOM     32  C   UNL     1      11.217   4.122  77.545  0.00  0.00    +0.000 C 
BRANCH  31  34
ATOM     33  C   UNL     1      12.757   4.592  74.315  0.00  0.00    +0.000 C 
ATOM     34  C   UNL     1      12.033   4.128  75.156  0.00  0.00    +0.000 C 
BRANCH  33  38
ATOM     35  O   UNL     1      15.548   4.043  70.324  0.00  0.00    +0.000 OA
ATOM     36  C   UNL     1      13.977   6.654  73.393  0.00  0.00    +0.000 C 
ATOM     37  C   UNL     1      14.869   6.911  72.275  0.00  0.00    +0.000 C 
ATOM     38  C   UNL     1      13.645   5.142  73.308  0.00  0.00    +0.000 C 
ATOM     39  C   UNL     1      15.452   6.199  71.232  0.00  0.00    +0.000 C 
ATOM     40  C   UNL     1      12.671   7.468  73.232  0.00  0.00    +0.000 C 
ATOM     41  C   UNL     1      14.695   6.949  74.728  0.00  0.00    +0.000 C 
ATOM     42  C   UNL     1      14.146   4.327  72.334  0.00  0.00    +0.000 C 
ATOM     43  C   UNL     1      15.093   4.764  71.204  0.00  0.00    +0.000 C 
ATOM     44  C   UNL     1      13.742   2.847  72.330  0.00  0.00    +0.000 C 
BRANCH  39  45
ATOM     45  O   UNL     1      16.283   6.773  70.308  0.00  0.00    +0.000 OA
ATOM     46  H   UNL     1      16.178   6.343  69.434  0.00  0.00    +0.000 HD
ENDBRANCH  39  45
ENDBRANCH  33  38
ENDBRANCH  31  34
ENDBRANCH  30  31
ENDBRANCH  28  30
ENDBRANCH  26  29
ENDBRANCH  25  26
ENDBRANCH   1  25
TORSDOF 16
ENDMDL
MODEL 6
REMARK VINA RESULT:      -5.0      8.627     17.560
REMARK  Name = 5281224_Astaxanthin.pdbqt.pdb
REMARK  16 active torsions:
REMARK  status: ('A' for Active; 'I' for Inactive)
REMARK    1  A    between atoms: C_1  and  C_5
REMARK    2  A    between atoms: C_2  and  C_27
REMARK    3  A    between atoms: C_3  and  C_5
REMARK    4  A    between atoms: C_3  and  C_7
REMARK    5  A    between atoms: C_6  and  C_10
REMARK    6  A    between atoms: C_8  and  C_10
REMARK    7  A    between atoms: C_8  and  C_12
REMARK    8  A    between atoms: C_11  and  C_16
REMARK    9  A    between atoms: C_17  and  O_23
REMARK   10  A    between atoms: C_25  and  C_27
REMARK   11  A    between atoms: C_25  and  C_29
REMARK   12  A    between atoms: C_28  and  C_32
REMARK   13  A    between atoms: C_30  and  C_32
REMARK   14  A    between atoms: C_30  and  C_34
REMARK   15  A    between atoms: C_33  and  C_38
REMARK   16  A    between atoms: C_39  and  O_45
REMARK                            x       y       z     vdW  Elec       q    Type
REMARK                         _______ _______ _______ _____ _____    ______ ____
ROOT
ATOM      1  C   UNL     1       5.089   6.415  61.712  0.00  0.00    +0.000 C 
ATOM      2  C   UNL     1       4.333   5.962  62.526  0.00  0.00    +0.000 C 
ENDROOT
BRANCH   2   3
ATOM      3  C   UNL     1       3.361   5.389  63.565  0.00  0.00    +0.000 C 
BRANCH   3   4
ATOM      4  C   UNL     1       2.542   4.909  64.447  0.00  0.00    +0.000 C 
ATOM      5  C   UNL     1       2.071   3.491  64.336  0.00  0.00    +0.000 C 
BRANCH   4   7
ATOM      6  C   UNL     1       1.598   6.456  66.334  0.00  0.00    +0.000 C 
ATOM      7  C   UNL     1       2.030   5.747  65.466  0.00  0.00    +0.000 C 
BRANCH   6   8
ATOM      8  C   UNL     1       1.047   7.358  67.444  0.00  0.00    +0.000 C 
BRANCH   8   9
ATOM      9  C   UNL     1       0.589   8.124  68.386  0.00  0.00    +0.000 C 
ATOM     10  C   UNL     1      -0.869   8.096  68.729  0.00  0.00    +0.000 C 
BRANCH   9  12
ATOM     11  C   UNL     1       2.239   9.513  69.873  0.00  0.00    +0.000 C 
ATOM     12  C   UNL     1       1.491   8.868  69.187  0.00  0.00    +0.000 C 
BRANCH  11  16
ATOM     13  O   UNL     1       5.538   9.850  73.482  0.00  0.00    +0.000 OA
ATOM     14  C   UNL     1       3.185  11.831  70.443  0.00  0.00    +0.000 C 
ATOM     15  C   UNL     1       4.143  12.347  71.405  0.00  0.00    +0.000 C 
ATOM     16  C   UNL     1       3.128  10.303  70.703  0.00  0.00    +0.000 C 
ATOM     17  C   UNL     1       4.956  11.854  72.420  0.00  0.00    +0.000 C 
ATOM     18  C   UNL     1       3.689  12.080  69.002  0.00  0.00    +0.000 C 
ATOM     19  C   UNL     1       1.791  12.447  70.694  0.00  0.00    +0.000 C 
ATOM     20  C   UNL     1       3.878   9.689  71.665  0.00  0.00    +0.000 C 
ATOM     21  C   UNL     1       4.861  10.390  72.617  0.00  0.00    +0.000 C 
ATOM     22  C   UNL     1       3.760   8.168  71.831  0.00  0.00    +0.000 C 
BRANCH  17  23
ATOM     23  O   UNL     1       5.780  12.649  73.171  0.00  0.00    +0.000 OA
ATOM     24  H   UNL     1       6.719  12.484  72.947  0.00  0.00    +0.000 HD
ENDBRANCH  17  23
ENDBRANCH  11  16
ENDBRANCH   9  12
ENDBRANCH   8   9
ENDBRANCH   6   8
ENDBRANCH   4   7
ENDBRANCH   3   4
ENDBRANCH   2   3
BRANCH   1  25
ATOM     25  C   UNL     1       6.049   7.003  60.671  0.00  0.00    +0.000 C 
BRANCH  25  26
ATOM     26  C   UNL     1       6.857   7.499  59.787  0.00  0.00    +0.000 C 
ATOM     27  C   UNL     1       7.084   6.775  58.493  0.00  0.00    +0.000 C 
BRANCH  26  29
ATOM     28  C   UNL     1       8.211   9.672  60.321  0.00  0.00    +0.000 C 
ATOM     29  C   UNL     1       7.589   8.674  60.077  0.00  0.00    +0.000 C 
BRANCH  28  30
ATOM     30  C   UNL     1       9.007  10.946  60.630  0.00  0.00    +0.000 C 
BRANCH  30  31
ATOM     31  C   UNL     1       9.685  12.021  60.884  0.00  0.00    +0.000 C 
ATOM     32  C   UNL     1       9.207  12.976  61.935  0.00  0.00    +0.000 C 
BRANCH  31  34
ATOM     33  C   UNL     1      12.026  12.391  59.765  0.00  0.00    +0.000 C 
ATOM     34  C   UNL     1      10.955  12.210  60.282  0.00  0.00    +0.000 C 
BRANCH  33  38
ATOM     35  O   UNL     1      14.746  13.086  55.748  0.00  0.00    +0.000 OA
ATOM     36  C   UNL     1      14.551  12.743  60.054  0.00  0.00    +0.000 C 
ATOM     37  C   UNL     1      15.672  12.972  59.157  0.00  0.00    +0.000 C 
ATOM     38  C   UNL     1      13.310  12.624  59.133  0.00  0.00    +0.000 C 
ATOM     39  C   UNL     1      15.891  13.102  57.789  0.00  0.00    +0.000 C 
ATOM     40  C   UNL     1      14.367  13.955  60.998  0.00  0.00    +0.000 C 
ATOM     41  C   UNL     1      14.748  11.419  60.825  0.00  0.00    +0.000 C 
ATOM     42  C   UNL     1      13.383  12.736  57.774  0.00  0.00    +0.000 C 
ATOM     43  C   UNL     1      14.668  12.983  56.965  0.00  0.00    +0.000 C 
ATOM     44  C   UNL     1      12.091  12.619  56.954  0.00  0.00    +0.000 C 
BRANCH  39  45
ATOM     45  O   UNL     1      17.128  13.324  57.249  0.00  0.00    +0.000 OA
ATOM     46  H   UNL     1      17.433  12.540  56.747  0.00  0.00    +0.000 HD
ENDBRANCH  39  45
ENDBRANCH  33  38
ENDBRANCH  31  34
ENDBRANCH  30  31
ENDBRANCH  28  30
ENDBRANCH  26  29
ENDBRANCH  25  26
ENDBRANCH   1  25
TORSDOF 16
ENDMDL
MODEL 7
REMARK VINA RESULT:      -4.9      5.787     11.999
REMARK  Name = 5281224_Astaxanthin.pdbqt.pdb
REMARK  16 active torsions:
REMARK  status: ('A' for Active; 'I' for Inactive)
REMARK    1  A    between atoms: C_1  and  C_5
REMARK    2  A    between atoms: C_2  and  C_27
REMARK    3  A    between atoms: C_3  and  C_5
REMARK    4  A    between atoms: C_3  and  C_7
REMARK    5  A    between atoms: C_6  and  C_10
REMARK    6  A    between atoms: C_8  and  C_10
REMARK    7  A    between atoms: C_8  and  C_12
REMARK    8  A    between atoms: C_11  and  C_16
REMARK    9  A    between atoms: C_17  and  O_23
REMARK   10  A    between atoms: C_25  and  C_27
REMARK   11  A    between atoms: C_25  and  C_29
REMARK   12  A    between atoms: C_28  and  C_32
REMARK   13  A    between atoms: C_30  and  C_32
REMARK   14  A    between atoms: C_30  and  C_34
REMARK   15  A    between atoms: C_33  and  C_38
REMARK   16  A    between atoms: C_39  and  O_45
REMARK                            x       y       z     vdW  Elec       q    Type
REMARK                         _______ _______ _______ _____ _____    ______ ____
ROOT
ATOM      1  C   UNL     1      15.740  10.913  60.749  0.00  0.00    +0.000 C 
ATOM      2  C   UNL     1      14.714  11.511  60.923  0.00  0.00    +0.000 C 
ENDROOT
BRANCH   2   3
ATOM      3  C   UNL     1      13.407  12.281  61.151  0.00  0.00    +0.000 C 
BRANCH   3   4
ATOM      4  C   UNL     1      12.300  12.926  61.346  0.00  0.00    +0.000 C 
ATOM      5  C   UNL     1      12.273  14.100  62.278  0.00  0.00    +0.000 C 
BRANCH   4   7
ATOM      6  C   UNL     1      10.086  12.093  60.229  0.00  0.00    +0.000 C 
ATOM      7  C   UNL     1      11.102  12.474  60.743  0.00  0.00    +0.000 C 
BRANCH   6   8
ATOM      8  C   UNL     1       8.789  11.610  59.570  0.00  0.00    +0.000 C 
BRANCH   8   9
ATOM      9  C   UNL     1       7.688  11.199  59.020  0.00  0.00    +0.000 C 
ATOM     10  C   UNL     1       7.005  12.047  57.991  0.00  0.00    +0.000 C 
BRANCH   9  12
ATOM     11  C   UNL     1       6.801   8.782  59.504  0.00  0.00    +0.000 C 
ATOM     12  C   UNL     1       7.220   9.887  59.281  0.00  0.00    +0.000 C 
BRANCH  11  16
ATOM     13  O   UNL     1       6.686   3.967  58.595  0.00  0.00    +0.000 OA
ATOM     14  C   UNL     1       5.217   7.320  60.897  0.00  0.00    +0.000 C 
ATOM     15  C   UNL     1       4.890   5.905  60.943  0.00  0.00    +0.000 C 
ATOM     16  C   UNL     1       6.280   7.457  59.777  0.00  0.00    +0.000 C 
ATOM     17  C   UNL     1       5.262   4.736  60.287  0.00  0.00    +0.000 C 
ATOM     18  C   UNL     1       5.837   7.768  62.241  0.00  0.00    +0.000 C 
ATOM     19  C   UNL     1       3.966   8.144  60.522  0.00  0.00    +0.000 C 
ATOM     20  C   UNL     1       6.738   6.389  59.058  0.00  0.00    +0.000 C 
ATOM     21  C   UNL     1       6.283   4.931  59.233  0.00  0.00    +0.000 C 
ATOM     22  C   UNL     1       7.804   6.630  57.981  0.00  0.00    +0.000 C 
BRANCH  17  23
ATOM     23  O   UNL     1       4.738   3.509  60.591  0.00  0.00    +0.000 OA
ATOM     24  H   UNL     1       3.899   3.603  61.086  0.00  0.00    +0.000 HD
ENDBRANCH  17  23
ENDBRANCH  11  16
ENDBRANCH   9  12
ENDBRANCH   8   9
ENDBRANCH   6   8
ENDBRANCH   4   7
ENDBRANCH   3   4
ENDBRANCH   2   3
BRANCH   1  25
ATOM     25  C   UNL     1      17.054  10.154  60.535  0.00  0.00    +0.000 C 
BRANCH  25  26
ATOM     26  C   UNL     1      18.166   9.515  60.348  0.00  0.00    +0.000 C 
ATOM     27  C   UNL     1      18.957   9.032  61.528  0.00  0.00    +0.000 C 
BRANCH  26  29
ATOM     28  C   UNL     1      19.112   9.211  57.929  0.00  0.00    +0.000 C 
ATOM     29  C   UNL     1      18.677   9.349  59.040  0.00  0.00    +0.000 C 
BRANCH  28  30
ATOM     30  C   UNL     1      19.670   9.036  56.510  0.00  0.00    +0.000 C 
BRANCH  30  31
ATOM     31  C   UNL     1      20.143   8.898  55.312  0.00  0.00    +0.000 C 
ATOM     32  C   UNL     1      21.354   8.046  55.079  0.00  0.00    +0.000 C 
BRANCH  31  34
ATOM     33  C   UNL     1      18.822   9.849  53.259  0.00  0.00    +0.000 C 
ATOM     34  C   UNL     1      19.424   9.421  54.208  0.00  0.00    +0.000 C 
BRANCH  33  38
ATOM     35  O   UNL     1      17.670   9.590  48.502  0.00  0.00    +0.000 OA
ATOM     36  C   UNL     1      17.198  11.593  52.306  0.00  0.00    +0.000 C 
ATOM     37  C   UNL     1      16.621  11.861  50.999  0.00  0.00    +0.000 C 
ATOM     38  C   UNL     1      18.106  10.352  52.103  0.00  0.00    +0.000 C 
ATOM     39  C   UNL     1      16.674  11.326  49.716  0.00  0.00    +0.000 C 
ATOM     40  C   UNL     1      16.083  11.244  53.320  0.00  0.00    +0.000 C 
ATOM     41  C   UNL     1      18.059  12.790  52.764  0.00  0.00    +0.000 C 
ATOM     42  C   UNL     1      18.245   9.727  50.897  0.00  0.00    +0.000 C 
ATOM     43  C   UNL     1      17.553  10.143  49.589  0.00  0.00    +0.000 C 
ATOM     44  C   UNL     1      19.157   8.496  50.807  0.00  0.00    +0.000 C 
BRANCH  39  45
ATOM     45  O   UNL     1      15.972  11.844  48.661  0.00  0.00    +0.000 OA
ATOM     46  H   UNL     1      15.566  12.702  48.904  0.00  0.00    +0.000 HD
ENDBRANCH  39  45
ENDBRANCH  33  38
ENDBRANCH  31  34
ENDBRANCH  30  31
ENDBRANCH  28  30
ENDBRANCH  26  29
ENDBRANCH  25  26
ENDBRANCH   1  25
TORSDOF 16
ENDMDL
MODEL 8
REMARK VINA RESULT:      -4.9     15.296     21.297
REMARK  Name = 5281224_Astaxanthin.pdbqt.pdb
REMARK  16 active torsions:
REMARK  status: ('A' for Active; 'I' for Inactive)
REMARK    1  A    between atoms: C_1  and  C_5
REMARK    2  A    between atoms: C_2  and  C_27
REMARK    3  A    between atoms: C_3  and  C_5
REMARK    4  A    between atoms: C_3  and  C_7
REMARK    5  A    between atoms: C_6  and  C_10
REMARK    6  A    between atoms: C_8  and  C_10
REMARK    7  A    between atoms: C_8  and  C_12
REMARK    8  A    between atoms: C_11  and  C_16
REMARK    9  A    between atoms: C_17  and  O_23
REMARK   10  A    between atoms: C_25  and  C_27
REMARK   11  A    between atoms: C_25  and  C_29
REMARK   12  A    between atoms: C_28  and  C_32
REMARK   13  A    between atoms: C_30  and  C_32
REMARK   14  A    between atoms: C_30  and  C_34
REMARK   15  A    between atoms: C_33  and  C_38
REMARK   16  A    between atoms: C_39  and  O_45
REMARK                            x       y       z     vdW  Elec       q    Type
REMARK                         _______ _______ _______ _____ _____    ______ ____
ROOT
ATOM      1  C   UNL     1       7.250  -0.962  68.080  0.00  0.00    +0.000 C 
ATOM      2  C   UNL     1       6.060  -1.032  67.950  0.00  0.00    +0.000 C 
ENDROOT
BRANCH   2   3
ATOM      3  C   UNL     1       4.537  -1.129  67.786  0.00  0.00    +0.000 C 
BRANCH   3   4
ATOM      4  C   UNL     1       3.252  -1.217  67.649  0.00  0.00    +0.000 C 
ATOM      5  C   UNL     1       2.637  -2.497  67.169  0.00  0.00    +0.000 C 
BRANCH   4   7
ATOM      6  C   UNL     1       1.746   0.881  68.066  0.00  0.00    +0.000 C 
ATOM      7  C   UNL     1       2.437  -0.083  67.877  0.00  0.00    +0.000 C 
BRANCH   6   8
ATOM      8  C   UNL     1       0.863   2.111  68.305  0.00  0.00    +0.000 C 
BRANCH   8   9
ATOM      9  C   UNL     1       0.113   3.149  68.513  0.00  0.00    +0.000 C 
ATOM     10  C   UNL     1      -1.046   3.055  69.459  0.00  0.00    +0.000 C 
BRANCH   9  12
ATOM     11  C   UNL     1       0.794   5.476  67.522  0.00  0.00    +0.000 C 
ATOM     12  C   UNL     1       0.480   4.403  67.966  0.00  0.00    +0.000 C 
BRANCH  11  16
ATOM     13  O   UNL     1       2.169   8.356  63.803  0.00  0.00    +0.000 OA
ATOM     14  C   UNL     1       1.199   7.966  67.998  0.00  0.00    +0.000 C 
ATOM     15  C   UNL     1       1.602   9.116  67.208  0.00  0.00    +0.000 C 
ATOM     16  C   UNL     1       1.170   6.777  67.004  0.00  0.00    +0.000 C 
ATOM     17  C   UNL     1       1.942   9.395  65.888  0.00  0.00    +0.000 C 
ATOM     18  C   UNL     1      -0.223   8.182  68.569  0.00  0.00    +0.000 C 
ATOM     19  C   UNL     1       2.240   7.686  69.104  0.00  0.00    +0.000 C 
ATOM     20  C   UNL     1       1.478   6.913  65.680  0.00  0.00    +0.000 C 
ATOM     21  C   UNL     1       1.893   8.222  64.988  0.00  0.00    +0.000 C 
ATOM     22  C   UNL     1       1.404   5.675  64.775  0.00  0.00    +0.000 C 
BRANCH  17  23
ATOM     23  O   UNL     1       2.287  10.647  65.454  0.00  0.00    +0.000 OA
ATOM     24  H   UNL     1       3.031  10.601  64.819  0.00  0.00    +0.000 HD
ENDBRANCH  17  23
ENDBRANCH  11  16
ENDBRANCH   9  12
ENDBRANCH   8   9
ENDBRANCH   6   8
ENDBRANCH   4   7
ENDBRANCH   3   4
ENDBRANCH   2   3
BRANCH   1  25
ATOM     25  C   UNL     1       8.772  -0.884  68.248  0.00  0.00    +0.000 C 
BRANCH  25  26
ATOM     26  C   UNL     1      10.058  -0.812  68.391  0.00  0.00    +0.000 C 
ATOM     27  C   UNL     1      10.954  -1.017  67.205  0.00  0.00    +0.000 C 
BRANCH  26  29
ATOM     28  C   UNL     1      11.093  -0.472  70.769  0.00  0.00    +0.000 C 
ATOM     29  C   UNL     1      10.619  -0.626  69.676  0.00  0.00    +0.000 C 
BRANCH  28  30
ATOM     30  C   UNL     1      11.698  -0.277  72.165  0.00  0.00    +0.000 C 
BRANCH  30  31
ATOM     31  C   UNL     1      12.217  -0.113  73.341  0.00  0.00    +0.000 C 
ATOM     32  C   UNL     1      13.613  -0.584  73.615  0.00  0.00    +0.000 C 
BRANCH  31  34
ATOM     33  C   UNL     1      10.934   1.313  75.126  0.00  0.00    +0.000 C 
ATOM     34  C   UNL     1      11.525   0.650  74.315  0.00  0.00    +0.000 C 
BRANCH  33  38
ATOM     35  O   UNL     1      10.173   5.614  77.350  0.00  0.00    +0.000 OA
ATOM     36  C   UNL     1       9.105   1.445  76.922  0.00  0.00    +0.000 C 
ATOM     37  C   UNL     1       8.582   2.488  77.788  0.00  0.00    +0.000 C 
ATOM     38  C   UNL     1      10.223   2.128  76.093  0.00  0.00    +0.000 C 
ATOM     39  C   UNL     1       8.814   3.837  78.039  0.00  0.00    +0.000 C 
ATOM     40  C   UNL     1       8.000   0.943  75.963  0.00  0.00    +0.000 C 
ATOM     41  C   UNL     1       9.714   0.306  77.768  0.00  0.00    +0.000 C 
ATOM     42  C   UNL     1      10.551   3.446  76.235  0.00  0.00    +0.000 C 
ATOM     43  C   UNL     1       9.889   4.431  77.214  0.00  0.00    +0.000 C 
ATOM     44  C   UNL     1      11.664   4.028  75.354  0.00  0.00    +0.000 C 
BRANCH  39  45
ATOM     45  O   UNL     1       8.108   4.557  78.964  0.00  0.00    +0.000 OA
ATOM     46  H   UNL     1       7.200   4.737  78.644  0.00  0.00    +0.000 HD
ENDBRANCH  39  45
ENDBRANCH  33  38
ENDBRANCH  31  34
ENDBRANCH  30  31
ENDBRANCH  28  30
ENDBRANCH  26  29
ENDBRANCH  25  26
ENDBRANCH   1  25
TORSDOF 16
ENDMDL
MODEL 9
REMARK VINA RESULT:      -4.9      8.467     13.244
REMARK  Name = 5281224_Astaxanthin.pdbqt.pdb
REMARK  16 active torsions:
REMARK  status: ('A' for Active; 'I' for Inactive)
REMARK    1  A    between atoms: C_1  and  C_5
REMARK    2  A    between atoms: C_2  and  C_27
REMARK    3  A    between atoms: C_3  and  C_5
REMARK    4  A    between atoms: C_3  and  C_7
REMARK    5  A    between atoms: C_6  and  C_10
REMARK    6  A    between atoms: C_8  and  C_10
REMARK    7  A    between atoms: C_8  and  C_12
REMARK    8  A    between atoms: C_11  and  C_16
REMARK    9  A    between atoms: C_17  and  O_23
REMARK   10  A    between atoms: C_25  and  C_27
REMARK   11  A    between atoms: C_25  and  C_29
REMARK   12  A    between atoms: C_28  and  C_32
REMARK   13  A    between atoms: C_30  and  C_32
REMARK   14  A    between atoms: C_30  and  C_34
REMARK   15  A    between atoms: C_33  and  C_38
REMARK   16  A    between atoms: C_39  and  O_45
REMARK                            x       y       z     vdW  Elec       q    Type
REMARK                         _______ _______ _______ _____ _____    ______ ____
ROOT
ATOM      1  C   UNL     1      16.093  10.867  61.194  0.00  0.00    +0.000 C 
ATOM      2  C   UNL     1      15.273  11.399  60.498  0.00  0.00    +0.000 C 
ENDROOT
BRANCH   2   3
ATOM      3  C   UNL     1      14.230  12.081  59.602  0.00  0.00    +0.000 C 
BRANCH   3   4
ATOM      4  C   UNL     1      13.350  12.661  58.849  0.00  0.00    +0.000 C 
ATOM      5  C   UNL     1      13.794  13.607  57.774  0.00  0.00    +0.000 C 
BRANCH   4   7
ATOM      6  C   UNL     1      10.799  12.302  59.300  0.00  0.00    +0.000 C 
ATOM      7  C   UNL     1      11.970  12.465  59.093  0.00  0.00    +0.000 C 
BRANCH   6   8
ATOM      8  C   UNL     1       9.302  12.098  59.564  0.00  0.00    +0.000 C 
BRANCH   8   9
ATOM      9  C   UNL     1       8.035  11.933  59.787  0.00  0.00    +0.000 C 
ATOM     10  C   UNL     1       7.093  13.088  59.633  0.00  0.00    +0.000 C 
BRANCH   9  12
ATOM     11  C   UNL     1       7.076   9.537  60.237  0.00  0.00    +0.000 C 
ATOM     12  C   UNL     1       7.527  10.633  60.027  0.00  0.00    +0.000 C 
BRANCH  11  16
ATOM     13  O   UNL     1       4.989   6.313  63.281  0.00  0.00    +0.000 OA
ATOM     14  C   UNL     1       6.493   7.209  59.328  0.00  0.00    +0.000 C 
ATOM     15  C   UNL     1       5.890   6.007  59.877  0.00  0.00    +0.000 C 
ATOM     16  C   UNL     1       6.519   8.225  60.499  0.00  0.00    +0.000 C 
ATOM     17  C   UNL     1       5.373   5.573  61.094  0.00  0.00    +0.000 C 
ATOM     18  C   UNL     1       5.612   7.775  58.188  0.00  0.00    +0.000 C 
ATOM     19  C   UNL     1       7.938   6.918  58.866  0.00  0.00    +0.000 C 
ATOM     20  C   UNL     1       6.040   7.930  61.743  0.00  0.00    +0.000 C 
ATOM     21  C   UNL     1       5.423   6.587  62.170  0.00  0.00    +0.000 C 
ATOM     22  C   UNL     1       6.099   9.012  62.831  0.00  0.00    +0.000 C 
BRANCH  17  23
ATOM     23  O   UNL     1       4.856   4.320  61.282  0.00  0.00    +0.000 OA
ATOM     24  H   UNL     1       5.465   3.769  61.814  0.00  0.00    +0.000 HD
ENDBRANCH  17  23
ENDBRANCH  11  16
ENDBRANCH   9  12
ENDBRANCH   8   9
ENDBRANCH   6   8
ENDBRANCH   4   7
ENDBRANCH   3   4
ENDBRANCH   2   3
BRANCH   1  25
ATOM     25  C   UNL     1      17.147  10.188  62.075  0.00  0.00    +0.000 C 
BRANCH  25  26
ATOM     26  C   UNL     1      18.041   9.619  62.822  0.00  0.00    +0.000 C 
ATOM     27  C   UNL     1      19.162   8.849  62.189  0.00  0.00    +0.000 C 
BRANCH  26  29
ATOM     28  C   UNL     1      17.804   9.678  65.426  0.00  0.00    +0.000 C 
ATOM     29  C   UNL     1      17.912   9.650  64.230  0.00  0.00    +0.000 C 
BRANCH  28  30
ATOM     30  C   UNL     1      17.670   9.715  66.954  0.00  0.00    +0.000 C 
BRANCH  30  31
ATOM     31  C   UNL     1      17.560   9.754  68.244  0.00  0.00    +0.000 C 
ATOM     32  C   UNL     1      17.878  11.018  68.984  0.00  0.00    +0.000 C 
BRANCH  31  34
ATOM     33  C   UNL     1      16.496   7.717  69.502  0.00  0.00    +0.000 C 
ATOM     34  C   UNL     1      16.989   8.656  68.934  0.00  0.00    +0.000 C 
BRANCH  33  38
ATOM     35  O   UNL     1      14.996   3.051  69.483  0.00  0.00    +0.000 OA
ATOM     36  C   UNL     1      15.435   6.773  71.640  0.00  0.00    +0.000 C 
ATOM     37  C   UNL     1      14.878   5.491  72.038  0.00  0.00    +0.000 C 
ATOM     38  C   UNL     1      15.890   6.581  70.171  0.00  0.00    +0.000 C 
ATOM     39  C   UNL     1      14.669   4.235  71.475  0.00  0.00    +0.000 C 
ATOM     40  C   UNL     1      16.667   7.112  72.511  0.00  0.00    +0.000 C 
ATOM     41  C   UNL     1      14.348   7.869  71.704  0.00  0.00    +0.000 C 
ATOM     42  C   UNL     1      15.748   5.400  69.500  0.00  0.00    +0.000 C 
ATOM     43  C   UNL     1      15.128   4.115  70.074  0.00  0.00    +0.000 C 
ATOM     44  C   UNL     1      16.246   5.311  68.051  0.00  0.00    +0.000 C 
BRANCH  39  45
ATOM     45  O   UNL     1      14.093   3.198  72.157  0.00  0.00    +0.000 OA
ATOM     46  H   UNL     1      14.356   3.215  73.101  0.00  0.00    +0.000 HD
ENDBRANCH  39  45
ENDBRANCH  33  38
ENDBRANCH  31  34
ENDBRANCH  30  31
ENDBRANCH  28  30
ENDBRANCH  26  29
ENDBRANCH  25  26
ENDBRANCH   1  25
TORSDOF 16
ENDMDL
