MODEL 1
REMARK VINA RESULT:      -4.3      0.000      0.000
REMARK  Name = 5281698_sexangularetin.pdbqt.pdb
REMARK  6 active torsions:
REMARK  status: ('A' for Active; 'I' for Inactive)
REMARK    1  A    between atoms: C_5  and  C_12
REMARK    2  A    between atoms: C_6  and  O_20
REMARK    3  A    between atoms: C_8  and  O_22
REMARK    4  A    between atoms: C_9  and  O_24
REMARK    5  A    between atoms: C_10  and  O_26
REMARK    6  A    between atoms: C_17  and  O_18
REMARK                            x       y       z     vdW  Elec       q    Type
REMARK                         _______ _______ _______ _____ _____    ______ ____
ROOT
ATOM      1  O   UNL     1       7.085   8.639  59.654  0.00  0.00    +0.000 OA
ATOM      2  O   UNL     1       5.795   8.857  63.488  0.00  0.00    +0.000 OA
ATOM      3  C   UNL     1       6.016   7.557  61.539  0.00  0.00    +0.000 A 
ATOM      4  C   UNL     1       6.471   7.551  60.221  0.00  0.00    +0.000 A 
ATOM      5  C   UNL     1       7.214   9.816  60.383  0.00  0.00    +0.000 A 
ATOM      6  C   UNL     1       6.322   6.393  59.445  0.00  0.00    +0.000 A 
ATOM      7  C   UNL     1       6.172   8.785  62.321  0.00  0.00    +0.000 A 
ATOM      8  C   UNL     1       6.807   9.946  61.660  0.00  0.00    +0.000 A 
ATOM      9  C   UNL     1       5.436   6.410  62.093  0.00  0.00    +0.000 A 
ATOM     10  C   UNL     1       5.777   5.239  60.019  0.00  0.00    +0.000 A 
ATOM     11  C   UNL     1       5.323   5.249  61.336  0.00  0.00    +0.000 A 
ENDROOT
BRANCH   5  12
ATOM     12  C   UNL     1       7.861  10.899  59.615  0.00  0.00    +0.000 A 
ATOM     13  C   UNL     1       9.128  11.358  59.997  0.00  0.00    +0.000 A 
ATOM     14  C   UNL     1       7.280  11.443  58.465  0.00  0.00    +0.000 A 
ATOM     15  C   UNL     1       9.785  12.348  59.270  0.00  0.00    +0.000 A 
ATOM     16  C   UNL     1       7.927  12.435  57.729  0.00  0.00    +0.000 A 
ATOM     17  C   UNL     1       9.177  12.879  58.140  0.00  0.00    +0.000 A 
BRANCH  17  18
ATOM     18  O   UNL     1       9.795  13.850  57.406  0.00  0.00    +0.000 OA
ATOM     19  H   UNL     1      10.542  14.193  57.926  0.00  0.00    +0.000 HD
ENDBRANCH  17  18
ENDBRANCH   5  12
BRANCH   6  20
ATOM     20  O   UNL     1       6.785   6.336  58.153  0.00  0.00    +0.000 OA
ATOM     21  C   UNL     1       8.153   6.005  58.118  0.00  0.00    +0.000 C 
ENDBRANCH   6  20
BRANCH   8  22
ATOM     22  O   UNL     1       6.960  11.092  62.416  0.00  0.00    +0.000 OA
ATOM     23  H   UNL     1       6.111  11.212  62.891  0.00  0.00    +0.000 HD
ENDBRANCH   8  22
BRANCH   9  24
ATOM     24  O   UNL     1       4.972   6.351  63.378  0.00  0.00    +0.000 OA
ATOM     25  H   UNL     1       5.735   6.231  63.987  0.00  0.00    +0.000 HD
ENDBRANCH   9  24
BRANCH  10  26
ATOM     26  O   UNL     1       5.704   4.085  59.291  0.00  0.00    +0.000 OA
ATOM     27  H   UNL     1       4.842   3.663  59.462  0.00  0.00    +0.000 HD
ENDBRANCH  10  26
TORSDOF 6
ENDMDL
MODEL 2
REMARK VINA RESULT:      -4.2      5.445      8.631
REMARK  Name = 5281698_sexangularetin.pdbqt.pdb
REMARK  6 active torsions:
REMARK  status: ('A' for Active; 'I' for Inactive)
REMARK    1  A    between atoms: C_5  and  C_12
REMARK    2  A    between atoms: C_6  and  O_20
REMARK    3  A    between atoms: C_8  and  O_22
REMARK    4  A    between atoms: C_9  and  O_24
REMARK    5  A    between atoms: C_10  and  O_26
REMARK    6  A    between atoms: C_17  and  O_18
REMARK                            x       y       z     vdW  Elec       q    Type
REMARK                         _______ _______ _______ _____ _____    ______ ____
ROOT
ATOM      1  O   UNL     1      12.666  12.158  60.997  0.00  0.00    +0.000 OA
ATOM      2  O   UNL     1      12.780  12.624  56.974  0.00  0.00    +0.000 OA
ATOM      3  C   UNL     1      11.468  12.546  58.927  0.00  0.00    +0.000 A 
ATOM      4  C   UNL     1      11.497  12.366  60.309  0.00  0.00    +0.000 A 
ATOM      5  C   UNL     1      13.866  12.062  60.303  0.00  0.00    +0.000 A 
ATOM      6  C   UNL     1      10.299  12.418  61.037  0.00  0.00    +0.000 A 
ATOM      7  C   UNL     1      12.733  12.471  58.193  0.00  0.00    +0.000 A 
ATOM      8  C   UNL     1      13.965  12.211  58.968  0.00  0.00    +0.000 A 
ATOM      9  C   UNL     1      10.259  12.800  58.271  0.00  0.00    +0.000 A 
ATOM     10  C   UNL     1       9.100  12.713  60.377  0.00  0.00    +0.000 A 
ATOM     11  C   UNL     1       9.076  12.891  58.997  0.00  0.00    +0.000 A 
ENDROOT
BRANCH   5  12
ATOM     12  C   UNL     1      15.021  11.801  61.186  0.00  0.00    +0.000 A 
ATOM     13  C   UNL     1      15.591  10.522  61.221  0.00  0.00    +0.000 A 
ATOM     14  C   UNL     1      15.617  12.811  61.947  0.00  0.00    +0.000 A 
ATOM     15  C   UNL     1      16.706  10.251  62.010  0.00  0.00    +0.000 A 
ATOM     16  C   UNL     1      16.732  12.553  62.742  0.00  0.00    +0.000 A 
ATOM     17  C   UNL     1      17.268  11.272  62.767  0.00  0.00    +0.000 A 
BRANCH  17  18
ATOM     18  O   UNL     1      18.362  11.040  63.550  0.00  0.00    +0.000 OA
ATOM     19  H   UNL     1      18.077  11.058  64.480  0.00  0.00    +0.000 HD
ENDBRANCH  17  18
ENDBRANCH   5  12
BRANCH   6  20
ATOM     20  O   UNL     1      10.287  12.277  62.403  0.00  0.00    +0.000 OA
ATOM     21  C   UNL     1      10.507  13.513  63.043  0.00  0.00    +0.000 C 
ENDBRANCH   6  20
BRANCH   8  22
ATOM     22  O   UNL     1      15.152  12.159  58.261  0.00  0.00    +0.000 OA
ATOM     23  H   UNL     1      15.119  12.910  57.632  0.00  0.00    +0.000 HD
ENDBRANCH   8  22
BRANCH   9  24
ATOM     24  O   UNL     1      10.164  12.987  56.919  0.00  0.00    +0.000 OA
ATOM     25  H   UNL     1      11.000  13.393  56.594  0.00  0.00    +0.000 HD
ENDBRANCH   9  24
BRANCH  10  26
ATOM     26  O   UNL     1       7.944  12.844  61.093  0.00  0.00    +0.000 OA
ATOM     27  H   UNL     1       7.528  11.965  61.178  0.00  0.00    +0.000 HD
ENDBRANCH  10  26
TORSDOF 6
ENDMDL
MODEL 3
REMARK VINA RESULT:      -3.9      8.251     10.893
REMARK  Name = 5281698_sexangularetin.pdbqt.pdb
REMARK  6 active torsions:
REMARK  status: ('A' for Active; 'I' for Inactive)
REMARK    1  A    between atoms: C_5  and  C_12
REMARK    2  A    between atoms: C_6  and  O_20
REMARK    3  A    between atoms: C_8  and  O_22
REMARK    4  A    between atoms: C_9  and  O_24
REMARK    5  A    between atoms: C_10  and  O_26
REMARK    6  A    between atoms: C_17  and  O_18
REMARK                            x       y       z     vdW  Elec       q    Type
REMARK                         _______ _______ _______ _____ _____    ______ ____
ROOT
ATOM      1  O   UNL     1      16.161  11.978  59.236  0.00  0.00    +0.000 OA
ATOM      2  O   UNL     1      18.319   9.015  60.962  0.00  0.00    +0.000 OA
ATOM      3  C   UNL     1      17.858  10.263  59.020  0.00  0.00    +0.000 A 
ATOM      4  C   UNL     1      17.076  11.285  58.484  0.00  0.00    +0.000 A 
ATOM      5  C   UNL     1      15.951  11.625  60.565  0.00  0.00    +0.000 A 
ATOM      6  C   UNL     1      17.233  11.640  57.137  0.00  0.00    +0.000 A 
ATOM      7  C   UNL     1      17.661   9.903  60.426  0.00  0.00    +0.000 A 
ATOM      8  C   UNL     1      16.640  10.652  61.191  0.00  0.00    +0.000 A 
ATOM      9  C   UNL     1      18.811   9.612  58.229  0.00  0.00    +0.000 A 
ATOM     10  C   UNL     1      18.217  11.011  56.365  0.00  0.00    +0.000 A 
ATOM     11  C   UNL     1      18.996   9.992  56.904  0.00  0.00    +0.000 A 
ENDROOT
BRANCH   5  12
ATOM     12  C   UNL     1      14.909  12.443  61.219  0.00  0.00    +0.000 A 
ATOM     13  C   UNL     1      15.283  13.504  62.052  0.00  0.00    +0.000 A 
ATOM     14  C   UNL     1      13.547  12.237  60.981  0.00  0.00    +0.000 A 
ATOM     15  C   UNL     1      14.327  14.322  62.650  0.00  0.00    +0.000 A 
ATOM     16  C   UNL     1      12.580  13.047  61.574  0.00  0.00    +0.000 A 
ATOM     17  C   UNL     1      12.980  14.085  62.405  0.00  0.00    +0.000 A 
BRANCH  17  18
ATOM     18  O   UNL     1      12.019  14.868  62.976  0.00  0.00    +0.000 OA
ATOM     19  H   UNL     1      12.129  14.827  63.942  0.00  0.00    +0.000 HD
ENDBRANCH  17  18
ENDBRANCH   5  12
BRANCH   6  20
ATOM     20  O   UNL     1      16.504  12.662  56.579  0.00  0.00    +0.000 OA
ATOM     21  C   UNL     1      15.320  12.178  55.990  0.00  0.00    +0.000 C 
ENDBRANCH   6  20
BRANCH   8  22
ATOM     22  O   UNL     1      16.477  10.310  62.520  0.00  0.00    +0.000 OA
ATOM     23  H   UNL     1      16.553   9.333  62.554  0.00  0.00    +0.000 HD
ENDBRANCH   8  22
BRANCH   9  24
ATOM     24  O   UNL     1      19.611   8.605  58.695  0.00  0.00    +0.000 OA
ATOM     25  H   UNL     1      20.036   8.897  59.534  0.00  0.00    +0.000 HD
ENDBRANCH   9  24
BRANCH  10  26
ATOM     26  O   UNL     1      18.428  11.411  55.076  0.00  0.00    +0.000 OA
ATOM     27  H   UNL     1      18.604  12.370  55.071  0.00  0.00    +0.000 HD
ENDBRANCH  10  26
TORSDOF 6
ENDMDL
MODEL 4
REMARK VINA RESULT:      -3.8     10.363     12.668
REMARK  Name = 5281698_sexangularetin.pdbqt.pdb
REMARK  6 active torsions:
REMARK  status: ('A' for Active; 'I' for Inactive)
REMARK    1  A    between atoms: C_5  and  C_12
REMARK    2  A    between atoms: C_6  and  O_20
REMARK    3  A    between atoms: C_8  and  O_22
REMARK    4  A    between atoms: C_9  and  O_24
REMARK    5  A    between atoms: C_10  and  O_26
REMARK    6  A    between atoms: C_17  and  O_18
REMARK                            x       y       z     vdW  Elec       q    Type
REMARK                         _______ _______ _______ _____ _____    ______ ____
ROOT
ATOM      1  O   UNL     1      17.580  10.454  57.444  0.00  0.00    +0.000 OA
ATOM      2  O   UNL     1      20.709   7.981  56.731  0.00  0.00    +0.000 OA
ATOM      3  C   UNL     1      18.894   9.192  55.848  0.00  0.00    +0.000 A 
ATOM      4  C   UNL     1      17.827  10.033  56.162  0.00  0.00    +0.000 A 
ATOM      5  C   UNL     1      18.374   9.992  58.487  0.00  0.00    +0.000 A 
ATOM      6  C   UNL     1      16.983  10.487  55.139  0.00  0.00    +0.000 A 
ATOM      7  C   UNL     1      19.750   8.721  56.938  0.00  0.00    +0.000 A 
ATOM      8  C   UNL     1      19.428   9.172  58.310  0.00  0.00    +0.000 A 
ATOM      9  C   UNL     1      19.137   8.822  54.520  0.00  0.00    +0.000 A 
ATOM     10  C   UNL     1      17.257  10.144  53.810  0.00  0.00    +0.000 A 
ATOM     11  C   UNL     1      18.323   9.304  53.500  0.00  0.00    +0.000 A 
ENDROOT
BRANCH   5  12
ATOM     12  C   UNL     1      17.952  10.511  59.804  0.00  0.00    +0.000 A 
ATOM     13  C   UNL     1      17.022   9.793  60.566  0.00  0.00    +0.000 A 
ATOM     14  C   UNL     1      18.503  11.672  60.356  0.00  0.00    +0.000 A 
ATOM     15  C   UNL     1      16.634  10.231  61.830  0.00  0.00    +0.000 A 
ATOM     16  C   UNL     1      18.122  12.122  61.618  0.00  0.00    +0.000 A 
ATOM     17  C   UNL     1      17.189  11.396  62.346  0.00  0.00    +0.000 A 
BRANCH  17  18
ATOM     18  O   UNL     1      16.830  11.852  63.581  0.00  0.00    +0.000 OA
ATOM     19  H   UNL     1      16.557  11.088  64.119  0.00  0.00    +0.000 HD
ENDBRANCH  17  18
ENDBRANCH   5  12
BRANCH   6  20
ATOM     20  O   UNL     1      15.939  11.342  55.402  0.00  0.00    +0.000 OA
ATOM     21  C   UNL     1      16.365  12.684  55.381  0.00  0.00    +0.000 C 
ENDBRANCH   6  20
BRANCH   8  22
ATOM     22  O   UNL     1      20.254   8.731  59.326  0.00  0.00    +0.000 OA
ATOM     23  H   UNL     1      20.144   7.757  59.354  0.00  0.00    +0.000 HD
ENDBRANCH   8  22
BRANCH   9  24
ATOM     24  O   UNL     1      20.167   8.003  54.147  0.00  0.00    +0.000 OA
ATOM     25  H   UNL     1      20.926   8.557  53.857  0.00  0.00    +0.000 HD
ENDBRANCH   9  24
BRANCH  10  26
ATOM     26  O   UNL     1      16.485  10.650  52.803  0.00  0.00    +0.000 OA
ATOM     27  H   UNL     1      15.860   9.960  52.513  0.00  0.00    +0.000 HD
ENDBRANCH  10  26
TORSDOF 6
ENDMDL
MODEL 5
REMARK VINA RESULT:      -3.8      7.547     11.129
REMARK  Name = 5281698_sexangularetin.pdbqt.pdb
REMARK  6 active torsions:
REMARK  status: ('A' for Active; 'I' for Inactive)
REMARK    1  A    between atoms: C_5  and  C_12
REMARK    2  A    between atoms: C_6  and  O_20
REMARK    3  A    between atoms: C_8  and  O_22
REMARK    4  A    between atoms: C_9  and  O_24
REMARK    5  A    between atoms: C_10  and  O_26
REMARK    6  A    between atoms: C_17  and  O_18
REMARK                            x       y       z     vdW  Elec       q    Type
REMARK                         _______ _______ _______ _____ _____    ______ ____
ROOT
ATOM      1  O   UNL     1      16.300  11.331  59.454  0.00  0.00    +0.000 OA
ATOM      2  O   UNL     1      16.830  13.341  55.977  0.00  0.00    +0.000 OA
ATOM      3  C   UNL     1      17.538  11.596  57.389  0.00  0.00    +0.000 A 
ATOM      4  C   UNL     1      17.310  10.954  58.605  0.00  0.00    +0.000 A 
ATOM      5  C   UNL     1      15.504  12.425  59.135  0.00  0.00    +0.000 A 
ATOM      6  C   UNL     1      18.119   9.871  58.976  0.00  0.00    +0.000 A 
ATOM      7  C   UNL     1      16.686  12.733  57.035  0.00  0.00    +0.000 A 
ATOM      8  C   UNL     1      15.631  13.128  57.994  0.00  0.00    +0.000 A 
ATOM      9  C   UNL     1      18.550  11.150  56.532  0.00  0.00    +0.000 A 
ATOM     10  C   UNL     1      19.103   9.408  58.095  0.00  0.00    +0.000 A 
ATOM     11  C   UNL     1      19.328  10.051  56.881  0.00  0.00    +0.000 A 
ENDROOT
BRANCH   5  12
ATOM     12  C   UNL     1      14.492  12.719  60.171  0.00  0.00    +0.000 A 
ATOM     13  C   UNL     1      14.829  13.536  61.257  0.00  0.00    +0.000 A 
ATOM     14  C   UNL     1      13.174  12.263  60.071  0.00  0.00    +0.000 A 
ATOM     15  C   UNL     1      13.888  13.869  62.228  0.00  0.00    +0.000 A 
ATOM     16  C   UNL     1      12.222  12.587  61.036  0.00  0.00    +0.000 A 
ATOM     17  C   UNL     1      12.589  13.390  62.109  0.00  0.00    +0.000 A 
BRANCH  17  18
ATOM     18  O   UNL     1      11.643  13.697  63.043  0.00  0.00    +0.000 OA
ATOM     19  H   UNL     1      12.080  13.749  63.912  0.00  0.00    +0.000 HD
ENDBRANCH  17  18
ENDBRANCH   5  12
BRANCH   6  20
ATOM     20  O   UNL     1      17.908   9.192  60.151  0.00  0.00    +0.000 OA
ATOM     21  C   UNL     1      18.697   9.720  61.192  0.00  0.00    +0.000 C 
ENDBRANCH   6  20
BRANCH   8  22
ATOM     22  O   UNL     1      14.827  14.194  57.638  0.00  0.00    +0.000 OA
ATOM     23  H   UNL     1      15.429  14.862  57.248  0.00  0.00    +0.000 HD
ENDBRANCH   8  22
BRANCH   9  24
ATOM     24  O   UNL     1      18.822  11.735  55.325  0.00  0.00    +0.000 OA
ATOM     25  H   UNL     1      18.117  11.487  54.685  0.00  0.00    +0.000 HD
ENDBRANCH   9  24
BRANCH  10  26
ATOM     26  O   UNL     1      19.840   8.303  58.417  0.00  0.00    +0.000 OA
ATOM     27  H   UNL     1      20.731   8.400  58.033  0.00  0.00    +0.000 HD
ENDBRANCH  10  26
TORSDOF 6
ENDMDL
MODEL 6
REMARK VINA RESULT:      -3.8     12.521     14.627
REMARK  Name = 5281698_sexangularetin.pdbqt.pdb
REMARK  6 active torsions:
REMARK  status: ('A' for Active; 'I' for Inactive)
REMARK    1  A    between atoms: C_5  and  C_12
REMARK    2  A    between atoms: C_6  and  O_20
REMARK    3  A    between atoms: C_8  and  O_22
REMARK    4  A    between atoms: C_9  and  O_24
REMARK    5  A    between atoms: C_10  and  O_26
REMARK    6  A    between atoms: C_17  and  O_18
REMARK                            x       y       z     vdW  Elec       q    Type
REMARK                         _______ _______ _______ _____ _____    ______ ____
ROOT
ATOM      1  O   UNL     1      15.376   8.150  70.955  0.00  0.00    +0.000 OA
ATOM      2  O   UNL     1      13.679   8.367  67.282  0.00  0.00    +0.000 OA
ATOM      3  C   UNL     1      14.026   9.392  69.372  0.00  0.00    +0.000 A 
ATOM      4  C   UNL     1      14.626   9.251  70.622  0.00  0.00    +0.000 A 
ATOM      5  C   UNL     1      15.504   7.104  70.048  0.00  0.00    +0.000 A 
ATOM      6  C   UNL     1      14.485  10.269  71.575  0.00  0.00    +0.000 A 
ATOM      7  C   UNL     1      14.179   8.306  68.403  0.00  0.00    +0.000 A 
ATOM      8  C   UNL     1      14.966   7.122  68.814  0.00  0.00    +0.000 A 
ATOM      9  C   UNL     1      13.307  10.551  69.059  0.00  0.00    +0.000 A 
ATOM     10  C   UNL     1      13.798  11.442  71.239  0.00  0.00    +0.000 A 
ATOM     11  C   UNL     1      13.200  11.580  69.989  0.00  0.00    +0.000 A 
ENDROOT
BRANCH   5  12
ATOM     12  C   UNL     1      16.309   5.983  70.574  0.00  0.00    +0.000 A 
ATOM     13  C   UNL     1      17.706   6.031  70.484  0.00  0.00    +0.000 A 
ATOM     14  C   UNL     1      15.726   4.894  71.229  0.00  0.00    +0.000 A 
ATOM     15  C   UNL     1      18.498   5.012  71.009  0.00  0.00    +0.000 A 
ATOM     16  C   UNL     1      16.506   3.867  71.757  0.00  0.00    +0.000 A 
ATOM     17  C   UNL     1      17.889   3.935  71.642  0.00  0.00    +0.000 A 
BRANCH  17  18
ATOM     18  O   UNL     1      18.635   2.921  72.166  0.00  0.00    +0.000 OA
ATOM     19  H   UNL     1      18.101   2.470  72.843  0.00  0.00    +0.000 HD
ENDBRANCH  17  18
ENDBRANCH   5  12
BRANCH   6  20
ATOM     20  O   UNL     1      15.086  10.183  72.807  0.00  0.00    +0.000 OA
ATOM     21  C   UNL     1      14.227   9.585  73.750  0.00  0.00    +0.000 C 
ENDBRANCH   6  20
BRANCH   8  22
ATOM     22  O   UNL     1      15.112   6.112  67.882  0.00  0.00    +0.000 OA
ATOM     23  H   UNL     1      14.587   6.392  67.103  0.00  0.00    +0.000 HD
ENDBRANCH   8  22
BRANCH   9  24
ATOM     24  O   UNL     1      12.698  10.752  67.851  0.00  0.00    +0.000 OA
ATOM     25  H   UNL     1      12.830   9.954  67.291  0.00  0.00    +0.000 HD
ENDBRANCH   9  24
BRANCH  10  26
ATOM     26  O   UNL     1      13.727  12.470  72.136  0.00  0.00    +0.000 OA
ATOM     27  H   UNL     1      12.790  12.621  72.363  0.00  0.00    +0.000 HD
ENDBRANCH  10  26
TORSDOF 6
ENDMDL
MODEL 7
REMARK VINA RESULT:      -3.8     12.269     12.963
REMARK  Name = 5281698_sexangularetin.pdbqt.pdb
REMARK  6 active torsions:
REMARK  status: ('A' for Active; 'I' for Inactive)
REMARK    1  A    between atoms: C_5  and  C_12
REMARK    2  A    between atoms: C_6  and  O_20
REMARK    3  A    between atoms: C_8  and  O_22
REMARK    4  A    between atoms: C_9  and  O_24
REMARK    5  A    between atoms: C_10  and  O_26
REMARK    6  A    between atoms: C_17  and  O_18
REMARK                            x       y       z     vdW  Elec       q    Type
REMARK                         _______ _______ _______ _____ _____    ______ ____
ROOT
ATOM      1  O   UNL     1      16.457   5.245  67.421  0.00  0.00    +0.000 OA
ATOM      2  O   UNL     1      15.114   2.503  70.084  0.00  0.00    +0.000 OA
ATOM      3  C   UNL     1      16.259   2.919  68.071  0.00  0.00    +0.000 A 
ATOM      4  C   UNL     1      16.684   3.912  67.188  0.00  0.00    +0.000 A 
ATOM      5  C   UNL     1      15.730   5.635  68.540  0.00  0.00    +0.000 A 
ATOM      6  C   UNL     1      17.387   3.550  66.030  0.00  0.00    +0.000 A 
ATOM      7  C   UNL     1      15.515   3.326  69.264  0.00  0.00    +0.000 A 
ATOM      8  C   UNL     1      15.262   4.770  69.459  0.00  0.00    +0.000 A 
ATOM      9  C   UNL     1      16.550   1.575  67.817  0.00  0.00    +0.000 A 
ATOM     10  C   UNL     1      17.708   2.207  65.806  0.00  0.00    +0.000 A 
ATOM     11  C   UNL     1      17.282   1.219  66.689  0.00  0.00    +0.000 A 
ENDROOT
BRANCH   5  12
ATOM     12  C   UNL     1      15.544   7.099  68.622  0.00  0.00    +0.000 A 
ATOM     13  C   UNL     1      16.623   7.915  68.983  0.00  0.00    +0.000 A 
ATOM     14  C   UNL     1      14.335   7.713  68.282  0.00  0.00    +0.000 A 
ATOM     15  C   UNL     1      16.495   9.301  69.028  0.00  0.00    +0.000 A 
ATOM     16  C   UNL     1      14.192   9.099  68.325  0.00  0.00    +0.000 A 
ATOM     17  C   UNL     1      15.277   9.882  68.699  0.00  0.00    +0.000 A 
BRANCH  17  18
ATOM     18  O   UNL     1      15.118  11.237  68.733  0.00  0.00    +0.000 OA
ATOM     19  H   UNL     1      15.977  11.638  68.956  0.00  0.00    +0.000 HD
ENDBRANCH  17  18
ENDBRANCH   5  12
BRANCH   6  20
ATOM     20  O   UNL     1      17.850   4.499  65.151  0.00  0.00    +0.000 OA
ATOM     21  C   UNL     1      19.110   4.987  65.549  0.00  0.00    +0.000 C 
ENDBRANCH   6  20
BRANCH   8  22
ATOM     22  O   UNL     1      14.571   5.138  70.598  0.00  0.00    +0.000 OA
ATOM     23  H   UNL     1      15.079   4.764  71.349  0.00  0.00    +0.000 HD
ENDBRANCH   8  22
BRANCH   9  24
ATOM     24  O   UNL     1      16.164   0.555  68.644  0.00  0.00    +0.000 OA
ATOM     25  H   UNL     1      15.504   0.899  69.287  0.00  0.00    +0.000 HD
ENDBRANCH   9  24
BRANCH  10  26
ATOM     26  O   UNL     1      18.462   1.859  64.720  0.00  0.00    +0.000 OA
ATOM     27  H   UNL     1      19.009   1.087  64.955  0.00  0.00    +0.000 HD
ENDBRANCH  10  26
TORSDOF 6
ENDMDL
MODEL 8
REMARK VINA RESULT:      -3.8     13.104     15.621
REMARK  Name = 5281698_sexangularetin.pdbqt.pdb
REMARK  6 active torsions:
REMARK  status: ('A' for Active; 'I' for Inactive)
REMARK    1  A    between atoms: C_5  and  C_12
REMARK    2  A    between atoms: C_6  and  O_20
REMARK    3  A    between atoms: C_8  and  O_22
REMARK    4  A    between atoms: C_9  and  O_24
REMARK    5  A    between atoms: C_10  and  O_26
REMARK    6  A    between atoms: C_17  and  O_18
REMARK                            x       y       z     vdW  Elec       q    Type
REMARK                         _______ _______ _______ _____ _____    ______ ____
ROOT
ATOM      1  O   UNL     1       4.331   7.312  75.065  0.00  0.00    +0.000 OA
ATOM      2  O   UNL     1       0.559   6.926  76.492  0.00  0.00    +0.000 OA
ATOM      3  C   UNL     1       2.802   6.219  76.593  0.00  0.00    +0.000 A 
ATOM      4  C   UNL     1       4.074   6.393  76.051  0.00  0.00    +0.000 A 
ATOM      5  C   UNL     1       3.289   8.064  74.535  0.00  0.00    +0.000 A 
ATOM      6  C   UNL     1       5.142   5.623  76.535  0.00  0.00    +0.000 A 
ATOM      7  C   UNL     1       1.704   7.027  76.057  0.00  0.00    +0.000 A 
ATOM      8  C   UNL     1       2.018   7.981  74.971  0.00  0.00    +0.000 A 
ATOM      9  C   UNL     1       2.592   5.302  77.628  0.00  0.00    +0.000 A 
ATOM     10  C   UNL     1       4.931   4.738  77.598  0.00  0.00    +0.000 A 
ATOM     11  C   UNL     1       3.658   4.567  78.137  0.00  0.00    +0.000 A 
ENDROOT
BRANCH   5  12
ATOM     12  C   UNL     1       3.728   8.977  73.460  0.00  0.00    +0.000 A 
ATOM     13  C   UNL     1       4.276  10.223  73.789  0.00  0.00    +0.000 A 
ATOM     14  C   UNL     1       3.680   8.611  72.111  0.00  0.00    +0.000 A 
ATOM     15  C   UNL     1       4.740  11.090  72.802  0.00  0.00    +0.000 A 
ATOM     16  C   UNL     1       4.139   9.470  71.113  0.00  0.00    +0.000 A 
ATOM     17  C   UNL     1       4.666  10.705  71.469  0.00  0.00    +0.000 A 
BRANCH  17  18
ATOM     18  O   UNL     1       5.112  11.530  70.478  0.00  0.00    +0.000 OA
ATOM     19  H   UNL     1       5.181  11.010  69.658  0.00  0.00    +0.000 HD
ENDBRANCH  17  18
ENDBRANCH   5  12
BRANCH   6  20
ATOM     20  O   UNL     1       6.416   5.786  76.049  0.00  0.00    +0.000 OA
ATOM     21  C   UNL     1       7.108   6.784  76.763  0.00  0.00    +0.000 C 
ENDBRANCH   6  20
BRANCH   8  22
ATOM     22  O   UNL     1       0.973   8.746  74.487  0.00  0.00    +0.000 OA
ATOM     23  H   UNL     1       0.168   8.409  74.934  0.00  0.00    +0.000 HD
ENDBRANCH   8  22
BRANCH   9  24
ATOM     24  O   UNL     1       1.371   5.087  78.204  0.00  0.00    +0.000 OA
ATOM     25  H   UNL     1       0.768   4.691  77.535  0.00  0.00    +0.000 HD
ENDBRANCH   9  24
BRANCH  10  26
ATOM     26  O   UNL     1       5.983   4.045  78.126  0.00  0.00    +0.000 OA
ATOM     27  H   UNL     1       6.068   4.277  79.069  0.00  0.00    +0.000 HD
ENDBRANCH  10  26
TORSDOF 6
ENDMDL
MODEL 9
REMARK VINA RESULT:      -3.8      2.554      8.062
REMARK  Name = 5281698_sexangularetin.pdbqt.pdb
REMARK  6 active torsions:
REMARK  status: ('A' for Active; 'I' for Inactive)
REMARK    1  A    between atoms: C_5  and  C_12
REMARK    2  A    between atoms: C_6  and  O_20
REMARK    3  A    between atoms: C_8  and  O_22
REMARK    4  A    between atoms: C_9  and  O_24
REMARK    5  A    between atoms: C_10  and  O_26
REMARK    6  A    between atoms: C_17  and  O_18
REMARK                            x       y       z     vdW  Elec       q    Type
REMARK                         _______ _______ _______ _____ _____    ______ ____
ROOT
ATOM      1  O   UNL     1       5.228   6.117  62.278  0.00  0.00    +0.000 OA
ATOM      2  O   UNL     1       5.845   4.683  58.539  0.00  0.00    +0.000 OA
ATOM      3  C   UNL     1       6.131   6.460  60.056  0.00  0.00    +0.000 A 
ATOM      4  C   UNL     1       5.877   6.898  61.355  0.00  0.00    +0.000 A 
ATOM      5  C   UNL     1       4.750   4.865  61.907  0.00  0.00    +0.000 A 
ATOM      6  C   UNL     1       6.311   8.171  61.751  0.00  0.00    +0.000 A 
ATOM      7  C   UNL     1       5.652   5.132  59.666  0.00  0.00    +0.000 A 
ATOM      8  C   UNL     1       4.928   4.336  60.681  0.00  0.00    +0.000 A 
ATOM      9  C   UNL     1       6.835   7.272  59.160  0.00  0.00    +0.000 A 
ATOM     10  C   UNL     1       7.049   8.959  60.861  0.00  0.00    +0.000 A 
ATOM     11  C   UNL     1       7.301   8.519  59.565  0.00  0.00    +0.000 A 
ENDROOT
BRANCH   5  12
ATOM     12  C   UNL     1       4.046   4.171  63.005  0.00  0.00    +0.000 A 
ATOM     13  C   UNL     1       2.811   4.656  63.451  0.00  0.00    +0.000 A 
ATOM     14  C   UNL     1       4.540   2.994  63.576  0.00  0.00    +0.000 A 
ATOM     15  C   UNL     1       2.099   4.002  64.454  0.00  0.00    +0.000 A 
ATOM     16  C   UNL     1       3.840   2.331  64.582  0.00  0.00    +0.000 A 
ATOM     17  C   UNL     1       2.622   2.842  65.013  0.00  0.00    +0.000 A 
BRANCH  17  18
ATOM     18  O   UNL     1       1.951   2.177  65.998  0.00  0.00    +0.000 OA
ATOM     19  H   UNL     1       2.226   2.547  66.855  0.00  0.00    +0.000 HD
ENDBRANCH  17  18
ENDBRANCH   5  12
BRANCH   6  20
ATOM     20  O   UNL     1       6.108   8.628  63.031  0.00  0.00    +0.000 OA
ATOM     21  C   UNL     1       4.928   9.392  63.116  0.00  0.00    +0.000 C 
ENDBRANCH   6  20
BRANCH   8  22
ATOM     22  O   UNL     1       4.496   3.080  60.302  0.00  0.00    +0.000 OA
ATOM     23  H   UNL     1       5.045   2.833  59.528  0.00  0.00    +0.000 HD
ENDBRANCH   8  22
BRANCH   9  24
ATOM     24  O   UNL     1       7.118   6.900  57.875  0.00  0.00    +0.000 OA
ATOM     25  H   UNL     1       7.747   6.144  57.893  0.00  0.00    +0.000 HD
ENDBRANCH   9  24
BRANCH  10  26
ATOM     26  O   UNL     1       7.543  10.166  61.269  0.00  0.00    +0.000 OA
ATOM     27  H   UNL     1       8.333  10.376  60.736  0.00  0.00    +0.000 HD
ENDBRANCH  10  26
TORSDOF 6
ENDMDL
