MODEL 1
REMARK VINA RESULT:      -3.7      0.000      0.000
REMARK  Name = 5281416_Esculetin.pdbqt.pdb
REMARK  2 active torsions:
REMARK  status: ('A' for Active; 'I' for Inactive)
REMARK    1  A    between atoms: C_7  and  O_12
REMARK    2  A    between atoms: C_8  and  O_14
REMARK                            x       y       z     vdW  Elec       q    Type
REMARK                         _______ _______ _______ _____ _____    ______ ____
ROOT
ATOM      1  O   UNL     1      17.798   0.164  54.890  0.00  0.00    +0.000 OA
ATOM      2  O   UNL     1      19.235  -0.799  56.475  0.00  0.00    +0.000 OA
ATOM      3  C   UNL     1      18.791   1.910  53.414  0.00  0.00    +0.000 A 
ATOM      4  C   UNL     1      17.675   1.126  53.817  0.00  0.00    +0.000 A 
ATOM      5  C   UNL     1      18.681   2.834  52.387  0.00  0.00    +0.000 A 
ATOM      6  C   UNL     1      16.439   1.255  53.200  0.00  0.00    +0.000 A 
ATOM      7  C   UNL     1      17.440   2.961  51.770  0.00  0.00    +0.000 A 
ATOM      8  C   UNL     1      16.340   2.185  52.170  0.00  0.00    +0.000 A 
ATOM      9  C   UNL     1      19.975   1.652  54.149  0.00  0.00    +0.000 A 
ATOM     10  C   UNL     1      20.054   0.853  55.032  0.00  0.00    +0.000 A 
ATOM     11  C   UNL     1      19.038  -0.014  55.562  0.00  0.00    +0.000 A 
ENDROOT
BRANCH   7  12
ATOM     12  O   UNL     1      17.250   3.852  50.746  0.00  0.00    +0.000 OA
ATOM     13  H   UNL     1      17.835   3.591  50.011  0.00  0.00    +0.000 HD
ENDBRANCH   7  12
BRANCH   8  14
ATOM     14  O   UNL     1      15.139   2.343  51.536  0.00  0.00    +0.000 OA
ATOM     15  H   UNL     1      14.469   2.342  52.248  0.00  0.00    +0.000 HD
ENDBRANCH   8  14
TORSDOF 2
ENDMDL
MODEL 2
REMARK VINA RESULT:      -3.6     11.976     12.155
REMARK  Name = 5281416_Esculetin.pdbqt.pdb
REMARK  2 active torsions:
REMARK  status: ('A' for Active; 'I' for Inactive)
REMARK    1  A    between atoms: C_7  and  O_12
REMARK    2  A    between atoms: C_8  and  O_14
REMARK                            x       y       z     vdW  Elec       q    Type
REMARK                         _______ _______ _______ _____ _____    ______ ____
ROOT
ATOM      1  O   UNL     1      16.880  10.499  63.857  0.00  0.00    +0.000 OA
ATOM      2  O   UNL     1      17.703   9.971  65.990  0.00  0.00    +0.000 OA
ATOM      3  C   UNL     1      18.145   9.564  61.922  0.00  0.00    +0.000 A 
ATOM      4  C   UNL     1      17.064  10.336  62.431  0.00  0.00    +0.000 A 
ATOM      5  C   UNL     1      18.327   9.404  60.558  0.00  0.00    +0.000 A 
ATOM      6  C   UNL     1      16.155  10.955  61.585  0.00  0.00    +0.000 A 
ATOM      7  C   UNL     1      17.413  10.027  59.712  0.00  0.00    +0.000 A 
ATOM      8  C   UNL     1      16.348  10.788  60.218  0.00  0.00    +0.000 A 
ATOM      9  C   UNL     1      18.976   9.003  62.923  0.00  0.00    +0.000 A 
ATOM     10  C   UNL     1      18.807   9.150  64.095  0.00  0.00    +0.000 A 
ATOM     11  C   UNL     1      17.779   9.889  64.775  0.00  0.00    +0.000 A 
ENDROOT
BRANCH   7  12
ATOM     12  O   UNL     1      17.525   9.916  58.351  0.00  0.00    +0.000 OA
ATOM     13  H   UNL     1      18.268  10.479  58.065  0.00  0.00    +0.000 HD
ENDBRANCH   7  12
BRANCH   8  14
ATOM     14  O   UNL     1      15.474  11.382  59.350  0.00  0.00    +0.000 OA
ATOM     15  H   UNL     1      14.680  10.809  59.350  0.00  0.00    +0.000 HD
ENDBRANCH   8  14
TORSDOF 2
ENDMDL
MODEL 3
REMARK VINA RESULT:      -3.6     16.780     17.753
REMARK  Name = 5281416_Esculetin.pdbqt.pdb
REMARK  2 active torsions:
REMARK  status: ('A' for Active; 'I' for Inactive)
REMARK    1  A    between atoms: C_7  and  O_12
REMARK    2  A    between atoms: C_8  and  O_14
REMARK                            x       y       z     vdW  Elec       q    Type
REMARK                         _______ _______ _______ _____ _____    ______ ____
ROOT
ATOM      1  O   UNL     1      14.867   6.881  67.897  0.00  0.00    +0.000 OA
ATOM      2  O   UNL     1      15.754   4.709  67.850  0.00  0.00    +0.000 OA
ATOM      3  C   UNL     1      14.858   8.023  70.114  0.00  0.00    +0.000 A 
ATOM      4  C   UNL     1      14.564   8.031  68.722  0.00  0.00    +0.000 A 
ATOM      5  C   UNL     1      14.571   9.120  70.910  0.00  0.00    +0.000 A 
ATOM      6  C   UNL     1      13.982   9.132  68.111  0.00  0.00    +0.000 A 
ATOM      7  C   UNL     1      13.986  10.224  70.293  0.00  0.00    +0.000 A 
ATOM      8  C   UNL     1      13.698  10.228  68.920  0.00  0.00    +0.000 A 
ATOM      9  C   UNL     1      15.450   6.821  70.573  0.00  0.00    +0.000 A 
ATOM     10  C   UNL     1      15.692   5.883  69.875  0.00  0.00    +0.000 A 
ATOM     11  C   UNL     1      15.464   5.722  68.465  0.00  0.00    +0.000 A 
ENDROOT
BRANCH   7  12
ATOM     12  O   UNL     1      13.672  11.348  71.012  0.00  0.00    +0.000 OA
ATOM     13  H   UNL     1      13.586  12.089  70.384  0.00  0.00    +0.000 HD
ENDBRANCH   7  12
BRANCH   8  14
ATOM     14  O   UNL     1      13.124  11.334  68.356  0.00  0.00    +0.000 OA
ATOM     15  H   UNL     1      13.855  11.803  67.906  0.00  0.00    +0.000 HD
ENDBRANCH   8  14
TORSDOF 2
ENDMDL
MODEL 4
REMARK VINA RESULT:      -3.4      1.083      2.224
REMARK  Name = 5281416_Esculetin.pdbqt.pdb
REMARK  2 active torsions:
REMARK  status: ('A' for Active; 'I' for Inactive)
REMARK    1  A    between atoms: C_7  and  O_12
REMARK    2  A    between atoms: C_8  and  O_14
REMARK                            x       y       z     vdW  Elec       q    Type
REMARK                         _______ _______ _______ _____ _____    ______ ____
ROOT
ATOM      1  O   UNL     1      20.058   1.377  54.115  0.00  0.00    +0.000 OA
ATOM      2  O   UNL     1      21.224   0.063  55.670  0.00  0.00    +0.000 OA
ATOM      3  C   UNL     1      17.626   0.888  53.859  0.00  0.00    +0.000 A 
ATOM      4  C   UNL     1      18.776   1.641  53.496  0.00  0.00    +0.000 A 
ATOM      5  C   UNL     1      16.396   1.135  53.271  0.00  0.00    +0.000 A 
ATOM      6  C   UNL     1      18.711   2.649  52.545  0.00  0.00    +0.000 A 
ATOM      7  C   UNL     1      16.334   2.147  52.316  0.00  0.00    +0.000 A 
ATOM      8  C   UNL     1      17.472   2.889  51.961  0.00  0.00    +0.000 A 
ATOM      9  C   UNL     1      17.869  -0.101  54.844  0.00  0.00    +0.000 A 
ATOM     10  C   UNL     1      18.935  -0.303  55.342  0.00  0.00    +0.000 A 
ATOM     11  C   UNL     1      20.188   0.356  55.097  0.00  0.00    +0.000 A 
ENDROOT
BRANCH   7  12
ATOM     12  O   UNL     1      15.155   2.453  51.690  0.00  0.00    +0.000 OA
ATOM     13  H   UNL     1      14.524   2.754  52.370  0.00  0.00    +0.000 HD
ENDBRANCH   7  12
BRANCH   8  14
ATOM     14  O   UNL     1      17.365   3.874  51.019  0.00  0.00    +0.000 OA
ATOM     15  H   UNL     1      16.614   4.430  51.310  0.00  0.00    +0.000 HD
ENDBRANCH   8  14
TORSDOF 2
ENDMDL
MODEL 5
REMARK VINA RESULT:      -3.3     25.651     26.560
REMARK  Name = 5281416_Esculetin.pdbqt.pdb
REMARK  2 active torsions:
REMARK  status: ('A' for Active; 'I' for Inactive)
REMARK    1  A    between atoms: C_7  and  O_12
REMARK    2  A    between atoms: C_8  and  O_14
REMARK                            x       y       z     vdW  Elec       q    Type
REMARK                         _______ _______ _______ _____ _____    ______ ____
ROOT
ATOM      1  O   UNL     1      -0.085   9.754  73.449  0.00  0.00    +0.000 OA
ATOM      2  O   UNL     1      -2.129  10.833  73.043  0.00  0.00    +0.000 OA
ATOM      3  C   UNL     1       1.449   9.522  71.496  0.00  0.00    +0.000 A 
ATOM      4  C   UNL     1       1.165   9.306  72.873  0.00  0.00    +0.000 A 
ATOM      5  C   UNL     1       2.643   9.095  70.938  0.00  0.00    +0.000 A 
ATOM      6  C   UNL     1       2.068   8.662  73.706  0.00  0.00    +0.000 A 
ATOM      7  C   UNL     1       3.548   8.449  71.777  0.00  0.00    +0.000 A 
ATOM      8  C   UNL     1       3.264   8.237  73.135  0.00  0.00    +0.000 A 
ATOM      9  C   UNL     1       0.419  10.193  70.792  0.00  0.00    +0.000 A 
ATOM     10  C   UNL     1      -0.605  10.555  71.286  0.00  0.00    +0.000 A 
ATOM     11  C   UNL     1      -1.051  10.420  72.646  0.00  0.00    +0.000 A 
ENDROOT
BRANCH   7  12
ATOM     12  O   UNL     1       4.750   7.997  71.301  0.00  0.00    +0.000 OA
ATOM     13  H   UNL     1       5.216   7.556  72.036  0.00  0.00    +0.000 HD
ENDBRANCH   7  12
BRANCH   8  14
ATOM     14  O   UNL     1       4.181   7.599  73.923  0.00  0.00    +0.000 OA
ATOM     15  H   UNL     1       4.751   7.100  73.303  0.00  0.00    +0.000 HD
ENDBRANCH   8  14
TORSDOF 2
ENDMDL
MODEL 6
REMARK VINA RESULT:      -3.2     26.127     26.816
REMARK  Name = 5281416_Esculetin.pdbqt.pdb
REMARK  2 active torsions:
REMARK  status: ('A' for Active; 'I' for Inactive)
REMARK    1  A    between atoms: C_7  and  O_12
REMARK    2  A    between atoms: C_8  and  O_14
REMARK                            x       y       z     vdW  Elec       q    Type
REMARK                         _______ _______ _______ _____ _____    ______ ____
ROOT
ATOM      1  O   UNL     1       0.183   9.700  74.073  0.00  0.00    +0.000 OA
ATOM      2  O   UNL     1      -0.987   9.585  76.104  0.00  0.00    +0.000 OA
ATOM      3  C   UNL     1       2.289   8.372  73.934  0.00  0.00    +0.000 A 
ATOM      4  C   UNL     1       1.346   9.254  73.337  0.00  0.00    +0.000 A 
ATOM      5  C   UNL     1       3.405   7.941  73.235  0.00  0.00    +0.000 A 
ATOM      6  C   UNL     1       1.508   9.715  72.038  0.00  0.00    +0.000 A 
ATOM      7  C   UNL     1       3.564   8.405  71.932  0.00  0.00    +0.000 A 
ATOM      8  C   UNL     1       2.632   9.276  71.346  0.00  0.00    +0.000 A 
ATOM      9  C   UNL     1       1.971   8.000  75.264  0.00  0.00    +0.000 A 
ATOM     10  C   UNL     1       1.005   8.380  75.853  0.00  0.00    +0.000 A 
ATOM     11  C   UNL     1      -0.038   9.263  75.408  0.00  0.00    +0.000 A 
ENDROOT
BRANCH   7  12
ATOM     12  O   UNL     1       4.641   8.025  71.175  0.00  0.00    +0.000 OA
ATOM     13  H   UNL     1       5.071   7.273  71.624  0.00  0.00    +0.000 HD
ENDBRANCH   7  12
BRANCH   8  14
ATOM     14  O   UNL     1       2.828   9.707  70.063  0.00  0.00    +0.000 OA
ATOM     15  H   UNL     1       3.442  10.465  70.137  0.00  0.00    +0.000 HD
ENDBRANCH   8  14
TORSDOF 2
ENDMDL
MODEL 7
REMARK VINA RESULT:      -3.1     25.884     26.552
REMARK  Name = 5281416_Esculetin.pdbqt.pdb
REMARK  2 active torsions:
REMARK  status: ('A' for Active; 'I' for Inactive)
REMARK    1  A    between atoms: C_7  and  O_12
REMARK    2  A    between atoms: C_8  and  O_14
REMARK                            x       y       z     vdW  Elec       q    Type
REMARK                         _______ _______ _______ _____ _____    ______ ____
ROOT
ATOM      1  O   UNL     1       3.973   6.531  73.978  0.00  0.00    +0.000 OA
ATOM      2  O   UNL     1       4.374   4.624  75.285  0.00  0.00    +0.000 OA
ATOM      3  C   UNL     1       2.069   7.976  74.688  0.00  0.00    +0.000 A 
ATOM      4  C   UNL     1       3.142   7.702  73.796  0.00  0.00    +0.000 A 
ATOM      5  C   UNL     1       1.269   9.095  74.519  0.00  0.00    +0.000 A 
ATOM      6  C   UNL     1       3.429   8.541  72.729  0.00  0.00    +0.000 A 
ATOM      7  C   UNL     1       1.560   9.935  73.447  0.00  0.00    +0.000 A 
ATOM      8  C   UNL     1       2.620   9.661  72.570  0.00  0.00    +0.000 A 
ATOM      9  C   UNL     1       1.916   7.019  75.720  0.00  0.00    +0.000 A 
ATOM     10  C   UNL     1       2.613   6.059  75.853  0.00  0.00    +0.000 A 
ATOM     11  C   UNL     1       3.729   5.633  75.054  0.00  0.00    +0.000 A 
ENDROOT
BRANCH   7  12
ATOM     12  O   UNL     1       0.816  11.062  73.213  0.00  0.00    +0.000 OA
ATOM     13  H   UNL     1       0.882  11.272  72.263  0.00  0.00    +0.000 HD
ENDBRANCH   7  12
BRANCH   8  14
ATOM     14  O   UNL     1       2.870  10.513  71.529  0.00  0.00    +0.000 OA
ATOM     15  H   UNL     1       3.102   9.937  70.774  0.00  0.00    +0.000 HD
ENDBRANCH   8  14
TORSDOF 2
ENDMDL
MODEL 8
REMARK VINA RESULT:      -3.1     13.941     15.222
REMARK  Name = 5281416_Esculetin.pdbqt.pdb
REMARK  2 active torsions:
REMARK  status: ('A' for Active; 'I' for Inactive)
REMARK    1  A    between atoms: C_7  and  O_12
REMARK    2  A    between atoms: C_8  and  O_14
REMARK                            x       y       z     vdW  Elec       q    Type
REMARK                         _______ _______ _______ _____ _____    ______ ____
ROOT
ATOM      1  O   UNL     1      10.984  13.400  56.513  0.00  0.00    +0.000 OA
ATOM      2  O   UNL     1      10.064  14.020  54.445  0.00  0.00    +0.000 OA
ATOM      3  C   UNL     1       9.373  12.626  58.252  0.00  0.00    +0.000 A 
ATOM      4  C   UNL     1      10.707  12.908  57.845  0.00  0.00    +0.000 A 
ATOM      5  C   UNL     1       9.100  12.155  59.525  0.00  0.00    +0.000 A 
ATOM      6  C   UNL     1      11.780  12.724  58.704  0.00  0.00    +0.000 A 
ATOM      7  C   UNL     1      10.179  11.971  60.386  0.00  0.00    +0.000 A 
ATOM      8  C   UNL     1      11.494  12.250  59.981  0.00  0.00    +0.000 A 
ATOM      9  C   UNL     1       8.400  12.871  57.251  0.00  0.00    +0.000 A 
ATOM     10  C   UNL     1       8.650  13.277  56.157  0.00  0.00    +0.000 A 
ATOM     11  C   UNL     1       9.926  13.610  55.586  0.00  0.00    +0.000 A 
ENDROOT
BRANCH   7  12
ATOM     12  O   UNL     1       9.992  11.508  61.662  0.00  0.00    +0.000 OA
ATOM     13  H   UNL     1       9.367  10.761  61.620  0.00  0.00    +0.000 HD
ENDBRANCH   7  12
BRANCH   8  14
ATOM     14  O   UNL     1      12.524  12.055  60.859  0.00  0.00    +0.000 OA
ATOM     15  H   UNL     1      12.864  11.159  60.662  0.00  0.00    +0.000 HD
ENDBRANCH   8  14
TORSDOF 2
ENDMDL
MODEL 9
REMARK VINA RESULT:      -3.1     17.403     18.773
REMARK  Name = 5281416_Esculetin.pdbqt.pdb
REMARK  2 active torsions:
REMARK  status: ('A' for Active; 'I' for Inactive)
REMARK    1  A    between atoms: C_7  and  O_12
REMARK    2  A    between atoms: C_8  and  O_14
REMARK                            x       y       z     vdW  Elec       q    Type
REMARK                         _______ _______ _______ _____ _____    ______ ____
ROOT
ATOM      1  O   UNL     1       6.107  -1.756  69.591  0.00  0.00    +0.000 OA
ATOM      2  O   UNL     1       5.235  -2.015  71.753  0.00  0.00    +0.000 OA
ATOM      3  C   UNL     1       8.456  -0.932  69.438  0.00  0.00    +0.000 A 
ATOM      4  C   UNL     1       7.259  -1.368  68.805  0.00  0.00    +0.000 A 
ATOM      5  C   UNL     1       9.562  -0.559  68.692  0.00  0.00    +0.000 A 
ATOM      6  C   UNL     1       7.154  -1.436  67.423  0.00  0.00    +0.000 A 
ATOM      7  C   UNL     1       9.453  -0.628  67.305  0.00  0.00    +0.000 A 
ATOM      8  C   UNL     1       8.270  -1.059  66.685  0.00  0.00    +0.000 A 
ATOM      9  C   UNL     1       8.391  -0.923  70.853  0.00  0.00    +0.000 A 
ATOM     10  C   UNL     1       7.430  -1.248  71.482  0.00  0.00    +0.000 A 
ATOM     11  C   UNL     1       6.153  -1.708  71.011  0.00  0.00    +0.000 A 
ENDROOT
BRANCH   7  12
ATOM     12  O   UNL     1      10.503  -0.276  66.498  0.00  0.00    +0.000 OA
ATOM     13  H   UNL     1      11.002   0.431  66.948  0.00  0.00    +0.000 HD
ENDBRANCH   7  12
BRANCH   8  14
ATOM     14  O   UNL     1       8.208  -1.112  65.320  0.00  0.00    +0.000 OA
ATOM     15  H   UNL     1       7.732  -0.300  65.051  0.00  0.00    +0.000 HD
ENDBRANCH   8  14
TORSDOF 2
ENDMDL
