MODEL 1
REMARK VINA RESULT:      -5.6      0.000      0.000
REMARK  Name = 5289155_Peridinin.pdbqt.pdb
REMARK  13 active torsions:
REMARK  status: ('A' for Active; 'I' for Inactive)
REMARK    1  A    between atoms: C_1  and  C_3
REMARK    2  A    between atoms: C_3  and  C_25
REMARK    3  A    between atoms: C_6  and  C_12
REMARK    4  A    between atoms: C_11  and  C_14
REMARK    5  A    between atoms: C_19  and  O_23
REMARK    6  A    between atoms: C_26  and  C_28
REMARK    7  A    between atoms: C_27  and  C_31
REMARK    8  A    between atoms: C_29  and  C_31
REMARK    9  A    between atoms: C_29  and  C_42
REMARK   10  A    between atoms: C_33  and  O_43
REMARK   11  A    between atoms: C_35  and  O_45
REMARK   12  A    between atoms: C_37  and  C_41
REMARK   13  A    between atoms: O_45  and  C_47
REMARK                            x       y       z     vdW  Elec       q    Type
REMARK                         _______ _______ _______ _____ _____    ______ ____
ROOT
ATOM      1  C   UNL     1      14.508   2.230  72.983  0.00  0.00    +0.000 C 
ENDROOT
BRANCH   1   2
ATOM      2  C   UNL     1      15.490   1.859  72.224  0.00  0.00    +0.000 C 
ATOM      3  C   UNL     1      16.488   0.857  72.719  0.00  0.00    +0.000 C 
ATOM      4  O   UNL     1      15.195   4.095  69.413  0.00  0.00    +0.000 OA
ATOM      5  O   UNL     1      15.643   5.448  67.584  0.00  0.00    +0.000 OA
ATOM      6  C   UNL     1      16.752   3.320  67.868  0.00  0.00    +0.000 C 
ATOM      7  C   UNL     1      16.656   2.422  68.779  0.00  0.00    +0.000 C 
ATOM      8  C   UNL     1      15.825   4.423  68.217  0.00  0.00    +0.000 C 
ATOM      9  C   UNL     1      15.707   2.836  69.710  0.00  0.00    +0.000 C 
ATOM     10  C   UNL     1      15.603   2.371  70.912  0.00  0.00    +0.000 C 
BRANCH   6  12
ATOM     11  C   UNL     1      18.357   3.156  65.817  0.00  0.00    +0.000 C 
ATOM     12  C   UNL     1      17.616   3.236  66.760  0.00  0.00    +0.000 C 
BRANCH  11  14
ATOM     13  O   UNL     1      19.909   1.747  64.683  0.00  0.00    +0.000 OA
ATOM     14  C   UNL     1      19.260   3.051  64.683  0.00  0.00    +0.000 C 
ATOM     15  C   UNL     1      19.002   1.975  63.607  0.00  0.00    +0.000 C 
ATOM     16  C   UNL     1      20.158   4.278  64.296  0.00  0.00    +0.000 C 
ATOM     17  C   UNL     1      19.675   2.127  62.357  0.00  0.00    +0.000 C 
ATOM     18  C   UNL     1      20.712   4.003  62.968  0.00  0.00    +0.000 C 
ATOM     19  C   UNL     1      20.594   3.090  61.903  0.00  0.00    +0.000 C 
ATOM     20  C   UNL     1      17.788   1.042  63.619  0.00  0.00    +0.000 C 
ATOM     21  C   UNL     1      19.201   5.499  64.249  0.00  0.00    +0.000 C 
ATOM     22  C   UNL     1      21.232   4.404  65.399  0.00  0.00    +0.000 C 
BRANCH  19  23
ATOM     23  O   UNL     1      20.649   3.499  60.605  0.00  0.00    +0.000 OA
ATOM     24  H   UNL     1      19.770   3.524  60.186  0.00  0.00    +0.000 HD
ENDBRANCH  19  23
ENDBRANCH  11  14
ENDBRANCH   6  12
ENDBRANCH   1   2
BRANCH   1  25
ATOM     25  C   UNL     1      13.346   2.669  73.882  0.00  0.00    +0.000 C 
ATOM     26  C   UNL     1      12.433   3.010  74.582  0.00  0.00    +0.000 C 
BRANCH  26  28
ATOM     27  C   UNL     1      10.346   3.790  76.162  0.00  0.00    +0.000 C 
ATOM     28  C   UNL     1      11.262   3.444  75.469  0.00  0.00    +0.000 C 
BRANCH  27  29
ATOM     29  C   UNL     1       9.176   4.238  77.047  0.00  0.00    +0.000 C 
BRANCH  29  30
ATOM     30  C   UNL     1       8.195   4.625  77.799  0.00  0.00    +0.000 C 
ATOM     31  C   UNL     1       8.163   4.255  79.252  0.00  0.00    +0.000 C 
BRANCH  30  33
ATOM     32  C   UNL     1       6.206   5.973  76.756  0.00  0.00    +0.000 C 
ATOM     33  C   UNL     1       7.118   5.354  77.236  0.00  0.00    +0.000 C 
BRANCH  32  39
ATOM     34  C   UNL     1       5.022   8.160  76.440  0.00  0.00    +0.000 C 
ATOM     35  C   UNL     1       4.130   5.944  75.410  0.00  0.00    +0.000 C 
ATOM     36  C   UNL     1       4.029   8.713  75.509  0.00  0.00    +0.000 C 
ATOM     37  C   UNL     1       3.116   8.267  74.532  0.00  0.00    +0.000 C 
ATOM     38  C   UNL     1       3.324   6.876  74.630  0.00  0.00    +0.000 C 
ATOM     39  C   UNL     1       5.204   6.646  76.225  0.00  0.00    +0.000 C 
ATOM     40  C   UNL     1       6.380   8.880  76.179  0.00  0.00    +0.000 C 
ATOM     41  C   UNL     1       4.567   8.401  77.904  0.00  0.00    +0.000 C 
ATOM     42  C   UNL     1       3.254   5.060  76.304  0.00  0.00    +0.000 C 
BRANCH  35  43
ATOM     43  O   UNL     1       4.745   5.051  74.506  0.00  0.00    +0.000 OA
ATOM     44  H   UNL     1       4.535   4.190  74.913  0.00  0.00    +0.000 HD
ENDBRANCH  35  43
BRANCH  37  45
ATOM     45  O   UNL     1       1.828   8.787  74.525  0.00  0.00    +0.000 OA
BRANCH  45  47
ATOM     46  O   UNL     1       1.614  10.958  73.664  0.00  0.00    +0.000 OA
ATOM     47  C   UNL     1       1.723   9.749  73.576  0.00  0.00    +0.000 C 
ATOM     48  C   UNL     1       1.734   9.232  72.181  0.00  0.00    +0.000 C 
ENDBRANCH  45  47
ENDBRANCH  37  45
ENDBRANCH  32  39
ENDBRANCH  30  33
ENDBRANCH  29  30
ENDBRANCH  27  29
ENDBRANCH  26  28
ENDBRANCH   1  25
TORSDOF 13
ENDMDL
MODEL 2
REMARK VINA RESULT:      -4.7      1.729      2.137
REMARK  Name = 5289155_Peridinin.pdbqt.pdb
REMARK  13 active torsions:
REMARK  status: ('A' for Active; 'I' for Inactive)
REMARK    1  A    between atoms: C_1  and  C_3
REMARK    2  A    between atoms: C_3  and  C_25
REMARK    3  A    between atoms: C_6  and  C_12
REMARK    4  A    between atoms: C_11  and  C_14
REMARK    5  A    between atoms: C_19  and  O_23
REMARK    6  A    between atoms: C_26  and  C_28
REMARK    7  A    between atoms: C_27  and  C_31
REMARK    8  A    between atoms: C_29  and  C_31
REMARK    9  A    between atoms: C_29  and  C_42
REMARK   10  A    between atoms: C_33  and  O_43
REMARK   11  A    between atoms: C_35  and  O_45
REMARK   12  A    between atoms: C_37  and  C_41
REMARK   13  A    between atoms: O_45  and  C_47
REMARK                            x       y       z     vdW  Elec       q    Type
REMARK                         _______ _______ _______ _____ _____    ______ ____
ROOT
ATOM      1  C   UNL     1      13.337   1.221  73.126  0.00  0.00    +0.000 C 
ENDROOT
BRANCH   1   2
ATOM      2  C   UNL     1      14.145   0.693  72.261  0.00  0.00    +0.000 C 
ATOM      3  C   UNL     1      14.651  -0.702  72.457  0.00  0.00    +0.000 C 
ATOM      4  O   UNL     1      14.893   3.471  70.090  0.00  0.00    +0.000 OA
ATOM      5  O   UNL     1      15.930   4.941  68.628  0.00  0.00    +0.000 OA
ATOM      6  C   UNL     1      16.121   2.550  68.343  0.00  0.00    +0.000 C 
ATOM      7  C   UNL     1      15.635   1.569  69.012  0.00  0.00    +0.000 C 
ATOM      8  C   UNL     1      15.668   3.806  68.985  0.00  0.00    +0.000 C 
ATOM      9  C   UNL     1      14.865   2.080  70.053  0.00  0.00    +0.000 C 
ATOM     10  C   UNL     1      14.521   1.420  71.109  0.00  0.00    +0.000 C 
BRANCH   6  12
ATOM     11  C   UNL     1      17.664   2.287  66.255  0.00  0.00    +0.000 C 
ATOM     12  C   UNL     1      16.949   2.406  67.214  0.00  0.00    +0.000 C 
BRANCH  11  14
ATOM     13  O   UNL     1      19.058   0.790  65.032  0.00  0.00    +0.000 OA
ATOM     14  C   UNL     1      18.536   2.149  65.100  0.00  0.00    +0.000 C 
ATOM     15  C   UNL     1      18.161   1.151  63.984  0.00  0.00    +0.000 C 
ATOM     16  C   UNL     1      19.541   3.301  64.751  0.00  0.00    +0.000 C 
ATOM     17  C   UNL     1      18.827   1.295  62.729  0.00  0.00    +0.000 C 
ATOM     18  C   UNL     1      20.047   3.035  63.401  0.00  0.00    +0.000 C 
ATOM     19  C   UNL     1      19.826   2.185  62.301  0.00  0.00    +0.000 C 
ATOM     20  C   UNL     1      16.864   0.338  63.979  0.00  0.00    +0.000 C 
ATOM     21  C   UNL     1      18.704   4.608  64.774  0.00  0.00    +0.000 C 
ATOM     22  C   UNL     1      20.637   3.276  65.837  0.00  0.00    +0.000 C 
BRANCH  19  23
ATOM     23  O   UNL     1      19.901   2.646  61.021  0.00  0.00    +0.000 OA
ATOM     24  H   UNL     1      19.211   3.304  60.822  0.00  0.00    +0.000 HD
ENDBRANCH  19  23
ENDBRANCH  11  14
ENDBRANCH   6  12
ENDBRANCH   1   2
BRANCH   1  25
ATOM     25  C   UNL     1      12.381   1.844  74.150  0.00  0.00    +0.000 C 
ATOM     26  C   UNL     1      11.637   2.337  74.952  0.00  0.00    +0.000 C 
BRANCH  26  28
ATOM     27  C   UNL     1       9.948   3.464  76.778  0.00  0.00    +0.000 C 
ATOM     28  C   UNL     1      10.691   2.972  75.976  0.00  0.00    +0.000 C 
BRANCH  27  29
ATOM     29  C   UNL     1       8.992   4.089  77.803  0.00  0.00    +0.000 C 
BRANCH  29  30
ATOM     30  C   UNL     1       8.177   4.613  78.662  0.00  0.00    +0.000 C 
ATOM     31  C   UNL     1       8.550   4.690  80.112  0.00  0.00    +0.000 C 
BRANCH  30  33
ATOM     32  C   UNL     1       5.822   5.455  77.878  0.00  0.00    +0.000 C 
ATOM     33  C   UNL     1       6.902   5.069  78.239  0.00  0.00    +0.000 C 
BRANCH  32  39
ATOM     34  C   UNL     1       3.406   5.868  78.402  0.00  0.00    +0.000 C 
ATOM     35  C   UNL     1       4.411   6.336  76.049  0.00  0.00    +0.000 C 
ATOM     36  C   UNL     1       2.308   6.657  77.828  0.00  0.00    +0.000 C 
ATOM     37  C   UNL     1       1.997   7.349  76.639  0.00  0.00    +0.000 C 
ATOM     38  C   UNL     1       3.163   7.076  75.894  0.00  0.00    +0.000 C 
ATOM     39  C   UNL     1       4.638   5.874  77.479  0.00  0.00    +0.000 C 
ATOM     40  C   UNL     1       3.792   6.505  79.772  0.00  0.00    +0.000 C 
ATOM     41  C   UNL     1       2.950   4.399  78.611  0.00  0.00    +0.000 C 
ATOM     42  C   UNL     1       4.485   5.158  75.073  0.00  0.00    +0.000 C 
BRANCH  35  43
ATOM     43  O   UNL     1       5.465   7.193  75.666  0.00  0.00    +0.000 OA
ATOM     44  H   UNL     1       5.775   7.516  76.533  0.00  0.00    +0.000 HD
ENDBRANCH  35  43
BRANCH  37  45
ATOM     45  O   UNL     1       0.742   7.180  76.068  0.00  0.00    +0.000 OA
BRANCH  45  47
ATOM     46  O   UNL     1      -1.062   7.938  77.360  0.00  0.00    +0.000 OA
ATOM     47  C   UNL     1      -0.128   8.077  76.593  0.00  0.00    +0.000 C 
ATOM     48  C   UNL     1       0.093   9.477  76.140  0.00  0.00    +0.000 C 
ENDBRANCH  45  47
ENDBRANCH  37  45
ENDBRANCH  32  39
ENDBRANCH  30  33
ENDBRANCH  29  30
ENDBRANCH  27  29
ENDBRANCH  26  28
ENDBRANCH   1  25
TORSDOF 13
ENDMDL
MODEL 3
REMARK VINA RESULT:      -4.7     10.631     20.765
REMARK  Name = 5289155_Peridinin.pdbqt.pdb
REMARK  13 active torsions:
REMARK  status: ('A' for Active; 'I' for Inactive)
REMARK    1  A    between atoms: C_1  and  C_3
REMARK    2  A    between atoms: C_3  and  C_25
REMARK    3  A    between atoms: C_6  and  C_12
REMARK    4  A    between atoms: C_11  and  C_14
REMARK    5  A    between atoms: C_19  and  O_23
REMARK    6  A    between atoms: C_26  and  C_28
REMARK    7  A    between atoms: C_27  and  C_31
REMARK    8  A    between atoms: C_29  and  C_31
REMARK    9  A    between atoms: C_29  and  C_42
REMARK   10  A    between atoms: C_33  and  O_43
REMARK   11  A    between atoms: C_35  and  O_45
REMARK   12  A    between atoms: C_37  and  C_41
REMARK   13  A    between atoms: O_45  and  C_47
REMARK                            x       y       z     vdW  Elec       q    Type
REMARK                         _______ _______ _______ _____ _____    ______ ____
ROOT
ATOM      1  C   UNL     1       7.451  11.721  61.456  0.00  0.00    +0.000 C 
ENDROOT
BRANCH   1   2
ATOM      2  C   UNL     1       6.579  11.434  62.371  0.00  0.00    +0.000 C 
ATOM      3  C   UNL     1       6.227  12.444  63.418  0.00  0.00    +0.000 C 
ATOM      4  O   UNL     1       5.974   7.926  61.803  0.00  0.00    +0.000 OA
ATOM      5  O   UNL     1       5.474   5.679  62.072  0.00  0.00    +0.000 OA
ATOM      6  C   UNL     1       4.213   7.387  63.224  0.00  0.00    +0.000 C 
ATOM      7  C   UNL     1       4.306   8.667  63.219  0.00  0.00    +0.000 C 
ATOM      8  C   UNL     1       5.258   6.852  62.320  0.00  0.00    +0.000 C 
ATOM      9  C   UNL     1       5.333   9.033  62.352  0.00  0.00    +0.000 C 
ATOM     10  C   UNL     1       5.930  10.179  62.360  0.00  0.00    +0.000 C 
BRANCH   6  12
ATOM     11  C   UNL     1       2.473   6.043  64.628  0.00  0.00    +0.000 C 
ATOM     12  C   UNL     1       3.277   6.664  63.986  0.00  0.00    +0.000 C 
BRANCH  11  14
ATOM     13  O   UNL     1       0.501   4.709  64.502  0.00  0.00    +0.000 OA
ATOM     14  C   UNL     1       1.493   5.291  65.396  0.00  0.00    +0.000 C 
ATOM     15  C   UNL     1       1.350   3.773  65.160  0.00  0.00    +0.000 C 
ATOM     16  C   UNL     1       0.957   5.880  66.748  0.00  0.00    +0.000 C 
ATOM     17  C   UNL     1       0.655   3.020  66.155  0.00  0.00    +0.000 C 
ATOM     18  C   UNL     1       0.247   4.798  67.436  0.00  0.00    +0.000 C 
ATOM     19  C   UNL     1       0.018   3.411  67.345  0.00  0.00    +0.000 C 
ATOM     20  C   UNL     1       2.246   2.979  64.204  0.00  0.00    +0.000 C 
ATOM     21  C   UNL     1       2.216   6.306  67.548  0.00  0.00    +0.000 C 
ATOM     22  C   UNL     1       0.051   7.075  66.379  0.00  0.00    +0.000 C 
BRANCH  19  23
ATOM     23  O   UNL     1      -0.016   2.622  68.455  0.00  0.00    +0.000 OA
ATOM     24  H   UNL     1      -0.523   1.803  68.311  0.00  0.00    +0.000 HD
ENDBRANCH  19  23
ENDBRANCH  11  14
ENDBRANCH   6  12
ENDBRANCH   1   2
BRANCH   1  25
ATOM     25  C   UNL     1       8.484  12.061  60.374  0.00  0.00    +0.000 C 
ATOM     26  C   UNL     1       9.296  12.325  59.532  0.00  0.00    +0.000 C 
BRANCH  26  28
ATOM     27  C   UNL     1      11.156  12.915  57.621  0.00  0.00    +0.000 C 
ATOM     28  C   UNL     1      10.338  12.659  58.460  0.00  0.00    +0.000 C 
BRANCH  27  29
ATOM     29  C   UNL     1      12.207  13.237  56.551  0.00  0.00    +0.000 C 
BRANCH  29  30
ATOM     30  C   UNL     1      13.095  13.498  55.645  0.00  0.00    +0.000 C 
ATOM     31  C   UNL     1      12.748  14.360  54.470  0.00  0.00    +0.000 C 
BRANCH  30  33
ATOM     32  C   UNL     1      15.482  12.428  55.811  0.00  0.00    +0.000 C 
ATOM     33  C   UNL     1      14.387  12.920  55.735  0.00  0.00    +0.000 C 
BRANCH  32  39
ATOM     34  C   UNL     1      17.783  12.452  56.804  0.00  0.00    +0.000 C 
ATOM     35  C   UNL     1      17.063  10.698  55.022  0.00  0.00    +0.000 C 
ATOM     36  C   UNL     1      18.899  11.505  56.938  0.00  0.00    +0.000 C 
ATOM     37  C   UNL     1      19.319  10.267  56.409  0.00  0.00    +0.000 C 
ATOM     38  C   UNL     1      18.276  10.036  55.489  0.00  0.00    +0.000 C 
ATOM     39  C   UNL     1      16.681  11.888  55.888  0.00  0.00    +0.000 C 
ATOM     40  C   UNL     1      17.190  12.700  58.224  0.00  0.00    +0.000 C 
ATOM     41  C   UNL     1      18.293  13.789  56.201  0.00  0.00    +0.000 C 
ATOM     42  C   UNL     1      17.183  11.108  53.551  0.00  0.00    +0.000 C 
BRANCH  35  43
ATOM     43  O   UNL     1      16.020   9.749  55.053  0.00  0.00    +0.000 OA
ATOM     44  H   UNL     1      16.032   9.420  54.135  0.00  0.00    +0.000 HD
ENDBRANCH  35  43
BRANCH  37  45
ATOM     45  O   UNL     1      20.645  10.113  56.023  0.00  0.00    +0.000 OA
BRANCH  45  47
ATOM     46  O   UNL     1      21.326   7.991  55.291  0.00  0.00    +0.000 OA
ATOM     47  C   UNL     1      21.008   8.811  56.132  0.00  0.00    +0.000 C 
ATOM     48  C   UNL     1      21.005   8.293  57.526  0.00  0.00    +0.000 C 
ENDBRANCH  45  47
ENDBRANCH  37  45
ENDBRANCH  32  39
ENDBRANCH  30  33
ENDBRANCH  29  30
ENDBRANCH  27  29
ENDBRANCH  26  28
ENDBRANCH   1  25
TORSDOF 13
ENDMDL
MODEL 4
REMARK VINA RESULT:      -4.6      9.970     12.564
REMARK  Name = 5289155_Peridinin.pdbqt.pdb
REMARK  13 active torsions:
REMARK  status: ('A' for Active; 'I' for Inactive)
REMARK    1  A    between atoms: C_1  and  C_3
REMARK    2  A    between atoms: C_3  and  C_25
REMARK    3  A    between atoms: C_6  and  C_12
REMARK    4  A    between atoms: C_11  and  C_14
REMARK    5  A    between atoms: C_19  and  O_23
REMARK    6  A    between atoms: C_26  and  C_28
REMARK    7  A    between atoms: C_27  and  C_31
REMARK    8  A    between atoms: C_29  and  C_31
REMARK    9  A    between atoms: C_29  and  C_42
REMARK   10  A    between atoms: C_33  and  O_43
REMARK   11  A    between atoms: C_35  and  O_45
REMARK   12  A    between atoms: C_37  and  C_41
REMARK   13  A    between atoms: O_45  and  C_47
REMARK                            x       y       z     vdW  Elec       q    Type
REMARK                         _______ _______ _______ _____ _____    ______ ____
ROOT
ATOM      1  C   UNL     1       9.416  12.577  63.639  0.00  0.00    +0.000 C 
ENDROOT
BRANCH   1   2
ATOM      2  C   UNL     1       9.302  12.557  62.349  0.00  0.00    +0.000 C 
ATOM      3  C   UNL     1       7.947  12.524  61.713  0.00  0.00    +0.000 C 
ATOM      4  O   UNL     1      12.715  12.141  61.266  0.00  0.00    +0.000 OA
ATOM      5  O   UNL     1      14.623  11.574  60.078  0.00  0.00    +0.000 OA
ATOM      6  C   UNL     1      12.640  12.372  58.953  0.00  0.00    +0.000 C 
ATOM      7  C   UNL     1      11.496  12.743  59.400  0.00  0.00    +0.000 C 
ATOM      8  C   UNL     1      13.475  11.980  60.112  0.00  0.00    +0.000 C 
ATOM      9  C   UNL     1      11.511  12.649  60.789  0.00  0.00    +0.000 C 
ATOM     10  C   UNL     1      10.457  12.604  61.535  0.00  0.00    +0.000 C 
BRANCH   6  12
ATOM     11  C   UNL     1      13.273  12.318  56.422  0.00  0.00    +0.000 C 
ATOM     12  C   UNL     1      12.986  12.342  57.589  0.00  0.00    +0.000 C 
BRANCH  11  14
ATOM     13  O   UNL     1      12.700  11.393  54.302  0.00  0.00    +0.000 OA
ATOM     14  C   UNL     1      13.609  12.286  55.008  0.00  0.00    +0.000 C 
ATOM     15  C   UNL     1      12.573  12.775  53.973  0.00  0.00    +0.000 C 
ATOM     16  C   UNL     1      15.116  12.236  54.574  0.00  0.00    +0.000 C 
ATOM     17  C   UNL     1      13.050  13.063  52.658  0.00  0.00    +0.000 C 
ATOM     18  C   UNL     1      15.159  12.524  53.138  0.00  0.00    +0.000 C 
ATOM     19  C   UNL     1      14.328  12.954  52.085  0.00  0.00    +0.000 C 
ATOM     20  C   UNL     1      11.217  13.374  54.355  0.00  0.00    +0.000 C 
ATOM     21  C   UNL     1      15.821  13.359  55.380  0.00  0.00    +0.000 C 
ATOM     22  C   UNL     1      15.632  10.826  54.937  0.00  0.00    +0.000 C 
BRANCH  19  23
ATOM     23  O   UNL     1      14.781  13.810  51.127  0.00  0.00    +0.000 OA
ATOM     24  H   UNL     1      14.951  13.362  50.279  0.00  0.00    +0.000 HD
ENDBRANCH  19  23
ENDBRANCH  11  14
ENDBRANCH   6  12
ENDBRANCH   1   2
BRANCH   1  25
ATOM     25  C   UNL     1       9.551  12.599  65.166  0.00  0.00    +0.000 C 
ATOM     26  C   UNL     1       9.653  12.612  66.362  0.00  0.00    +0.000 C 
BRANCH  26  28
ATOM     27  C   UNL     1       9.875  12.631  69.084  0.00  0.00    +0.000 C 
ATOM     28  C   UNL     1       9.781  12.622  67.888  0.00  0.00    +0.000 C 
BRANCH  27  29
ATOM     29  C   UNL     1       9.991  12.649  70.613  0.00  0.00    +0.000 C 
BRANCH  29  30
ATOM     30  C   UNL     1      10.087  12.675  71.905  0.00  0.00    +0.000 C 
ATOM     31  C   UNL     1       9.671  13.895  72.671  0.00  0.00    +0.000 C 
BRANCH  30  33
ATOM     32  C   UNL     1      11.105  10.626  73.181  0.00  0.00    +0.000 C 
ATOM     33  C   UNL     1      10.640  11.567  72.595  0.00  0.00    +0.000 C 
BRANCH  32  39
ATOM     34  C   UNL     1      11.313   9.303  75.300  0.00  0.00    +0.000 C 
ATOM     35  C   UNL     1      12.585   8.645  73.128  0.00  0.00    +0.000 C 
ATOM     36  C   UNL     1      11.742   7.949  75.677  0.00  0.00    +0.000 C 
ATOM     37  C   UNL     1      12.434   6.854  75.121  0.00  0.00    +0.000 C 
ATOM     38  C   UNL     1      12.760   7.395  73.860  0.00  0.00    +0.000 C 
ATOM     39  C   UNL     1      11.615   9.590  73.818  0.00  0.00    +0.000 C 
ATOM     40  C   UNL     1       9.775   9.404  75.537  0.00  0.00    +0.000 C 
ATOM     41  C   UNL     1      12.054  10.355  76.169  0.00  0.00    +0.000 C 
ATOM     42  C   UNL     1      13.929   9.332  72.870  0.00  0.00    +0.000 C 
BRANCH  35  43
ATOM     43  O   UNL     1      12.088   8.324  71.847  0.00  0.00    +0.000 OA
ATOM     44  H   UNL     1      12.022   7.352  71.904  0.00  0.00    +0.000 HD
ENDBRANCH  35  43
BRANCH  37  45
ATOM     45  O   UNL     1      13.403   6.211  75.881  0.00  0.00    +0.000 OA
BRANCH  45  47
ATOM     46  O   UNL     1      12.371   4.514  77.129  0.00  0.00    +0.000 OA
ATOM     47  C   UNL     1      12.994   4.953  76.181  0.00  0.00    +0.000 C 
ATOM     48  C   UNL     1      13.389   3.929  75.176  0.00  0.00    +0.000 C 
ENDBRANCH  45  47
ENDBRANCH  37  45
ENDBRANCH  32  39
ENDBRANCH  30  33
ENDBRANCH  29  30
ENDBRANCH  27  29
ENDBRANCH  26  28
ENDBRANCH   1  25
TORSDOF 13
ENDMDL
MODEL 5
REMARK VINA RESULT:      -4.5      9.273     18.935
REMARK  Name = 5289155_Peridinin.pdbqt.pdb
REMARK  13 active torsions:
REMARK  status: ('A' for Active; 'I' for Inactive)
REMARK    1  A    between atoms: C_1  and  C_3
REMARK    2  A    between atoms: C_3  and  C_25
REMARK    3  A    between atoms: C_6  and  C_12
REMARK    4  A    between atoms: C_11  and  C_14
REMARK    5  A    between atoms: C_19  and  O_23
REMARK    6  A    between atoms: C_26  and  C_28
REMARK    7  A    between atoms: C_27  and  C_31
REMARK    8  A    between atoms: C_29  and  C_31
REMARK    9  A    between atoms: C_29  and  C_42
REMARK   10  A    between atoms: C_33  and  O_43
REMARK   11  A    between atoms: C_35  and  O_45
REMARK   12  A    between atoms: C_37  and  C_41
REMARK   13  A    between atoms: O_45  and  C_47
REMARK                            x       y       z     vdW  Elec       q    Type
REMARK                         _______ _______ _______ _____ _____    ______ ____
ROOT
ATOM      1  C   UNL     1       2.185  10.972  67.458  0.00  0.00    +0.000 C 
ENDROOT
BRANCH   1   2
ATOM      2  C   UNL     1       1.591  10.333  68.416  0.00  0.00    +0.000 C 
ATOM      3  C   UNL     1       0.111  10.108  68.367  0.00  0.00    +0.000 C 
ATOM      4  O   UNL     1       4.222   9.948  70.850  0.00  0.00    +0.000 OA
ATOM      5  O   UNL     1       5.416   9.720  72.823  0.00  0.00    +0.000 OA
ATOM      6  C   UNL     1       3.320   8.567  72.490  0.00  0.00    +0.000 C 
ATOM      7  C   UNL     1       2.509   8.540  71.496  0.00  0.00    +0.000 C 
ATOM      8  C   UNL     1       4.452   9.453  72.129  0.00  0.00    +0.000 C 
ATOM      9  C   UNL     1       3.030   9.333  70.477  0.00  0.00    +0.000 C 
ATOM     10  C   UNL     1       2.344   9.812  69.492  0.00  0.00    +0.000 C 
BRANCH   6  12
ATOM     11  C   UNL     1       2.937   7.276  74.725  0.00  0.00    +0.000 C 
ATOM     12  C   UNL     1       3.117   7.874  73.698  0.00  0.00    +0.000 C 
BRANCH  11  14
ATOM     13  O   UNL     1       2.343   5.170  75.669  0.00  0.00    +0.000 OA
ATOM     14  C   UNL     1       2.710   6.549  75.963  0.00  0.00    +0.000 C 
ATOM     15  C   UNL     1       3.607   5.340  76.306  0.00  0.00    +0.000 C 
ATOM     16  C   UNL     1       1.932   7.244  77.135  0.00  0.00    +0.000 C 
ATOM     17  C   UNL     1       3.596   4.882  77.658  0.00  0.00    +0.000 C 
ATOM     18  C   UNL     1       2.125   6.417  78.329  0.00  0.00    +0.000 C 
ATOM     19  C   UNL     1       2.871   5.313  78.783  0.00  0.00    +0.000 C 
ATOM     20  C   UNL     1       4.793   4.898  75.445  0.00  0.00    +0.000 C 
ATOM     21  C   UNL     1       2.601   8.632  77.315  0.00  0.00    +0.000 C 
ATOM     22  C   UNL     1       0.458   7.345  76.686  0.00  0.00    +0.000 C 
BRANCH  19  23
ATOM     23  O   UNL     1       3.380   5.270  80.046  0.00  0.00    +0.000 OA
ATOM     24  H   UNL     1       2.921   4.620  80.609  0.00  0.00    +0.000 HD
ENDBRANCH  19  23
ENDBRANCH  11  14
ENDBRANCH   6  12
ENDBRANCH   1   2
BRANCH   1  25
ATOM     25  C   UNL     1       2.888  11.729  66.325  0.00  0.00    +0.000 C 
ATOM     26  C   UNL     1       3.436  12.326  65.440  0.00  0.00    +0.000 C 
BRANCH  26  28
ATOM     27  C   UNL     1       4.688  13.694  63.435  0.00  0.00    +0.000 C 
ATOM     28  C   UNL     1       4.136  13.095  64.315  0.00  0.00    +0.000 C 
BRANCH  27  29
ATOM     29  C   UNL     1       5.401  14.458  62.312  0.00  0.00    +0.000 C 
BRANCH  29  30
ATOM     30  C   UNL     1       6.008  15.094  61.360  0.00  0.00    +0.000 C 
ATOM     31  C   UNL     1       5.345  16.255  60.683  0.00  0.00    +0.000 C 
BRANCH  30  33
ATOM     32  C   UNL     1       8.361  14.283  60.541  0.00  0.00    +0.000 C 
ATOM     33  C   UNL     1       7.282  14.656  60.918  0.00  0.00    +0.000 C 
BRANCH  32  39
ATOM     34  C   UNL     1      10.233  12.623  60.687  0.00  0.00    +0.000 C 
ATOM     35  C   UNL     1      10.323  14.671  59.086  0.00  0.00    +0.000 C 
ATOM     36  C   UNL     1      11.373  12.221  59.852  0.00  0.00    +0.000 C 
ATOM     37  C   UNL     1      12.095  12.687  58.734  0.00  0.00    +0.000 C 
ATOM     38  C   UNL     1      11.417  13.902  58.503  0.00  0.00    +0.000 C 
ATOM     39  C   UNL     1       9.543  13.878  60.122  0.00  0.00    +0.000 C 
ATOM     40  C   UNL     1       9.212  11.444  60.706  0.00  0.00    +0.000 C 
ATOM     41  C   UNL     1      10.716  12.930  62.130  0.00  0.00    +0.000 C 
ATOM     42  C   UNL     1      10.823  15.995  59.673  0.00  0.00    +0.000 C 
BRANCH  35  43
ATOM     43  O   UNL     1       9.455  15.042  58.037  0.00  0.00    +0.000 OA
ATOM     44  H   UNL     1       9.091  15.881  58.377  0.00  0.00    +0.000 HD
ENDBRANCH  35  43
BRANCH  37  45
ATOM     45  O   UNL     1      13.483  12.651  58.763  0.00  0.00    +0.000 OA
BRANCH  45  47
ATOM     46  O   UNL     1      13.550  12.052  56.496  0.00  0.00    +0.000 OA
ATOM     47  C   UNL     1      13.970  12.599  57.498  0.00  0.00    +0.000 C 
ATOM     48  C   UNL     1      15.251  13.331  57.309  0.00  0.00    +0.000 C 
ENDBRANCH  45  47
ENDBRANCH  37  45
ENDBRANCH  32  39
ENDBRANCH  30  33
ENDBRANCH  29  30
ENDBRANCH  27  29
ENDBRANCH  26  28
ENDBRANCH   1  25
TORSDOF 13
ENDMDL
MODEL 6
REMARK VINA RESULT:      -4.4      4.119      5.227
REMARK  Name = 5289155_Peridinin.pdbqt.pdb
REMARK  13 active torsions:
REMARK  status: ('A' for Active; 'I' for Inactive)
REMARK    1  A    between atoms: C_1  and  C_3
REMARK    2  A    between atoms: C_3  and  C_25
REMARK    3  A    between atoms: C_6  and  C_12
REMARK    4  A    between atoms: C_11  and  C_14
REMARK    5  A    between atoms: C_19  and  O_23
REMARK    6  A    between atoms: C_26  and  C_28
REMARK    7  A    between atoms: C_27  and  C_31
REMARK    8  A    between atoms: C_29  and  C_31
REMARK    9  A    between atoms: C_29  and  C_42
REMARK   10  A    between atoms: C_33  and  O_43
REMARK   11  A    between atoms: C_35  and  O_45
REMARK   12  A    between atoms: C_37  and  C_41
REMARK   13  A    between atoms: O_45  and  C_47
REMARK                            x       y       z     vdW  Elec       q    Type
REMARK                         _______ _______ _______ _____ _____    ______ ____
ROOT
ATOM      1  C   UNL     1      15.252   5.458  73.402  0.00  0.00    +0.000 C 
ENDROOT
BRANCH   1   2
ATOM      2  C   UNL     1      16.288   6.004  72.846  0.00  0.00    +0.000 C 
ATOM      3  C   UNL     1      17.578   6.111  73.598  0.00  0.00    +0.000 C 
ATOM      4  O   UNL     1      14.930   7.311  69.773  0.00  0.00    +0.000 OA
ATOM      5  O   UNL     1      14.523   8.588  67.882  0.00  0.00    +0.000 OA
ATOM      6  C   UNL     1      16.777   8.069  68.579  0.00  0.00    +0.000 C 
ATOM      7  C   UNL     1      17.229   7.387  69.568  0.00  0.00    +0.000 C 
ATOM      8  C   UNL     1      15.297   8.049  68.653  0.00  0.00    +0.000 C 
ATOM      9  C   UNL     1      16.150   6.888  70.292  0.00  0.00    +0.000 C 
ATOM     10  C   UNL     1      16.214   6.466  71.512  0.00  0.00    +0.000 C 
BRANCH   6  12
ATOM     11  C   UNL     1      18.268   9.281  66.815  0.00  0.00    +0.000 C 
ATOM     12  C   UNL     1      17.585   8.720  67.629  0.00  0.00    +0.000 C 
BRANCH  11  14
ATOM     13  O   UNL     1      19.103  11.394  66.096  0.00  0.00    +0.000 OA
ATOM     14  C   UNL     1      19.085   9.963  65.824  0.00  0.00    +0.000 C 
ATOM     15  C   UNL     1      20.348  10.725  66.280  0.00  0.00    +0.000 C 
ATOM     16  C   UNL     1      18.986   9.538  64.317  0.00  0.00    +0.000 C 
ATOM     17  C   UNL     1      21.301  11.070  65.274  0.00  0.00    +0.000 C 
ATOM     18  C   UNL     1      20.116  10.158  63.620  0.00  0.00    +0.000 C 
ATOM     19  C   UNL     1      21.300  10.873  63.882  0.00  0.00    +0.000 C 
ATOM     20  C   UNL     1      20.847  10.743  67.728  0.00  0.00    +0.000 C 
ATOM     21  C   UNL     1      19.117   7.992  64.308  0.00  0.00    +0.000 C 
ATOM     22  C   UNL     1      17.609  10.023  63.813  0.00  0.00    +0.000 C 
BRANCH  19  23
ATOM     23  O   UNL     1      22.440  10.645  63.171  0.00  0.00    +0.000 OA
ATOM     24  H   UNL     1      22.290  10.060  62.407  0.00  0.00    +0.000 HD
ENDBRANCH  19  23
ENDBRANCH  11  14
ENDBRANCH   6  12
ENDBRANCH   1   2
BRANCH   1  25
ATOM     25  C   UNL     1      14.028   4.811  74.059  0.00  0.00    +0.000 C 
ATOM     26  C   UNL     1      13.066   4.308  74.570  0.00  0.00    +0.000 C 
BRANCH  26  28
ATOM     27  C   UNL     1      10.870   3.169  75.729  0.00  0.00    +0.000 C 
ATOM     28  C   UNL     1      11.833   3.668  75.217  0.00  0.00    +0.000 C 
BRANCH  27  29
ATOM     29  C   UNL     1       9.643   2.528  76.390  0.00  0.00    +0.000 C 
BRANCH  29  30
ATOM     30  C   UNL     1       8.606   1.980  76.939  0.00  0.00    +0.000 C 
ATOM     31  C   UNL     1       8.632   0.533  77.331  0.00  0.00    +0.000 C 
BRANCH  30  33
ATOM     32  C   UNL     1       6.414   3.376  77.274  0.00  0.00    +0.000 C 
ATOM     33  C   UNL     1       7.421   2.736  77.122  0.00  0.00    +0.000 C 
BRANCH  32  39
ATOM     34  C   UNL     1       4.842   5.137  76.431  0.00  0.00    +0.000 C 
ATOM     35  C   UNL     1       4.451   3.898  78.685  0.00  0.00    +0.000 C 
ATOM     36  C   UNL     1       3.452   5.539  76.685  0.00  0.00    +0.000 C 
ATOM     37  C   UNL     1       2.431   5.316  77.632  0.00  0.00    +0.000 C 
ATOM     38  C   UNL     1       3.121   4.477  78.531  0.00  0.00    +0.000 C 
ATOM     39  C   UNL     1       5.308   4.072  77.441  0.00  0.00    +0.000 C 
ATOM     40  C   UNL     1       4.917   4.543  74.991  0.00  0.00    +0.000 C 
ATOM     41  C   UNL     1       5.778   6.370  76.545  0.00  0.00    +0.000 C 
ATOM     42  C   UNL     1       5.163   4.456  79.922  0.00  0.00    +0.000 C 
BRANCH  35  43
ATOM     43  O   UNL     1       4.291   2.521  78.947  0.00  0.00    +0.000 OA
ATOM     44  H   UNL     1       3.350   2.483  79.202  0.00  0.00    +0.000 HD
ENDBRANCH  35  43
BRANCH  37  45
ATOM     45  O   UNL     1       1.698   6.398  78.102  0.00  0.00    +0.000 OA
BRANCH  45  47
ATOM     46  O   UNL     1      -0.399   5.767  77.262  0.00  0.00    +0.000 OA
ATOM     47  C   UNL     1       0.548   6.519  77.394  0.00  0.00    +0.000 C 
ATOM     48  C   UNL     1       0.433   7.792  76.633  0.00  0.00    +0.000 C 
ENDBRANCH  45  47
ENDBRANCH  37  45
ENDBRANCH  32  39
ENDBRANCH  30  33
ENDBRANCH  29  30
ENDBRANCH  27  29
ENDBRANCH  26  28
ENDBRANCH   1  25
TORSDOF 13
ENDMDL
MODEL 7
REMARK VINA RESULT:      -4.4      9.148     11.390
REMARK  Name = 5289155_Peridinin.pdbqt.pdb
REMARK  13 active torsions:
REMARK  status: ('A' for Active; 'I' for Inactive)
REMARK    1  A    between atoms: C_1  and  C_3
REMARK    2  A    between atoms: C_3  and  C_25
REMARK    3  A    between atoms: C_6  and  C_12
REMARK    4  A    between atoms: C_11  and  C_14
REMARK    5  A    between atoms: C_19  and  O_23
REMARK    6  A    between atoms: C_26  and  C_28
REMARK    7  A    between atoms: C_27  and  C_31
REMARK    8  A    between atoms: C_29  and  C_31
REMARK    9  A    between atoms: C_29  and  C_42
REMARK   10  A    between atoms: C_33  and  O_43
REMARK   11  A    between atoms: C_35  and  O_45
REMARK   12  A    between atoms: C_37  and  C_41
REMARK   13  A    between atoms: O_45  and  C_47
REMARK                            x       y       z     vdW  Elec       q    Type
REMARK                         _______ _______ _______ _____ _____    ______ ____
ROOT
ATOM      1  C   UNL     1      14.630  -0.673  63.815  0.00  0.00    +0.000 C 
ENDROOT
BRANCH   1   2
ATOM      2  C   UNL     1      15.662  -0.608  63.035  0.00  0.00    +0.000 C 
ATOM      3  C   UNL     1      16.987  -0.162  63.572  0.00  0.00    +0.000 C 
ATOM      4  O   UNL     1      14.229  -1.234  59.787  0.00  0.00    +0.000 OA
ATOM      5  O   UNL     1      13.794  -1.260  57.511  0.00  0.00    +0.000 OA
ATOM      6  C   UNL     1      16.052  -1.412  58.354  0.00  0.00    +0.000 C 
ATOM      7  C   UNL     1      16.518  -1.424  59.549  0.00  0.00    +0.000 C 
ATOM      8  C   UNL     1      14.577  -1.300  58.442  0.00  0.00    +0.000 C 
ATOM      9  C   UNL     1      15.452  -1.351  60.441  0.00  0.00    +0.000 C 
ATOM     10  C   UNL     1      15.550  -0.995  61.680  0.00  0.00    +0.000 C 
BRANCH   6  12
ATOM     11  C   UNL     1      17.524  -1.522  56.203  0.00  0.00    +0.000 C 
ATOM     12  C   UNL     1      16.846  -1.476  57.193  0.00  0.00    +0.000 C 
BRANCH  11  14
ATOM     13  O   UNL     1      19.505  -2.417  55.225  0.00  0.00    +0.000 OA
ATOM     14  C   UNL     1      18.344  -1.565  55.002  0.00  0.00    +0.000 C 
ATOM     15  C   UNL     1      18.558  -2.913  54.282  0.00  0.00    +0.000 C 
ATOM     16  C   UNL     1      18.589  -0.248  54.187  0.00  0.00    +0.000 C 
ATOM     17  C   UNL     1      19.054  -2.867  52.943  0.00  0.00    +0.000 C 
ATOM     18  C   UNL     1      19.166  -0.641  52.899  0.00  0.00    +0.000 C 
ATOM     19  C   UNL     1      19.433  -1.787  52.127  0.00  0.00    +0.000 C 
ATOM     20  C   UNL     1      17.887  -4.219  54.716  0.00  0.00    +0.000 C 
ATOM     21  C   UNL     1      17.188   0.389  53.989  0.00  0.00    +0.000 C 
ATOM     22  C   UNL     1      19.528   0.631  55.042  0.00  0.00    +0.000 C 
BRANCH  19  23
ATOM     23  O   UNL     1      19.260  -1.791  50.775  0.00  0.00    +0.000 OA
ATOM     24  H   UNL     1      18.438  -1.342  50.506  0.00  0.00    +0.000 HD
ENDBRANCH  19  23
ENDBRANCH  11  14
ENDBRANCH   6  12
ENDBRANCH   1   2
BRANCH   1  25
ATOM     25  C   UNL     1      13.409  -0.750  64.739  0.00  0.00    +0.000 C 
ATOM     26  C   UNL     1      12.456  -0.812  65.466  0.00  0.00    +0.000 C 
BRANCH  26  28
ATOM     27  C   UNL     1      10.292  -0.959  67.125  0.00  0.00    +0.000 C 
ATOM     28  C   UNL     1      11.244  -0.895  66.399  0.00  0.00    +0.000 C 
BRANCH  27  29
ATOM     29  C   UNL     1       9.070  -1.037  68.049  0.00  0.00    +0.000 C 
BRANCH  29  30
ATOM     30  C   UNL     1       8.035  -1.112  68.824  0.00  0.00    +0.000 C 
ATOM     31  C   UNL     1       8.206  -1.296  70.302  0.00  0.00    +0.000 C 
BRANCH  30  33
ATOM     32  C   UNL     1       5.626  -1.046  67.795  0.00  0.00    +0.000 C 
ATOM     33  C   UNL     1       6.731  -1.074  68.268  0.00  0.00    +0.000 C 
BRANCH  32  39
ATOM     34  C   UNL     1       3.963   0.066  66.284  0.00  0.00    +0.000 C 
ATOM     35  C   UNL     1       3.362  -2.037  67.693  0.00  0.00    +0.000 C 
ATOM     36  C   UNL     1       2.696  -0.300  65.636  0.00  0.00    +0.000 C 
ATOM     37  C   UNL     1       1.708  -1.303  65.712  0.00  0.00    +0.000 C 
ATOM     38  C   UNL     1       2.225  -2.065  66.781  0.00  0.00    +0.000 C 
ATOM     39  C   UNL     1       4.413  -1.018  67.280  0.00  0.00    +0.000 C 
ATOM     40  C   UNL     1       5.046   0.218  65.172  0.00  0.00    +0.000 C 
ATOM     41  C   UNL     1       3.798   1.406  67.050  0.00  0.00    +0.000 C 
ATOM     42  C   UNL     1       2.912  -1.804  69.139  0.00  0.00    +0.000 C 
BRANCH  35  43
ATOM     43  O   UNL     1       3.940  -3.324  67.695  0.00  0.00    +0.000 OA
ATOM     44  H   UNL     1       3.903  -3.553  66.747  0.00  0.00    +0.000 HD
ENDBRANCH  35  43
BRANCH  37  45
ATOM     45  O   UNL     1       0.369  -0.935  65.695  0.00  0.00    +0.000 OA
BRANCH  45  47
ATOM     46  O   UNL     1      -1.301  -2.563  65.442  0.00  0.00    +0.000 OA
ATOM     47  C   UNL     1      -0.363  -1.885  65.064  0.00  0.00    +0.000 C 
ATOM     48  C   UNL     1       0.066  -2.155  63.665  0.00  0.00    +0.000 C 
ENDBRANCH  45  47
ENDBRANCH  37  45
ENDBRANCH  32  39
ENDBRANCH  30  33
ENDBRANCH  29  30
ENDBRANCH  27  29
ENDBRANCH  26  28
ENDBRANCH   1  25
TORSDOF 13
ENDMDL
MODEL 8
REMARK VINA RESULT:      -4.4      4.719      6.916
REMARK  Name = 5289155_Peridinin.pdbqt.pdb
REMARK  13 active torsions:
REMARK  status: ('A' for Active; 'I' for Inactive)
REMARK    1  A    between atoms: C_1  and  C_3
REMARK    2  A    between atoms: C_3  and  C_25
REMARK    3  A    between atoms: C_6  and  C_12
REMARK    4  A    between atoms: C_11  and  C_14
REMARK    5  A    between atoms: C_19  and  O_23
REMARK    6  A    between atoms: C_26  and  C_28
REMARK    7  A    between atoms: C_27  and  C_31
REMARK    8  A    between atoms: C_29  and  C_31
REMARK    9  A    between atoms: C_29  and  C_42
REMARK   10  A    between atoms: C_33  and  O_43
REMARK   11  A    between atoms: C_35  and  O_45
REMARK   12  A    between atoms: C_37  and  C_41
REMARK   13  A    between atoms: O_45  and  C_47
REMARK                            x       y       z     vdW  Elec       q    Type
REMARK                         _______ _______ _______ _____ _____    ______ ____
ROOT
ATOM      1  C   UNL     1      16.151   2.547  68.298  0.00  0.00    +0.000 C 
ENDROOT
BRANCH   1   2
ATOM      2  C   UNL     1      16.811   2.376  67.196  0.00  0.00    +0.000 C 
ATOM      3  C   UNL     1      16.848   1.029  66.542  0.00  0.00    +0.000 C 
ATOM      4  O   UNL     1      18.521   5.525  66.809  0.00  0.00    +0.000 OA
ATOM      5  O   UNL     1      20.055   7.176  66.267  0.00  0.00    +0.000 OA
ATOM      6  C   UNL     1      19.516   5.409  64.709  0.00  0.00    +0.000 C 
ATOM      7  C   UNL     1      18.709   4.416  64.792  0.00  0.00    +0.000 C 
ATOM      8  C   UNL     1      19.433   6.169  65.979  0.00  0.00    +0.000 C 
ATOM      9  C   UNL     1      18.068   4.467  66.026  0.00  0.00    +0.000 C 
ATOM     10  C   UNL     1      17.468   3.469  66.587  0.00  0.00    +0.000 C 
BRANCH   6  12
ATOM     11  C   UNL     1      21.032   5.915  62.647  0.00  0.00    +0.000 C 
ATOM     12  C   UNL     1      20.332   5.678  63.594  0.00  0.00    +0.000 C 
BRANCH  11  14
ATOM     13  O   UNL     1      23.030   5.318  61.493  0.00  0.00    +0.000 OA
ATOM     14  C   UNL     1      21.880   6.213  61.504  0.00  0.00    +0.000 C 
ATOM     15  C   UNL     1      22.104   5.131  60.426  0.00  0.00    +0.000 C 
ATOM     16  C   UNL     1      22.154   7.707  61.115  0.00  0.00    +0.000 C 
ATOM     17  C   UNL     1      22.633   5.559  59.171  0.00  0.00    +0.000 C 
ATOM     18  C   UNL     1      22.760   7.700  59.781  0.00  0.00    +0.000 C 
ATOM     19  C   UNL     1      23.039   6.825  58.714  0.00  0.00    +0.000 C 
ATOM     20  C   UNL     1      21.414   3.764  60.445  0.00  0.00    +0.000 C 
ATOM     21  C   UNL     1      20.762   8.392  61.081  0.00  0.00    +0.000 C 
ATOM     22  C   UNL     1      23.077   8.286  62.209  0.00  0.00    +0.000 C 
BRANCH  19  23
ATOM     23  O   UNL     1      22.899   7.218  57.417  0.00  0.00    +0.000 OA
ATOM     24  H   UNL     1      22.323   6.620  56.908  0.00  0.00    +0.000 HD
ENDBRANCH  19  23
ENDBRANCH  11  14
ENDBRANCH   6  12
ENDBRANCH   1   2
BRANCH   1  25
ATOM     25  C   UNL     1      15.369   2.750  69.601  0.00  0.00    +0.000 C 
ATOM     26  C   UNL     1      14.761   2.914  70.622  0.00  0.00    +0.000 C 
BRANCH  26  28
ATOM     27  C   UNL     1      13.380   3.292  72.948  0.00  0.00    +0.000 C 
ATOM     28  C   UNL     1      13.988   3.129  71.927  0.00  0.00    +0.000 C 
BRANCH  27  29
ATOM     29  C   UNL     1      12.595   3.499  74.250  0.00  0.00    +0.000 C 
BRANCH  29  30
ATOM     30  C   UNL     1      11.926   3.680  75.344  0.00  0.00    +0.000 C 
ATOM     31  C   UNL     1      12.268   4.815  76.262  0.00  0.00    +0.000 C 
BRANCH  30  33
ATOM     32  C   UNL     1      10.031   1.999  76.013  0.00  0.00    +0.000 C 
ATOM     33  C   UNL     1      10.901   2.769  75.704  0.00  0.00    +0.000 C 
BRANCH  32  39
ATOM     34  C   UNL     1       7.921   1.554  77.290  0.00  0.00    +0.000 C 
ATOM     35  C   UNL     1       9.088  -0.283  75.866  0.00  0.00    +0.000 C 
ATOM     36  C   UNL     1       6.842   0.557  77.258  0.00  0.00    +0.000 C 
ATOM     37  C   UNL     1       6.573  -0.708  76.697  0.00  0.00    +0.000 C 
ATOM     38  C   UNL     1       7.800  -0.944  76.044  0.00  0.00    +0.000 C 
ATOM     39  C   UNL     1       9.073   1.158  76.350  0.00  0.00    +0.000 C 
ATOM     40  C   UNL     1       7.328   2.920  76.824  0.00  0.00    +0.000 C 
ATOM     41  C   UNL     1       8.479   1.684  78.732  0.00  0.00    +0.000 C 
ATOM     42  C   UNL     1      10.217  -1.073  76.536  0.00  0.00    +0.000 C 
BRANCH  35  43
ATOM     43  O   UNL     1       9.394  -0.307  74.489  0.00  0.00    +0.000 OA
ATOM     44  H   UNL     1      10.198   0.245  74.461  0.00  0.00    +0.000 HD
ENDBRANCH  35  43
BRANCH  37  45
ATOM     45  O   UNL     1       6.000  -1.692  77.493  0.00  0.00    +0.000 OA
BRANCH  45  47
ATOM     46  O   UNL     1       6.177  -0.940  79.708  0.00  0.00    +0.000 OA
ATOM     47  C   UNL     1       6.501  -1.618  78.751  0.00  0.00    +0.000 C 
ATOM     48  C   UNL     1       7.661  -2.516  78.998  0.00  0.00    +0.000 C 
ENDBRANCH  45  47
ENDBRANCH  37  45
ENDBRANCH  32  39
ENDBRANCH  30  33
ENDBRANCH  29  30
ENDBRANCH  27  29
ENDBRANCH  26  28
ENDBRANCH   1  25
TORSDOF 13
ENDMDL
MODEL 9
REMARK VINA RESULT:      -4.3      6.352     10.556
REMARK  Name = 5289155_Peridinin.pdbqt.pdb
REMARK  13 active torsions:
REMARK  status: ('A' for Active; 'I' for Inactive)
REMARK    1  A    between atoms: C_1  and  C_3
REMARK    2  A    between atoms: C_3  and  C_25
REMARK    3  A    between atoms: C_6  and  C_12
REMARK    4  A    between atoms: C_11  and  C_14
REMARK    5  A    between atoms: C_19  and  O_23
REMARK    6  A    between atoms: C_26  and  C_28
REMARK    7  A    between atoms: C_27  and  C_31
REMARK    8  A    between atoms: C_29  and  C_31
REMARK    9  A    between atoms: C_29  and  C_42
REMARK   10  A    between atoms: C_33  and  O_43
REMARK   11  A    between atoms: C_35  and  O_45
REMARK   12  A    between atoms: C_37  and  C_41
REMARK   13  A    between atoms: O_45  and  C_47
REMARK                            x       y       z     vdW  Elec       q    Type
REMARK                         _______ _______ _______ _____ _____    ______ ____
ROOT
ATOM      1  C   UNL     1      17.724   0.468  64.505  0.00  0.00    +0.000 C 
ENDROOT
BRANCH   1   2
ATOM      2  C   UNL     1      18.189   0.096  63.354  0.00  0.00    +0.000 C 
ATOM      3  C   UNL     1      19.666   0.070  63.111  0.00  0.00    +0.000 C 
ATOM      4  O   UNL     1      15.200  -0.202  61.362  0.00  0.00    +0.000 OA
ATOM      5  O   UNL     1      13.684  -0.234  59.608  0.00  0.00    +0.000 OA
ATOM      6  C   UNL     1      15.912  -1.133  59.353  0.00  0.00    +0.000 C 
ATOM      7  C   UNL     1      16.894  -1.227  60.173  0.00  0.00    +0.000 C 
ATOM      8  C   UNL     1      14.784  -0.488  60.066  0.00  0.00    +0.000 C 
ATOM      9  C   UNL     1      16.496  -0.706  61.402  0.00  0.00    +0.000 C 
ATOM     10  C   UNL     1      17.303  -0.321  62.335  0.00  0.00    +0.000 C 
BRANCH   6  12
ATOM     11  C   UNL     1      15.997  -1.941  56.874  0.00  0.00    +0.000 C 
ATOM     12  C   UNL     1      15.953  -1.566  58.015  0.00  0.00    +0.000 C 
BRANCH  11  14
ATOM     13  O   UNL     1      17.315  -3.099  55.261  0.00  0.00    +0.000 OA
ATOM     14  C   UNL     1      16.060  -2.397  55.494  0.00  0.00    +0.000 C 
ATOM     15  C   UNL     1      16.144  -3.909  55.201  0.00  0.00    +0.000 C 
ATOM     16  C   UNL     1      15.564  -1.450  54.346  0.00  0.00    +0.000 C 
ATOM     17  C   UNL     1      15.849  -4.334  53.870  0.00  0.00    +0.000 C 
ATOM     18  C   UNL     1      15.454  -2.267  53.134  0.00  0.00    +0.000 C 
ATOM     19  C   UNL     1      15.513  -3.609  52.713  0.00  0.00    +0.000 C 
ATOM     20  C   UNL     1      16.086  -4.986  56.289  0.00  0.00    +0.000 C 
ATOM     21  C   UNL     1      14.168  -0.944  54.794  0.00  0.00    +0.000 C 
ATOM     22  C   UNL     1      16.603  -0.314  54.232  0.00  0.00    +0.000 C 
BRANCH  19  23
ATOM     23  O   UNL     1      14.667  -4.094  51.761  0.00  0.00    +0.000 OA
ATOM     24  H   UNL     1      15.071  -4.101  50.875  0.00  0.00    +0.000 HD
ENDBRANCH  19  23
ENDBRANCH  11  14
ENDBRANCH   6  12
ENDBRANCH   1   2
BRANCH   1  25
ATOM     25  C   UNL     1      17.175   0.909  65.867  0.00  0.00    +0.000 C 
ATOM     26  C   UNL     1      16.742   1.249  66.933  0.00  0.00    +0.000 C 
BRANCH  26  28
ATOM     27  C   UNL     1      15.751   2.017  69.360  0.00  0.00    +0.000 C 
ATOM     28  C   UNL     1      16.185   1.677  68.295  0.00  0.00    +0.000 C 
BRANCH  27  29
ATOM     29  C   UNL     1      15.200   2.458  70.722  0.00  0.00    +0.000 C 
BRANCH  29  30
ATOM     30  C   UNL     1      14.725   2.824  71.870  0.00  0.00    +0.000 C 
ATOM     31  C   UNL     1      15.262   4.044  72.557  0.00  0.00    +0.000 C 
BRANCH  30  33
ATOM     32  C   UNL     1      12.892   1.370  73.048  0.00  0.00    +0.000 C 
ATOM     33  C   UNL     1      13.732   2.039  72.508  0.00  0.00    +0.000 C 
BRANCH  32  39
ATOM     34  C   UNL     1      11.476   0.936  75.071  0.00  0.00    +0.000 C 
ATOM     35  C   UNL     1      11.393  -0.596  72.969  0.00  0.00    +0.000 C 
ATOM     36  C   UNL     1      10.257   0.176  75.379  0.00  0.00    +0.000 C 
ATOM     37  C   UNL     1       9.445  -0.821  74.801  0.00  0.00    +0.000 C 
ATOM     38  C   UNL     1      10.171  -1.061  73.616  0.00  0.00    +0.000 C 
ATOM     39  C   UNL     1      11.974   0.636  73.645  0.00  0.00    +0.000 C 
ATOM     40  C   UNL     1      11.139   2.454  75.186  0.00  0.00    +0.000 C 
ATOM     41  C   UNL     1      12.599   0.564  76.076  0.00  0.00    +0.000 C 
ATOM     42  C   UNL     1      12.436  -1.714  72.877  0.00  0.00    +0.000 C 
BRANCH  35  43
ATOM     43  O   UNL     1      11.075  -0.283  71.631  0.00  0.00    +0.000 OA
ATOM     44  H   UNL     1      10.832   0.659  71.705  0.00  0.00    +0.000 HD
ENDBRANCH  35  43
BRANCH  37  45
ATOM     45  O   UNL     1       9.014  -1.881  75.588  0.00  0.00    +0.000 OA
BRANCH  45  47
ATOM     46  O   UNL     1       7.457  -0.999  77.105  0.00  0.00    +0.000 OA
ATOM     47  C   UNL     1       7.791  -1.606  76.104  0.00  0.00    +0.000 C 
ATOM     48  C   UNL     1       6.657  -2.153  75.310  0.00  0.00    +0.000 C 
ENDBRANCH  45  47
ENDBRANCH  37  45
ENDBRANCH  32  39
ENDBRANCH  30  33
ENDBRANCH  29  30
ENDBRANCH  27  29
ENDBRANCH  26  28
ENDBRANCH   1  25
TORSDOF 13
ENDMDL
