MODEL 1
REMARK VINA RESULT:      -4.7      0.000      0.000
REMARK  Name = 5318517_Andrographolide.pdbqt.pdb
REMARK  6 active torsions:
REMARK  status: ('A' for Active; 'I' for Inactive)
REMARK    1  A    between atoms: C_3  and  C_16
REMARK    2  A    between atoms: C_4  and  C_19
REMARK    3  A    between atoms: C_6  and  O_14
REMARK    4  A    between atoms: C_16  and  O_17
REMARK    5  A    between atoms: C_22  and  C_23
REMARK    6  A    between atoms: C_24  and  O_27
REMARK                            x       y       z     vdW  Elec       q    Type
REMARK                         _______ _______ _______ _____ _____    ______ ____
ROOT
ATOM      1  C   UNL     1       5.909   5.997  59.660  0.00  0.00    +0.000 C 
ATOM      2  C   UNL     1       7.237   6.407  58.953  0.00  0.00    +0.000 C 
ATOM      3  C   UNL     1       7.955   5.492  57.945  0.00  0.00    +0.000 C 
ATOM      4  C   UNL     1       5.650   6.594  61.072  0.00  0.00    +0.000 C 
ATOM      5  C   UNL     1       5.967   4.541  59.738  0.00  0.00    +0.000 C 
ATOM      6  C   UNL     1       7.689   3.961  58.061  0.00  0.00    +0.000 C 
ATOM      7  C   UNL     1       7.734   7.675  59.366  0.00  0.00    +0.000 C 
ATOM      8  C   UNL     1       6.766   3.506  59.021  0.00  0.00    +0.000 C 
ATOM      9  C   UNL     1       4.737   6.450  58.736  0.00  0.00    +0.000 C 
ATOM     10  C   UNL     1       7.216   8.394  60.570  0.00  0.00    +0.000 C 
ATOM     11  C   UNL     1       6.209   7.906  61.430  0.00  0.00    +0.000 C 
ATOM     12  C   UNL     1       9.502   5.668  58.155  0.00  0.00    +0.000 C 
ATOM     13  C   UNL     1       6.017   8.538  62.588  0.00  0.00    +0.000 C 
ENDROOT
BRANCH   6  14
ATOM     14  O   UNL     1       8.188   3.082  57.115  0.00  0.00    +0.000 OA
ATOM     15  H   UNL     1       8.234   2.168  57.449  0.00  0.00    +0.000 HD
ENDBRANCH   6  14
BRANCH   4  16
ATOM     16  C   UNL     1       4.763   5.931  61.986  0.00  0.00    +0.000 C 
ATOM     17  C   UNL     1       3.808   5.224  62.952  0.00  0.00    +0.000 C 
BRANCH  17  20
ATOM     18  O   UNL     1       1.998   2.846  64.891  0.00  0.00    +0.000 OA
ATOM     19  O   UNL     1       3.347   2.287  63.071  0.00  0.00    +0.000 OA
ATOM     20  C   UNL     1       3.002   4.617  63.765  0.00  0.00    +0.000 C 
ATOM     21  C   UNL     1       2.205   5.201  64.814  0.00  0.00    +0.000 C 
ATOM     22  C   UNL     1       2.843   3.110  63.815  0.00  0.00    +0.000 C 
ATOM     23  C   UNL     1       1.698   4.035  65.392  0.00  0.00    +0.000 C 
BRANCH  21  24
ATOM     24  O   UNL     1       2.672   6.274  65.518  0.00  0.00    +0.000 OA
ATOM     25  H   UNL     1       2.882   7.025  64.936  0.00  0.00    +0.000 HD
ENDBRANCH  21  24
ENDBRANCH  17  20
ENDBRANCH   4  16
BRANCH   3  26
ATOM     26  C   UNL     1       7.566   5.936  56.576  0.00  0.00    +0.000 C 
BRANCH  26  27
ATOM     27  O   UNL     1       7.227   6.343  55.349  0.00  0.00    +0.000 OA
ATOM     28  H   UNL     1       7.790   5.915  54.679  0.00  0.00    +0.000 HD
ENDBRANCH  26  27
ENDBRANCH   3  26
TORSDOF 6
ENDMDL
MODEL 2
REMARK VINA RESULT:      -4.7     13.805     16.270
REMARK  Name = 5318517_Andrographolide.pdbqt.pdb
REMARK  6 active torsions:
REMARK  status: ('A' for Active; 'I' for Inactive)
REMARK    1  A    between atoms: C_3  and  C_16
REMARK    2  A    between atoms: C_4  and  C_19
REMARK    3  A    between atoms: C_6  and  O_14
REMARK    4  A    between atoms: C_16  and  O_17
REMARK    5  A    between atoms: C_22  and  C_23
REMARK    6  A    between atoms: C_24  and  O_27
REMARK                            x       y       z     vdW  Elec       q    Type
REMARK                         _______ _______ _______ _____ _____    ______ ____
ROOT
ATOM      1  C   UNL     1      13.401   2.697  73.861  0.00  0.00    +0.000 C 
ATOM      2  C   UNL     1      12.285   2.632  74.947  0.00  0.00    +0.000 C 
ATOM      3  C   UNL     1      11.566   1.323  75.319  0.00  0.00    +0.000 C 
ATOM      4  C   UNL     1      13.558   4.039  73.092  0.00  0.00    +0.000 C 
ATOM      5  C   UNL     1      13.070   1.624  72.928  0.00  0.00    +0.000 C 
ATOM      6  C   UNL     1      11.530   0.201  74.239  0.00  0.00    +0.000 C 
ATOM      7  C   UNL     1      11.970   3.898  75.518  0.00  0.00    +0.000 C 
ATOM      8  C   UNL     1      12.208   0.411  73.024  0.00  0.00    +0.000 C 
ATOM      9  C   UNL     1      14.755   2.402  74.575  0.00  0.00    +0.000 C 
ATOM     10  C   UNL     1      12.432   5.189  74.922  0.00  0.00    +0.000 C 
ATOM     11  C   UNL     1      13.200   5.307  73.745  0.00  0.00    +0.000 C 
ATOM     12  C   UNL     1      10.062   1.670  75.616  0.00  0.00    +0.000 C 
ATOM     13  C   UNL     1      13.335   6.519  73.205  0.00  0.00    +0.000 C 
ENDROOT
BRANCH   6  14
ATOM     14  O   UNL     1      11.022  -1.052  74.536  0.00  0.00    +0.000 OA
ATOM     15  H   UNL     1      10.509  -1.056  75.363  0.00  0.00    +0.000 HD
ENDBRANCH   6  14
BRANCH   4  16
ATOM     16  C   UNL     1      14.170   4.061  71.793  0.00  0.00    +0.000 C 
ATOM     17  C   UNL     1      14.828   4.094  70.411  0.00  0.00    +0.000 C 
BRANCH  17  20
ATOM     18  O   UNL     1      16.299   5.024  67.303  0.00  0.00    +0.000 OA
ATOM     19  O   UNL     1      15.064   6.477  68.646  0.00  0.00    +0.000 OA
ATOM     20  C   UNL     1      15.394   4.119  69.245  0.00  0.00    +0.000 C 
ATOM     21  C   UNL     1      16.075   3.041  68.573  0.00  0.00    +0.000 C 
ATOM     22  C   UNL     1      15.529   5.376  68.409  0.00  0.00    +0.000 C 
ATOM     23  C   UNL     1      16.566   3.737  67.466  0.00  0.00    +0.000 C 
BRANCH  21  24
ATOM     24  O   UNL     1      16.789   2.124  69.290  0.00  0.00    +0.000 OA
ATOM     25  H   UNL     1      17.511   2.541  69.793  0.00  0.00    +0.000 HD
ENDBRANCH  21  24
ENDBRANCH  17  20
ENDBRANCH   4  16
BRANCH   3  26
ATOM     26  C   UNL     1      12.220   0.781  76.543  0.00  0.00    +0.000 C 
BRANCH  26  27
ATOM     27  O   UNL     1      12.818   0.293  77.634  0.00  0.00    +0.000 OA
ATOM     28  H   UNL     1      13.785   0.274  77.517  0.00  0.00    +0.000 HD
ENDBRANCH  26  27
ENDBRANCH   3  26
TORSDOF 6
ENDMDL
MODEL 3
REMARK VINA RESULT:      -4.5     14.385     16.361
REMARK  Name = 5318517_Andrographolide.pdbqt.pdb
REMARK  6 active torsions:
REMARK  status: ('A' for Active; 'I' for Inactive)
REMARK    1  A    between atoms: C_3  and  C_16
REMARK    2  A    between atoms: C_4  and  C_19
REMARK    3  A    between atoms: C_6  and  O_14
REMARK    4  A    between atoms: C_16  and  O_17
REMARK    5  A    between atoms: C_22  and  C_23
REMARK    6  A    between atoms: C_24  and  O_27
REMARK                            x       y       z     vdW  Elec       q    Type
REMARK                         _______ _______ _______ _____ _____    ______ ____
ROOT
ATOM      1  C   UNL     1      12.260   3.332  75.279  0.00  0.00    +0.000 C 
ATOM      2  C   UNL     1      12.929   2.679  74.032  0.00  0.00    +0.000 C 
ATOM      3  C   UNL     1      13.909   3.442  73.123  0.00  0.00    +0.000 C 
ATOM      4  C   UNL     1      10.860   2.794  75.690  0.00  0.00    +0.000 C 
ATOM      5  C   UNL     1      12.171   4.751  74.949  0.00  0.00    +0.000 C 
ATOM      6  C   UNL     1      13.791   4.996  73.097  0.00  0.00    +0.000 C 
ATOM      7  C   UNL     1      12.509   1.339  73.796  0.00  0.00    +0.000 C 
ATOM      8  C   UNL     1      12.857   5.616  73.947  0.00  0.00    +0.000 C 
ATOM      9  C   UNL     1      13.222   3.110  76.486  0.00  0.00    +0.000 C 
ATOM     10  C   UNL     1      11.326   0.731  74.478  0.00  0.00    +0.000 C 
ATOM     11  C   UNL     1      10.495   1.400  75.401  0.00  0.00    +0.000 C 
ATOM     12  C   UNL     1      13.654   2.976  71.644  0.00  0.00    +0.000 C 
ATOM     13  C   UNL     1       9.346   0.815  75.745  0.00  0.00    +0.000 C 
ENDROOT
BRANCH   6  14
ATOM     14  O   UNL     1      14.716   5.765  72.413  0.00  0.00    +0.000 OA
ATOM     15  H   UNL     1      15.605   5.367  72.420  0.00  0.00    +0.000 HD
ENDBRANCH   6  14
BRANCH   4  16
ATOM     16  C   UNL     1       9.970   3.612  76.464  0.00  0.00    +0.000 C 
ATOM     17  C   UNL     1       9.024   4.481  77.299  0.00  0.00    +0.000 C 
BRANCH  17  20
ATOM     18  O   UNL     1       6.444   6.631  78.484  0.00  0.00    +0.000 OA
ATOM     19  O   UNL     1       6.953   6.329  76.228  0.00  0.00    +0.000 OA
ATOM     20  C   UNL     1       8.231   5.221  78.008  0.00  0.00    +0.000 C 
ATOM     21  C   UNL     1       8.129   5.278  79.444  0.00  0.00    +0.000 C 
ATOM     22  C   UNL     1       7.158   6.109  77.409  0.00  0.00    +0.000 C 
ATOM     23  C   UNL     1       7.026   6.126  79.561  0.00  0.00    +0.000 C 
BRANCH  21  24
ATOM     24  O   UNL     1       8.323   4.152  80.194  0.00  0.00    +0.000 OA
ATOM     25  H   UNL     1       7.591   4.003  80.818  0.00  0.00    +0.000 HD
ENDBRANCH  21  24
ENDBRANCH  17  20
ENDBRANCH   4  16
BRANCH   3  26
ATOM     26  C   UNL     1      15.292   3.080  73.546  0.00  0.00    +0.000 C 
BRANCH  26  27
ATOM     27  O   UNL     1      16.530   2.744  73.920  0.00  0.00    +0.000 OA
ATOM     28  H   UNL     1      17.171   2.963  73.219  0.00  0.00    +0.000 HD
ENDBRANCH  26  27
ENDBRANCH   3  26
TORSDOF 6
ENDMDL
MODEL 4
REMARK VINA RESULT:      -4.4     14.377     16.386
REMARK  Name = 5318517_Andrographolide.pdbqt.pdb
REMARK  6 active torsions:
REMARK  status: ('A' for Active; 'I' for Inactive)
REMARK    1  A    between atoms: C_3  and  C_16
REMARK    2  A    between atoms: C_4  and  C_19
REMARK    3  A    between atoms: C_6  and  O_14
REMARK    4  A    between atoms: C_16  and  O_17
REMARK    5  A    between atoms: C_22  and  C_23
REMARK    6  A    between atoms: C_24  and  O_27
REMARK                            x       y       z     vdW  Elec       q    Type
REMARK                         _______ _______ _______ _____ _____    ______ ____
ROOT
ATOM      1  C   UNL     1      12.336   3.290  75.222  0.00  0.00    +0.000 C 
ATOM      2  C   UNL     1      12.948   2.535  74.004  0.00  0.00    +0.000 C 
ATOM      3  C   UNL     1      13.952   3.193  73.041  0.00  0.00    +0.000 C 
ATOM      4  C   UNL     1      10.916   2.852  75.681  0.00  0.00    +0.000 C 
ATOM      5  C   UNL     1      12.317   4.692  74.815  0.00  0.00    +0.000 C 
ATOM      6  C   UNL     1      13.916   4.748  72.931  0.00  0.00    +0.000 C 
ATOM      7  C   UNL     1      12.454   1.209  73.848  0.00  0.00    +0.000 C 
ATOM      8  C   UNL     1      13.031   5.463  73.757  0.00  0.00    +0.000 C 
ATOM      9  C   UNL     1      13.304   3.083  76.426  0.00  0.00    +0.000 C 
ATOM     10  C   UNL     1      11.251   0.704  74.579  0.00  0.00    +0.000 C 
ATOM     11  C   UNL     1      10.472   1.466  75.474  0.00  0.00    +0.000 C 
ATOM     12  C   UNL     1      13.648   2.662  71.593  0.00  0.00    +0.000 C 
ATOM     13  C   UNL     1       9.300   0.964  75.865  0.00  0.00    +0.000 C 
ENDROOT
BRANCH   6  14
ATOM     14  O   UNL     1      14.869   5.427  72.192  0.00  0.00    +0.000 OA
ATOM     15  H   UNL     1      15.749   5.397  72.608  0.00  0.00    +0.000 HD
ENDBRANCH   6  14
BRANCH   4  16
ATOM     16  C   UNL     1      10.083   3.758  76.420  0.00  0.00    +0.000 C 
ATOM     17  C   UNL     1       9.187   4.724  77.200  0.00  0.00    +0.000 C 
BRANCH  17  20
ATOM     18  O   UNL     1       7.817   7.110  79.463  0.00  0.00    +0.000 OA
ATOM     19  O   UNL     1       9.891   6.081  79.753  0.00  0.00    +0.000 OA
ATOM     20  C   UNL     1       8.423   5.536  77.862  0.00  0.00    +0.000 C 
ATOM     21  C   UNL     1       7.110   6.004  77.496  0.00  0.00    +0.000 C 
ATOM     22  C   UNL     1       8.853   6.239  79.134  0.00  0.00    +0.000 C 
ATOM     23  C   UNL     1       6.906   6.933  78.519  0.00  0.00    +0.000 C 
BRANCH  21  24
ATOM     24  O   UNL     1       6.795   6.216  76.184  0.00  0.00    +0.000 OA
ATOM     25  H   UNL     1       5.863   6.474  76.073  0.00  0.00    +0.000 HD
ENDBRANCH  21  24
ENDBRANCH  17  20
ENDBRANCH   4  16
BRANCH   3  26
ATOM     26  C   UNL     1      15.320   2.781  73.464  0.00  0.00    +0.000 C 
BRANCH  26  27
ATOM     27  O   UNL     1      16.552   2.421  73.838  0.00  0.00    +0.000 OA
ATOM     28  H   UNL     1      16.533   1.564  74.301  0.00  0.00    +0.000 HD
ENDBRANCH  26  27
ENDBRANCH   3  26
TORSDOF 6
ENDMDL
MODEL 5
REMARK VINA RESULT:      -4.4      6.627     11.856
REMARK  Name = 5318517_Andrographolide.pdbqt.pdb
REMARK  6 active torsions:
REMARK  status: ('A' for Active; 'I' for Inactive)
REMARK    1  A    between atoms: C_3  and  C_16
REMARK    2  A    between atoms: C_4  and  C_19
REMARK    3  A    between atoms: C_6  and  O_14
REMARK    4  A    between atoms: C_16  and  O_17
REMARK    5  A    between atoms: C_22  and  C_23
REMARK    6  A    between atoms: C_24  and  O_27
REMARK                            x       y       z     vdW  Elec       q    Type
REMARK                         _______ _______ _______ _____ _____    ______ ____
ROOT
ATOM      1  C   UNL     1       1.686   9.189  70.156  0.00  0.00    +0.000 C 
ATOM      2  C   UNL     1       1.265   9.689  71.571  0.00  0.00    +0.000 C 
ATOM      3  C   UNL     1       2.266   9.830  72.732  0.00  0.00    +0.000 C 
ATOM      4  C   UNL     1       0.605   8.447  69.321  0.00  0.00    +0.000 C 
ATOM      5  C   UNL     1       2.821   8.304  70.401  0.00  0.00    +0.000 C 
ATOM      6  C   UNL     1       3.547   8.943  72.677  0.00  0.00    +0.000 C 
ATOM      7  C   UNL     1      -0.129   9.954  71.691  0.00  0.00    +0.000 C 
ATOM      8  C   UNL     1       3.754   8.126  71.551  0.00  0.00    +0.000 C 
ATOM      9  C   UNL     1       2.134  10.440  69.341  0.00  0.00    +0.000 C 
ATOM     10  C   UNL     1      -1.127   9.503  70.673  0.00  0.00    +0.000 C 
ATOM     11  C   UNL     1      -0.818   8.766  69.511  0.00  0.00    +0.000 C 
ATOM     12  C   UNL     1       1.526   9.417  74.056  0.00  0.00    +0.000 C 
ATOM     13  C   UNL     1      -1.828   8.232  68.823  0.00  0.00    +0.000 C 
ENDROOT
BRANCH   6  14
ATOM     14  O   UNL     1       4.559   9.102  73.607  0.00  0.00    +0.000 OA
ATOM     15  H   UNL     1       4.217   9.347  74.486  0.00  0.00    +0.000 HD
ENDBRANCH   6  14
BRANCH   4  16
ATOM     16  C   UNL     1       0.993   7.542  68.276  0.00  0.00    +0.000 C 
ATOM     17  C   UNL     1       1.401   6.584  67.153  0.00  0.00    +0.000 C 
BRANCH  17  20
ATOM     18  O   UNL     1       2.515   5.116  64.105  0.00  0.00    +0.000 OA
ATOM     19  O   UNL     1       1.917   7.360  64.327  0.00  0.00    +0.000 OA
ATOM     20  C   UNL     1       1.753   5.780  66.200  0.00  0.00    +0.000 C 
ATOM     21  C   UNL     1       2.027   4.368  66.295  0.00  0.00    +0.000 C 
ATOM     22  C   UNL     1       2.051   6.239  64.786  0.00  0.00    +0.000 C 
ATOM     23  C   UNL     1       2.482   4.136  64.995  0.00  0.00    +0.000 C 
BRANCH  21  24
ATOM     24  O   UNL     1       2.604   3.852  67.420  0.00  0.00    +0.000 OA
ATOM     25  H   UNL     1       3.551   3.671  67.290  0.00  0.00    +0.000 HD
ENDBRANCH  21  24
ENDBRANCH  17  20
ENDBRANCH   4  16
BRANCH   3  26
ATOM     26  C   UNL     1       2.682  11.259  72.799  0.00  0.00    +0.000 C 
BRANCH  26  27
ATOM     27  O   UNL     1       3.068  12.537  72.857  0.00  0.00    +0.000 OA
ATOM     28  H   UNL     1       2.761  12.951  73.684  0.00  0.00    +0.000 HD
ENDBRANCH  26  27
ENDBRANCH   3  26
TORSDOF 6
ENDMDL
MODEL 6
REMARK VINA RESULT:      -4.1      9.497     13.505
REMARK  Name = 5318517_Andrographolide.pdbqt.pdb
REMARK  6 active torsions:
REMARK  status: ('A' for Active; 'I' for Inactive)
REMARK    1  A    between atoms: C_3  and  C_16
REMARK    2  A    between atoms: C_4  and  C_19
REMARK    3  A    between atoms: C_6  and  O_14
REMARK    4  A    between atoms: C_16  and  O_17
REMARK    5  A    between atoms: C_22  and  C_23
REMARK    6  A    between atoms: C_24  and  O_27
REMARK                            x       y       z     vdW  Elec       q    Type
REMARK                         _______ _______ _______ _____ _____    ______ ____
ROOT
ATOM      1  C   UNL     1      12.557  13.210  57.132  0.00  0.00    +0.000 C 
ATOM      2  C   UNL     1      11.195  13.339  57.880  0.00  0.00    +0.000 C 
ATOM      3  C   UNL     1      11.077  13.226  59.410  0.00  0.00    +0.000 C 
ATOM      4  C   UNL     1      12.513  12.658  55.679  0.00  0.00    +0.000 C 
ATOM      5  C   UNL     1      13.359  12.328  57.976  0.00  0.00    +0.000 C 
ATOM      6  C   UNL     1      12.187  12.421  60.151  0.00  0.00    +0.000 C 
ATOM      7  C   UNL     1      10.083  13.522  57.011  0.00  0.00    +0.000 C 
ATOM      8  C   UNL     1      13.262  11.907  59.403  0.00  0.00    +0.000 C 
ATOM      9  C   UNL     1      13.187  14.635  57.075  0.00  0.00    +0.000 C 
ATOM     10  C   UNL     1      10.166  13.300  55.535  0.00  0.00    +0.000 C 
ATOM     11  C   UNL     1      11.322  12.877  54.846  0.00  0.00    +0.000 C 
ATOM     12  C   UNL     1       9.731  12.482  59.734  0.00  0.00    +0.000 C 
ATOM     13  C   UNL     1      11.187  12.493  53.576  0.00  0.00    +0.000 C 
ENDROOT
BRANCH   6  14
ATOM     14  O   UNL     1      12.230  12.382  61.534  0.00  0.00    +0.000 OA
ATOM     15  H   UNL     1      13.051  12.767  61.889  0.00  0.00    +0.000 HD
ENDBRANCH   6  14
BRANCH   4  16
ATOM     16  C   UNL     1      13.677  12.046  55.102  0.00  0.00    +0.000 C 
ATOM     17  C   UNL     1      14.920  11.404  54.481  0.00  0.00    +0.000 C 
BRANCH  17  20
ATOM     18  O   UNL     1      17.771  10.599  52.504  0.00  0.00    +0.000 OA
ATOM     19  O   UNL     1      16.154  12.161  51.882  0.00  0.00    +0.000 OA
ATOM     20  C   UNL     1      15.978  10.866  53.960  0.00  0.00    +0.000 C 
ATOM     21  C   UNL     1      16.816   9.841  54.531  0.00  0.00    +0.000 C 
ATOM     22  C   UNL     1      16.593  11.326  52.653  0.00  0.00    +0.000 C 
ATOM     23  C   UNL     1      17.831   9.817  53.571  0.00  0.00    +0.000 C 
BRANCH  21  24
ATOM     24  O   UNL     1      17.026   9.794  55.880  0.00  0.00    +0.000 OA
ATOM     25  H   UNL     1      16.367  10.320  56.366  0.00  0.00    +0.000 HD
ENDBRANCH  21  24
ENDBRANCH  17  20
ENDBRANCH   4  16
BRANCH   3  26
ATOM     26  C   UNL     1      11.047  14.609  59.964  0.00  0.00    +0.000 C 
BRANCH  26  27
ATOM     27  O   UNL     1      11.014  15.845  60.471  0.00  0.00    +0.000 OA
ATOM     28  H   UNL     1      11.506  16.463  59.901  0.00  0.00    +0.000 HD
ENDBRANCH  26  27
ENDBRANCH   3  26
TORSDOF 6
ENDMDL
MODEL 7
REMARK VINA RESULT:      -4.0     12.437     15.462
REMARK  Name = 5318517_Andrographolide.pdbqt.pdb
REMARK  6 active torsions:
REMARK  status: ('A' for Active; 'I' for Inactive)
REMARK    1  A    between atoms: C_3  and  C_16
REMARK    2  A    between atoms: C_4  and  C_19
REMARK    3  A    between atoms: C_6  and  O_14
REMARK    4  A    between atoms: C_16  and  O_17
REMARK    5  A    between atoms: C_22  and  C_23
REMARK    6  A    between atoms: C_24  and  O_27
REMARK                            x       y       z     vdW  Elec       q    Type
REMARK                         _______ _______ _______ _____ _____    ______ ____
ROOT
ATOM      1  C   UNL     1      18.932  10.400  61.327  0.00  0.00    +0.000 C 
ATOM      2  C   UNL     1      18.586  10.218  62.836  0.00  0.00    +0.000 C 
ATOM      3  C   UNL     1      19.497   9.446  63.807  0.00  0.00    +0.000 C 
ATOM      4  C   UNL     1      17.736  10.543  60.343  0.00  0.00    +0.000 C 
ATOM      5  C   UNL     1      19.720   9.219  60.985  0.00  0.00    +0.000 C 
ATOM      6  C   UNL     1      20.444   8.373  63.192  0.00  0.00    +0.000 C 
ATOM      7  C   UNL     1      17.336  10.790  63.207  0.00  0.00    +0.000 C 
ATOM      8  C   UNL     1      20.469   8.216  61.794  0.00  0.00    +0.000 C 
ATOM      9  C   UNL     1      19.799  11.690  61.206  0.00  0.00    +0.000 C 
ATOM     10  C   UNL     1      16.323  11.237  62.203  0.00  0.00    +0.000 C 
ATOM     11  C   UNL     1      16.471  11.133  60.805  0.00  0.00    +0.000 C 
ATOM     12  C   UNL     1      18.575   8.667  64.813  0.00  0.00    +0.000 C 
ATOM     13  C   UNL     1      15.397  11.350  60.044  0.00  0.00    +0.000 C 
ENDROOT
BRANCH   6  14
ATOM     14  O   UNL     1      21.388   7.729  63.974  0.00  0.00    +0.000 OA
ATOM     15  H   UNL     1      22.286   7.804  63.605  0.00  0.00    +0.000 HD
ENDBRANCH   6  14
BRANCH   4  16
ATOM     16  C   UNL     1      17.901  10.221  58.953  0.00  0.00    +0.000 C 
ATOM     17  C   UNL     1      18.082   9.888  57.470  0.00  0.00    +0.000 C 
BRANCH  17  20
ATOM     18  O   UNL     1      19.160   8.597  54.330  0.00  0.00    +0.000 OA
ATOM     19  O   UNL     1      20.376   8.391  56.310  0.00  0.00    +0.000 OA
ATOM     20  C   UNL     1      18.244   9.604  56.216  0.00  0.00    +0.000 C 
ATOM     21  C   UNL     1      17.346   9.889  55.125  0.00  0.00    +0.000 C 
ATOM     22  C   UNL     1      19.410   8.794  55.686  0.00  0.00    +0.000 C 
ATOM     23  C   UNL     1      18.012   9.215  54.099  0.00  0.00    +0.000 C 
BRANCH  21  24
ATOM     24  O   UNL     1      15.994   9.859  55.320  0.00  0.00    +0.000 OA
ATOM     25  H   UNL     1      15.767   9.716  56.256  0.00  0.00    +0.000 HD
ENDBRANCH  21  24
ENDBRANCH  17  20
ENDBRANCH   4  16
BRANCH   3  26
ATOM     26  C   UNL     1      20.327  10.446  64.538  0.00  0.00    +0.000 C 
BRANCH  26  27
ATOM     27  O   UNL     1      21.069  11.350  65.184  0.00  0.00    +0.000 OA
ATOM     28  H   UNL     1      21.260  11.052  66.092  0.00  0.00    +0.000 HD
ENDBRANCH  26  27
ENDBRANCH   3  26
TORSDOF 6
ENDMDL
MODEL 8
REMARK VINA RESULT:      -4.0     12.468     13.948
REMARK  Name = 5318517_Andrographolide.pdbqt.pdb
REMARK  6 active torsions:
REMARK  status: ('A' for Active; 'I' for Inactive)
REMARK    1  A    between atoms: C_3  and  C_16
REMARK    2  A    between atoms: C_4  and  C_19
REMARK    3  A    between atoms: C_6  and  O_14
REMARK    4  A    between atoms: C_16  and  O_17
REMARK    5  A    between atoms: C_22  and  C_23
REMARK    6  A    between atoms: C_24  and  O_27
REMARK                            x       y       z     vdW  Elec       q    Type
REMARK                         _______ _______ _______ _____ _____    ______ ____
ROOT
ATOM      1  C   UNL     1      17.341  11.707  57.967  0.00  0.00    +0.000 C 
ATOM      2  C   UNL     1      16.714  11.751  56.541  0.00  0.00    +0.000 C 
ATOM      3  C   UNL     1      15.454  12.573  56.215  0.00  0.00    +0.000 C 
ATOM      4  C   UNL     1      18.105  10.411  58.360  0.00  0.00    +0.000 C 
ATOM      5  C   UNL     1      16.214  11.914  58.872  0.00  0.00    +0.000 C 
ATOM      6  C   UNL     1      14.485  12.885  57.395  0.00  0.00    +0.000 C 
ATOM      7  C   UNL     1      17.389  10.928  55.595  0.00  0.00    +0.000 C 
ATOM      8  C   UNL     1      14.841  12.467  58.690  0.00  0.00    +0.000 C 
ATOM      9  C   UNL     1      18.347  12.895  58.065  0.00  0.00    +0.000 C 
ATOM     10  C   UNL     1      18.392   9.894  55.996  0.00  0.00    +0.000 C 
ATOM     11  C   UNL     1      18.768   9.605  57.324  0.00  0.00    +0.000 C 
ATOM     12  C   UNL     1      14.604  11.756  55.177  0.00  0.00    +0.000 C 
ATOM     13  C   UNL     1      19.489   8.505  57.544  0.00  0.00    +0.000 C 
ENDROOT
BRANCH   6  14
ATOM     14  O   UNL     1      13.401  13.727  57.218  0.00  0.00    +0.000 OA
ATOM     15  H   UNL     1      12.565  13.238  57.124  0.00  0.00    +0.000 HD
ENDBRANCH   6  14
BRANCH   4  16
ATOM     16  C   UNL     1      18.277  10.064  59.743  0.00  0.00    +0.000 C 
ATOM     17  C   UNL     1      18.452   9.685  61.216  0.00  0.00    +0.000 C 
BRANCH  17  20
ATOM     18  O   UNL     1      18.154   9.269  64.741  0.00  0.00    +0.000 OA
ATOM     19  O   UNL     1      16.994  10.881  63.518  0.00  0.00    +0.000 OA
ATOM     20  C   UNL     1      18.603   9.357  62.461  0.00  0.00    +0.000 C 
ATOM     21  C   UNL     1      19.448   8.323  63.002  0.00  0.00    +0.000 C 
ATOM     22  C   UNL     1      17.796   9.966  63.590  0.00  0.00    +0.000 C 
ATOM     23  C   UNL     1      19.053   8.382  64.340  0.00  0.00    +0.000 C 
BRANCH  21  24
ATOM     24  O   UNL     1      19.653   7.165  62.307  0.00  0.00    +0.000 OA
ATOM     25  H   UNL     1      19.135   7.143  61.483  0.00  0.00    +0.000 HD
ENDBRANCH  21  24
ENDBRANCH  17  20
ENDBRANCH   4  16
BRANCH   3  26
ATOM     26  C   UNL     1      15.899  13.863  55.616  0.00  0.00    +0.000 C 
BRANCH  26  27
ATOM     27  O   UNL     1      16.287  15.021  55.073  0.00  0.00    +0.000 OA
ATOM     28  H   UNL     1      15.514  15.557  54.820  0.00  0.00    +0.000 HD
ENDBRANCH  26  27
ENDBRANCH   3  26
TORSDOF 6
ENDMDL
MODEL 9
REMARK VINA RESULT:      -4.0      3.825      7.356
REMARK  Name = 5318517_Andrographolide.pdbqt.pdb
REMARK  6 active torsions:
REMARK  status: ('A' for Active; 'I' for Inactive)
REMARK    1  A    between atoms: C_3  and  C_16
REMARK    2  A    between atoms: C_4  and  C_19
REMARK    3  A    between atoms: C_6  and  O_14
REMARK    4  A    between atoms: C_16  and  O_17
REMARK    5  A    between atoms: C_22  and  C_23
REMARK    6  A    between atoms: C_24  and  O_27
REMARK                            x       y       z     vdW  Elec       q    Type
REMARK                         _______ _______ _______ _____ _____    ______ ____
ROOT
ATOM      1  C   UNL     1       6.614   9.668  59.939  0.00  0.00    +0.000 C 
ATOM      2  C   UNL     1       5.519  10.721  60.288  0.00  0.00    +0.000 C 
ATOM      3  C   UNL     1       5.244  11.182  61.731  0.00  0.00    +0.000 C 
ATOM      4  C   UNL     1       6.369   8.791  58.678  0.00  0.00    +0.000 C 
ATOM      5  C   UNL     1       6.702   8.821  61.124  0.00  0.00    +0.000 C 
ATOM      6  C   UNL     1       5.637  10.202  62.877  0.00  0.00    +0.000 C 
ATOM      7  C   UNL     1       4.779  11.171  59.158  0.00  0.00    +0.000 C 
ATOM      8  C   UNL     1       6.277   8.995  62.543  0.00  0.00    +0.000 C 
ATOM      9  C   UNL     1       7.948  10.445  59.720  0.00  0.00    +0.000 C 
ATOM     10  C   UNL     1       4.829  10.481  57.833  0.00  0.00    +0.000 C 
ATOM     11  C   UNL     1       5.583   9.322  57.555  0.00  0.00    +0.000 C 
ATOM     12  C   UNL     1       3.695  11.403  61.877  0.00  0.00    +0.000 C 
ATOM     13  C   UNL     1       5.347   8.684  56.407  0.00  0.00    +0.000 C 
ENDROOT
BRANCH   6  14
ATOM     14  O   UNL     1       5.547  10.589  64.203  0.00  0.00    +0.000 OA
ATOM     15  H   UNL     1       6.393  10.490  64.674  0.00  0.00    +0.000 HD
ENDBRANCH   6  14
BRANCH   4  16
ATOM     16  C   UNL     1       7.014   7.515  58.548  0.00  0.00    +0.000 C 
ATOM     17  C   UNL     1       7.700   6.151  58.422  0.00  0.00    +0.000 C 
BRANCH  17  20
ATOM     18  O   UNL     1      10.000   3.441  58.207  0.00  0.00    +0.000 OA
ATOM     19  O   UNL     1      10.607   5.683  57.999  0.00  0.00    +0.000 OA
ATOM     20  C   UNL     1       8.272   4.993  58.317  0.00  0.00    +0.000 C 
ATOM     21  C   UNL     1       7.660   3.694  58.435  0.00  0.00    +0.000 C 
ATOM     22  C   UNL     1       9.768   4.813  58.151  0.00  0.00    +0.000 C 
ATOM     23  C   UNL     1       8.804   2.896  58.372  0.00  0.00    +0.000 C 
BRANCH  21  24
ATOM     24  O   UNL     1       6.625   3.497  59.305  0.00  0.00    +0.000 OA
ATOM     25  H   UNL     1       6.413   2.552  59.405  0.00  0.00    +0.000 HD
ENDBRANCH  21  24
ENDBRANCH  17  20
ENDBRANCH   4  16
BRANCH   3  26
ATOM     26  C   UNL     1       5.969  12.468  61.940  0.00  0.00    +0.000 C 
BRANCH  26  27
ATOM     27  O   UNL     1       6.630  13.615  62.122  0.00  0.00    +0.000 OA
ATOM     28  H   UNL     1       7.562  13.520  61.857  0.00  0.00    +0.000 HD
ENDBRANCH  26  27
ENDBRANCH   3  26
TORSDOF 6
ENDMDL
