MODEL 1
REMARK VINA RESULT:      -5.2      0.000      0.000
REMARK  Name = 5326018_Caulerpin.pdbqt.pdb
REMARK  4 active torsions:
REMARK  status: ('A' for Active; 'I' for Inactive)
REMARK    1  A    between atoms: C_11  and  C_26
REMARK    2  A    between atoms: C_12  and  C_30
REMARK    3  A    between atoms: C_26  and  O_27
REMARK    4  A    between atoms: C_30  and  O_31
REMARK                            x       y       z     vdW  Elec       q    Type
REMARK                         _______ _______ _______ _____ _____    ______ ____
ROOT
ATOM      1  N   UNL     1      13.097  -0.305  53.484  0.00  0.00    +0.000 N 
ATOM      2  N   UNL     1      19.115  -0.258  56.028  0.00  0.00    +0.000 N 
ATOM      3  C   UNL     1      14.512  -1.170  54.955  0.00  0.00    +0.000 C 
ATOM      4  C   UNL     1      17.798   0.292  54.332  0.00  0.00    +0.000 C 
ATOM      5  C   UNL     1      14.439  -0.437  53.772  0.00  0.00    +0.000 C 
ATOM      6  C   UNL     1      17.904  -0.551  55.434  0.00  0.00    +0.000 C 
ATOM      7  C   UNL     1      13.203  -1.540  55.348  0.00  0.00    +0.000 A 
ATOM      8  C   UNL     1      18.984   1.057  54.219  0.00  0.00    +0.000 A 
ATOM      9  C   UNL     1      12.335  -0.989  54.407  0.00  0.00    +0.000 A 
ATOM     10  C   UNL     1      19.795   0.690  55.292  0.00  0.00    +0.000 A 
ATOM     11  C   UNL     1      15.452   0.188  52.962  0.00  0.00    +0.000 C 
ATOM     12  C   UNL     1      16.995  -1.509  56.008  0.00  0.00    +0.000 C 
ATOM     13  C   UNL     1      16.633   0.340  53.503  0.00  0.00    +0.000 C 
ATOM     14  C   UNL     1      15.747  -1.446  55.620  0.00  0.00    +0.000 C 
ATOM     15  C   UNL     1      12.665  -2.274  56.422  0.00  0.00    +0.000 A 
ATOM     16  C   UNL     1      19.446   2.039  53.323  0.00  0.00    +0.000 A 
ATOM     17  C   UNL     1      10.946  -1.138  54.480  0.00  0.00    +0.000 A 
ATOM     18  C   UNL     1      21.056   1.254  55.516  0.00  0.00    +0.000 A 
ATOM     19  C   UNL     1      11.281  -2.438  56.506  0.00  0.00    +0.000 A 
ATOM     20  C   UNL     1      20.704   2.608  53.528  0.00  0.00    +0.000 A 
ATOM     21  C   UNL     1      10.440  -1.879  55.550  0.00  0.00    +0.000 A 
ATOM     22  C   UNL     1      21.493   2.219  54.606  0.00  0.00    +0.000 A 
ATOM     23  H   UNL     1      12.691   0.221  52.720  0.00  0.00    +0.000 HD
ATOM     24  H   UNL     1      19.481  -0.652  56.886  0.00  0.00    +0.000 HD
ENDROOT
BRANCH  11  26
ATOM     25  O   UNL     1      14.628  -0.092  50.733  0.00  0.00    +0.000 OA
ATOM     26  C   UNL     1      15.303   0.555  51.524  0.00  0.00    +0.000 C 
BRANCH  26  27
ATOM     27  O   UNL     1      16.007   1.701  51.288  0.00  0.00    +0.000 OA
ATOM     28  C   UNL     1      15.537   2.576  50.297  0.00  0.00    +0.000 C 
ENDBRANCH  26  27
ENDBRANCH  11  26
BRANCH  12  30
ATOM     29  O   UNL     1      17.279  -3.817  56.572  0.00  0.00    +0.000 OA
ATOM     30  C   UNL     1      17.380  -2.641  56.900  0.00  0.00    +0.000 C 
BRANCH  30  31
ATOM     31  O   UNL     1      17.862  -2.133  58.071  0.00  0.00    +0.000 OA
ATOM     32  C   UNL     1      16.970  -1.979  59.144  0.00  0.00    +0.000 C 
ENDBRANCH  30  31
ENDBRANCH  12  30
TORSDOF 4
ENDMDL
MODEL 2
REMARK VINA RESULT:      -5.2      0.442      7.750
REMARK  Name = 5326018_Caulerpin.pdbqt.pdb
REMARK  4 active torsions:
REMARK  status: ('A' for Active; 'I' for Inactive)
REMARK    1  A    between atoms: C_11  and  C_26
REMARK    2  A    between atoms: C_12  and  C_30
REMARK    3  A    between atoms: C_26  and  O_27
REMARK    4  A    between atoms: C_30  and  O_31
REMARK                            x       y       z     vdW  Elec       q    Type
REMARK                         _______ _______ _______ _____ _____    ______ ____
ROOT
ATOM      1  N   UNL     1      19.177  -0.185  55.958  0.00  0.00    +0.000 N 
ATOM      2  N   UNL     1      13.129  -0.299  53.487  0.00  0.00    +0.000 N 
ATOM      3  C   UNL     1      17.833   0.352  54.279  0.00  0.00    +0.000 C 
ATOM      4  C   UNL     1      14.572  -1.150  54.939  0.00  0.00    +0.000 C 
ATOM      5  C   UNL     1      17.963  -0.492  55.380  0.00  0.00    +0.000 C 
ATOM      6  C   UNL     1      14.477  -0.416  53.760  0.00  0.00    +0.000 C 
ATOM      7  C   UNL     1      19.009   1.131  54.154  0.00  0.00    +0.000 A 
ATOM      8  C   UNL     1      13.273  -1.536  55.349  0.00  0.00    +0.000 A 
ATOM      9  C   UNL     1      19.837   0.771  55.216  0.00  0.00    +0.000 A 
ATOM     10  C   UNL     1      12.387  -0.994  54.419  0.00  0.00    +0.000 A 
ATOM     11  C   UNL     1      17.071  -1.461  55.962  0.00  0.00    +0.000 C 
ATOM     12  C   UNL     1      15.472   0.223  52.938  0.00  0.00    +0.000 C 
ATOM     13  C   UNL     1      15.818  -1.412  55.589  0.00  0.00    +0.000 C 
ATOM     14  C   UNL     1      16.658   0.388  53.465  0.00  0.00    +0.000 C 
ATOM     15  C   UNL     1      19.447   2.120  53.254  0.00  0.00    +0.000 A 
ATOM     16  C   UNL     1      12.756  -2.278  56.427  0.00  0.00    +0.000 A 
ATOM     17  C   UNL     1      21.094   1.350  55.426  0.00  0.00    +0.000 A 
ATOM     18  C   UNL     1      11.000  -1.159  54.508  0.00  0.00    +0.000 A 
ATOM     19  C   UNL     1      20.702   2.703  53.445  0.00  0.00    +0.000 A 
ATOM     20  C   UNL     1      11.375  -2.458  56.528  0.00  0.00    +0.000 A 
ATOM     21  C   UNL     1      21.508   2.322  54.512  0.00  0.00    +0.000 A 
ATOM     22  C   UNL     1      10.516  -1.908  55.582  0.00  0.00    +0.000 A 
ATOM     23  H   UNL     1      19.556  -0.576  56.811  0.00  0.00    +0.000 HD
ATOM     24  H   UNL     1      12.707   0.223  52.729  0.00  0.00    +0.000 HD
ENDROOT
BRANCH  11  26
ATOM     25  O   UNL     1      17.303  -3.767  56.558  0.00  0.00    +0.000 OA
ATOM     26  C   UNL     1      17.481  -2.589  56.847  0.00  0.00    +0.000 C 
BRANCH  26  27
ATOM     27  O   UNL     1      18.078  -2.079  57.963  0.00  0.00    +0.000 OA
ATOM     28  C   UNL     1      17.261  -1.689  59.034  0.00  0.00    +0.000 C 
ENDBRANCH  26  27
ENDBRANCH  11  26
BRANCH  12  30
ATOM     29  O   UNL     1      14.274   0.371  50.871  0.00  0.00    +0.000 OA
ATOM     30  C   UNL     1      15.302   0.591  51.502  0.00  0.00    +0.000 C 
BRANCH  30  31
ATOM     31  O   UNL     1      16.441   1.204  51.068  0.00  0.00    +0.000 OA
ATOM     32  C   UNL     1      16.849   0.985  49.743  0.00  0.00    +0.000 C 
ENDBRANCH  30  31
ENDBRANCH  12  30
TORSDOF 4
ENDMDL
MODEL 3
REMARK VINA RESULT:      -5.1      9.669     11.718
REMARK  Name = 5326018_Caulerpin.pdbqt.pdb
REMARK  4 active torsions:
REMARK  status: ('A' for Active; 'I' for Inactive)
REMARK    1  A    between atoms: C_11  and  C_26
REMARK    2  A    between atoms: C_12  and  C_30
REMARK    3  A    between atoms: C_26  and  O_27
REMARK    4  A    between atoms: C_30  and  O_31
REMARK                            x       y       z     vdW  Elec       q    Type
REMARK                         _______ _______ _______ _____ _____    ______ ____
ROOT
ATOM      1  N   UNL     1      19.792   8.935  59.591  0.00  0.00    +0.000 N 
ATOM      2  N   UNL     1      17.561   9.180  53.455  0.00  0.00    +0.000 N 
ATOM      3  C   UNL     1      18.304   9.768  58.175  0.00  0.00    +0.000 C 
ATOM      4  C   UNL     1      19.242   8.692  54.815  0.00  0.00    +0.000 C 
ATOM      5  C   UNL     1      19.556   9.161  58.251  0.00  0.00    +0.000 C 
ATOM      6  C   UNL     1      18.059   9.420  54.719  0.00  0.00    +0.000 C 
ATOM      7  C   UNL     1      17.810   9.971  59.485  0.00  0.00    +0.000 A 
ATOM      8  C   UNL     1      19.495   8.057  53.575  0.00  0.00    +0.000 A 
ATOM      9  C   UNL     1      18.764   9.444  60.355  0.00  0.00    +0.000 A 
ATOM     10  C   UNL     1      18.429   8.383  52.738  0.00  0.00    +0.000 A 
ATOM     11  C   UNL     1      20.477   8.722  57.236  0.00  0.00    +0.000 C 
ATOM     12  C   UNL     1      17.341  10.223  55.674  0.00  0.00    +0.000 C 
ATOM     13  C   UNL     1      20.014   8.624  56.017  0.00  0.00    +0.000 C 
ATOM     14  C   UNL     1      17.673  10.086  56.932  0.00  0.00    +0.000 C 
ATOM     15  C   UNL     1      16.637  10.534  60.023  0.00  0.00    +0.000 A 
ATOM     16  C   UNL     1      20.516   7.223  53.081  0.00  0.00    +0.000 A 
ATOM     17  C   UNL     1      18.609   9.454  61.746  0.00  0.00    +0.000 A 
ATOM     18  C   UNL     1      18.329   7.919  51.422  0.00  0.00    +0.000 A 
ATOM     19  C   UNL     1      16.469  10.558  61.409  0.00  0.00    +0.000 A 
ATOM     20  C   UNL     1      20.435   6.756  51.769  0.00  0.00    +0.000 A 
ATOM     21  C   UNL     1      17.440  10.028  62.252  0.00  0.00    +0.000 A 
ATOM     22  C   UNL     1      19.360   7.100  50.956  0.00  0.00    +0.000 A 
ATOM     23  H   UNL     1      20.589   8.458  59.993  0.00  0.00    +0.000 HD
ATOM     24  H   UNL     1      16.683   9.513  53.076  0.00  0.00    +0.000 HD
ENDROOT
BRANCH  11  26
ATOM     25  O   UNL     1      22.559   8.931  58.398  0.00  0.00    +0.000 OA
ATOM     26  C   UNL     1      21.939   8.496  57.435  0.00  0.00    +0.000 C 
BRANCH  26  27
ATOM     27  O   UNL     1      22.410   7.734  56.405  0.00  0.00    +0.000 OA
ATOM     28  C   UNL     1      23.071   6.536  56.715  0.00  0.00    +0.000 C 
ENDBRANCH  26  27
ENDBRANCH  11  26
BRANCH  12  30
ATOM     29  O   UNL     1      16.461  12.449  55.706  0.00  0.00    +0.000 OA
ATOM     30  C   UNL     1      16.348  11.286  55.338  0.00  0.00    +0.000 C 
BRANCH  30  31
ATOM     31  O   UNL     1      15.365  10.740  54.566  0.00  0.00    +0.000 OA
ATOM     32  C   UNL     1      14.075  11.287  54.650  0.00  0.00    +0.000 C 
ENDBRANCH  30  31
ENDBRANCH  12  30
TORSDOF 4
ENDMDL
MODEL 4
REMARK VINA RESULT:      -5.1      9.647     11.353
REMARK  Name = 5326018_Caulerpin.pdbqt.pdb
REMARK  4 active torsions:
REMARK  status: ('A' for Active; 'I' for Inactive)
REMARK    1  A    between atoms: C_11  and  C_26
REMARK    2  A    between atoms: C_12  and  C_30
REMARK    3  A    between atoms: C_26  and  O_27
REMARK    4  A    between atoms: C_30  and  O_31
REMARK                            x       y       z     vdW  Elec       q    Type
REMARK                         _______ _______ _______ _____ _____    ______ ____
ROOT
ATOM      1  N   UNL     1      17.567   9.349  53.450  0.00  0.00    +0.000 N 
ATOM      2  N   UNL     1      19.655   8.898  59.625  0.00  0.00    +0.000 N 
ATOM      3  C   UNL     1      19.190   8.749  54.836  0.00  0.00    +0.000 C 
ATOM      4  C   UNL     1      18.245   9.833  58.191  0.00  0.00    +0.000 C 
ATOM      5  C   UNL     1      18.051   9.545  54.727  0.00  0.00    +0.000 C 
ATOM      6  C   UNL     1      19.458   9.155  58.284  0.00  0.00    +0.000 C 
ATOM      7  C   UNL     1      19.433   8.118  53.592  0.00  0.00    +0.000 A 
ATOM      8  C   UNL     1      17.735  10.046  59.495  0.00  0.00    +0.000 A 
ATOM      9  C   UNL     1      18.403   8.514  52.739  0.00  0.00    +0.000 A 
ATOM     10  C   UNL     1      18.640   9.455  60.376  0.00  0.00    +0.000 A 
ATOM     11  C   UNL     1      17.360  10.374  55.679  0.00  0.00    +0.000 C 
ATOM     12  C   UNL     1      20.375   8.678  57.281  0.00  0.00    +0.000 C 
ATOM     13  C   UNL     1      17.658  10.202  56.941  0.00  0.00    +0.000 C 
ATOM     14  C   UNL     1      19.932   8.622  56.052  0.00  0.00    +0.000 C 
ATOM     15  C   UNL     1      20.414   7.234  53.108  0.00  0.00    +0.000 A 
ATOM     16  C   UNL     1      16.585  10.667  60.017  0.00  0.00    +0.000 A 
ATOM     17  C   UNL     1      18.305   8.073  51.415  0.00  0.00    +0.000 A 
ATOM     18  C   UNL     1      18.457   9.455  61.763  0.00  0.00    +0.000 A 
ATOM     19  C   UNL     1      20.335   6.789  51.787  0.00  0.00    +0.000 A 
ATOM     20  C   UNL     1      16.390  10.682  61.399  0.00  0.00    +0.000 A 
ATOM     21  C   UNL     1      19.298   7.204  50.958  0.00  0.00    +0.000 A 
ATOM     22  C   UNL     1      17.312  10.087  62.254  0.00  0.00    +0.000 A 
ATOM     23  H   UNL     1      16.717   9.735  53.059  0.00  0.00    +0.000 HD
ATOM     24  H   UNL     1      20.415   8.372  60.037  0.00  0.00    +0.000 HD
ENDROOT
BRANCH  11  26
ATOM     25  O   UNL     1      16.698  12.670  55.560  0.00  0.00    +0.000 OA
ATOM     26  C   UNL     1      16.436  11.494  55.339  0.00  0.00    +0.000 C 
BRANCH  26  27
ATOM     27  O   UNL     1      15.320  10.979  54.745  0.00  0.00    +0.000 OA
ATOM     28  C   UNL     1      14.631  11.777  53.820  0.00  0.00    +0.000 C 
ENDBRANCH  26  27
ENDBRANCH  11  26
BRANCH  12  30
ATOM     29  O   UNL     1      22.728   9.001  56.985  0.00  0.00    +0.000 OA
ATOM     30  C   UNL     1      21.817   8.368  57.506  0.00  0.00    +0.000 C 
BRANCH  30  31
ATOM     31  O   UNL     1      21.911   7.319  58.373  0.00  0.00    +0.000 OA
ATOM     32  C   UNL     1      22.772   6.260  58.043  0.00  0.00    +0.000 C 
ENDBRANCH  30  31
ENDBRANCH  12  30
TORSDOF 4
ENDMDL
MODEL 5
REMARK VINA RESULT:      -5.0     10.242     12.333
REMARK  Name = 5326018_Caulerpin.pdbqt.pdb
REMARK  4 active torsions:
REMARK  status: ('A' for Active; 'I' for Inactive)
REMARK    1  A    between atoms: C_11  and  C_26
REMARK    2  A    between atoms: C_12  and  C_30
REMARK    3  A    between atoms: C_26  and  O_27
REMARK    4  A    between atoms: C_30  and  O_31
REMARK                            x       y       z     vdW  Elec       q    Type
REMARK                         _______ _______ _______ _____ _____    ______ ____
ROOT
ATOM      1  N   UNL     1      17.002  10.611  56.212  0.00  0.00    +0.000 N 
ATOM      2  N   UNL     1      20.236   8.404  61.442  0.00  0.00    +0.000 N 
ATOM      3  C   UNL     1      18.791   9.567  57.000  0.00  0.00    +0.000 C 
ATOM      4  C   UNL     1      18.684   9.770  60.644  0.00  0.00    +0.000 C 
ATOM      5  C   UNL     1      17.755  10.429  57.353  0.00  0.00    +0.000 C 
ATOM      6  C   UNL     1      19.802   9.021  60.287  0.00  0.00    +0.000 C 
ATOM      7  C   UNL     1      18.700   9.278  55.618  0.00  0.00    +0.000 A 
ATOM      8  C   UNL     1      18.478   9.657  62.040  0.00  0.00    +0.000 A 
ATOM      9  C   UNL     1      17.572   9.948  55.146  0.00  0.00    +0.000 A 
ATOM     10  C   UNL     1      19.468   8.800  62.518  0.00  0.00    +0.000 A 
ATOM     11  C   UNL     1      17.374  11.014  58.612  0.00  0.00    +0.000 C 
ATOM     12  C   UNL     1      20.433   8.775  59.017  0.00  0.00    +0.000 C 
ATOM     13  C   UNL     1      17.901  10.494  59.690  0.00  0.00    +0.000 C 
ATOM     14  C   UNL     1      19.745   9.076  57.946  0.00  0.00    +0.000 C 
ATOM     15  C   UNL     1      19.452   8.498  54.720  0.00  0.00    +0.000 A 
ATOM     16  C   UNL     1      17.540  10.184  62.947  0.00  0.00    +0.000 A 
ATOM     17  C   UNL     1      17.155   9.883  53.812  0.00  0.00    +0.000 A 
ATOM     18  C   UNL     1      19.573   8.441  63.866  0.00  0.00    +0.000 A 
ATOM     19  C   UNL     1      19.053   8.427  53.383  0.00  0.00    +0.000 A 
ATOM     20  C   UNL     1      17.634   9.841  64.297  0.00  0.00    +0.000 A 
ATOM     21  C   UNL     1      17.925   9.109  52.941  0.00  0.00    +0.000 A 
ATOM     22  C   UNL     1      18.635   8.986  64.745  0.00  0.00    +0.000 A 
ATOM     23  H   UNL     1      16.141  11.138  56.133  0.00  0.00    +0.000 HD
ATOM     24  H   UNL     1      20.998   7.742  61.527  0.00  0.00    +0.000 HD
ENDROOT
BRANCH  11  26
ATOM     25  O   UNL     1      16.487  13.133  57.944  0.00  0.00    +0.000 OA
ATOM     26  C   UNL     1      16.538  12.238  58.779  0.00  0.00    +0.000 C 
BRANCH  26  27
ATOM     27  O   UNL     1      15.864  12.152  59.962  0.00  0.00    +0.000 OA
ATOM     28  C   UNL     1      14.478  11.938  59.923  0.00  0.00    +0.000 C 
ENDBRANCH  26  27
ENDBRANCH  11  26
BRANCH  12  30
ATOM     29  O   UNL     1      22.773   8.729  59.516  0.00  0.00    +0.000 OA
ATOM     30  C   UNL     1      21.844   8.331  58.824  0.00  0.00    +0.000 C 
BRANCH  30  31
ATOM     31  O   UNL     1      21.885   7.428  57.801  0.00  0.00    +0.000 OA
ATOM     32  C   UNL     1      22.945   7.511  56.885  0.00  0.00    +0.000 C 
ENDBRANCH  30  31
ENDBRANCH  12  30
TORSDOF 4
ENDMDL
MODEL 6
REMARK VINA RESULT:      -5.0      2.628      6.827
REMARK  Name = 5326018_Caulerpin.pdbqt.pdb
REMARK  4 active torsions:
REMARK  status: ('A' for Active; 'I' for Inactive)
REMARK    1  A    between atoms: C_11  and  C_26
REMARK    2  A    between atoms: C_12  and  C_30
REMARK    3  A    between atoms: C_26  and  O_27
REMARK    4  A    between atoms: C_30  and  O_31
REMARK                            x       y       z     vdW  Elec       q    Type
REMARK                         _______ _______ _______ _____ _____    ______ ____
ROOT
ATOM      1  N   UNL     1      18.656   2.343  52.524  0.00  0.00    +0.000 N 
ATOM      2  N   UNL     1      12.892  -0.437  51.205  0.00  0.00    +0.000 N 
ATOM      3  C   UNL     1      16.980   1.083  53.243  0.00  0.00    +0.000 C 
ATOM      4  C   UNL     1      14.381   1.119  50.679  0.00  0.00    +0.000 C 
ATOM      5  C   UNL     1      17.334   2.030  52.284  0.00  0.00    +0.000 C 
ATOM      6  C   UNL     1      13.962   0.277  51.705  0.00  0.00    +0.000 C 
ATOM      7  C   UNL     1      18.078   0.872  54.110  0.00  0.00    +0.000 A 
ATOM      8  C   UNL     1      13.517   0.961  49.569  0.00  0.00    +0.000 A 
ATOM      9  C   UNL     1      19.115   1.677  53.640  0.00  0.00    +0.000 A 
ATOM     10  C   UNL     1      12.589  -0.017  49.926  0.00  0.00    +0.000 A 
ATOM     11  C   UNL     1      16.615   2.589  51.170  0.00  0.00    +0.000 C 
ATOM     12  C   UNL     1      14.484   0.028  53.024  0.00  0.00    +0.000 C 
ATOM     13  C   UNL     1      15.528   1.965  50.793  0.00  0.00    +0.000 C 
ATOM     14  C   UNL     1      15.698   0.451  53.269  0.00  0.00    +0.000 C 
ATOM     15  C   UNL     1      18.304   0.063  55.239  0.00  0.00    +0.000 A 
ATOM     16  C   UNL     1      13.437   1.537  48.288  0.00  0.00    +0.000 A 
ATOM     17  C   UNL     1      20.375   1.720  54.248  0.00  0.00    +0.000 A 
ATOM     18  C   UNL     1      11.575  -0.450  49.065  0.00  0.00    +0.000 A 
ATOM     19  C   UNL     1      19.554   0.098  55.861  0.00  0.00    +0.000 A 
ATOM     20  C   UNL     1      12.428   1.121  47.418  0.00  0.00    +0.000 A 
ATOM     21  C   UNL     1      20.569   0.915  55.372  0.00  0.00    +0.000 A 
ATOM     22  C   UNL     1      11.514   0.146  47.803  0.00  0.00    +0.000 A 
ATOM     23  H   UNL     1      19.241   2.959  51.974  0.00  0.00    +0.000 HD
ATOM     24  H   UNL     1      12.384  -1.177  51.673  0.00  0.00    +0.000 HD
ENDROOT
BRANCH  11  26
ATOM     25  O   UNL     1      17.548   4.788  51.046  0.00  0.00    +0.000 OA
ATOM     26  C   UNL     1      16.931   3.883  50.499  0.00  0.00    +0.000 C 
BRANCH  26  27
ATOM     27  O   UNL     1      16.447   3.847  49.223  0.00  0.00    +0.000 OA
ATOM     28  C   UNL     1      15.831   5.000  48.714  0.00  0.00    +0.000 C 
ENDBRANCH  26  27
ENDBRANCH  11  26
BRANCH  12  30
ATOM     29  O   UNL     1      12.491  -0.615  54.183  0.00  0.00    +0.000 OA
ATOM     30  C   UNL     1      13.715  -0.549  54.165  0.00  0.00    +0.000 C 
BRANCH  30  31
ATOM     31  O   UNL     1      14.595  -0.985  55.112  0.00  0.00    +0.000 OA
ATOM     32  C   UNL     1      14.579  -2.346  55.456  0.00  0.00    +0.000 C 
ENDBRANCH  30  31
ENDBRANCH  12  30
TORSDOF 4
ENDMDL
MODEL 7
REMARK VINA RESULT:      -4.9     17.060     20.896
REMARK  Name = 5326018_Caulerpin.pdbqt.pdb
REMARK  4 active torsions:
REMARK  status: ('A' for Active; 'I' for Inactive)
REMARK    1  A    between atoms: C_11  and  C_26
REMARK    2  A    between atoms: C_12  and  C_30
REMARK    3  A    between atoms: C_26  and  O_27
REMARK    4  A    between atoms: C_30  and  O_31
REMARK                            x       y       z     vdW  Elec       q    Type
REMARK                         _______ _______ _______ _____ _____    ______ ____
ROOT
ATOM      1  N   UNL     1      14.378   5.309  72.128  0.00  0.00    +0.000 N 
ATOM      2  N   UNL     1      10.566   1.068  75.319  0.00  0.00    +0.000 N 
ATOM      3  C   UNL     1      13.812   3.193  72.468  0.00  0.00    +0.000 C 
ATOM      4  C   UNL     1      11.430   3.108  75.234  0.00  0.00    +0.000 C 
ATOM      5  C   UNL     1      13.756   4.468  73.028  0.00  0.00    +0.000 C 
ATOM      6  C   UNL     1      11.591   1.807  74.764  0.00  0.00    +0.000 C 
ATOM      7  C   UNL     1      14.532   3.255  71.251  0.00  0.00    +0.000 A 
ATOM      8  C   UNL     1      10.337   3.143  76.133  0.00  0.00    +0.000 A 
ATOM      9  C   UNL     1      14.879   4.592  71.063  0.00  0.00    +0.000 A 
ATOM     10  C   UNL     1       9.816   1.850  76.172  0.00  0.00    +0.000 A 
ATOM     11  C   UNL     1      13.141   4.967  74.229  0.00  0.00    +0.000 C 
ATOM     12  C   UNL     1      12.520   1.227  73.830  0.00  0.00    +0.000 C 
ATOM     13  C   UNL     1      12.263   4.191  74.812  0.00  0.00    +0.000 C 
ATOM     14  C   UNL     1      13.195   2.054  73.075  0.00  0.00    +0.000 C 
ATOM     15  C   UNL     1      14.909   2.311  70.278  0.00  0.00    +0.000 A 
ATOM     16  C   UNL     1       9.725   4.146  76.906  0.00  0.00    +0.000 A 
ATOM     17  C   UNL     1      15.595   5.039  69.947  0.00  0.00    +0.000 A 
ATOM     18  C   UNL     1       8.708   1.504  76.953  0.00  0.00    +0.000 A 
ATOM     19  C   UNL     1      15.629   2.739  69.160  0.00  0.00    +0.000 A 
ATOM     20  C   UNL     1       8.622   3.817  77.696  0.00  0.00    +0.000 A 
ATOM     21  C   UNL     1      15.964   4.079  69.001  0.00  0.00    +0.000 A 
ATOM     22  C   UNL     1       8.126   2.517  77.718  0.00  0.00    +0.000 A 
ATOM     23  H   UNL     1      14.463   6.315  72.200  0.00  0.00    +0.000 HD
ATOM     24  H   UNL     1      10.356   0.094  75.141  0.00  0.00    +0.000 HD
ENDROOT
BRANCH  11  26
ATOM     25  O   UNL     1      14.572   6.815  74.738  0.00  0.00    +0.000 OA
ATOM     26  C   UNL     1      13.514   6.229  74.931  0.00  0.00    +0.000 C 
BRANCH  26  27
ATOM     27  O   UNL     1      12.493   6.589  75.762  0.00  0.00    +0.000 OA
ATOM     28  C   UNL     1      11.920   7.859  75.598  0.00  0.00    +0.000 C 
ENDBRANCH  26  27
ENDBRANCH  11  26
BRANCH  12  30
ATOM     29  O   UNL     1      14.014  -0.643  73.873  0.00  0.00    +0.000 OA
ATOM     30  C   UNL     1      12.870  -0.222  73.745  0.00  0.00    +0.000 C 
BRANCH  30  31
ATOM     31  O   UNL     1      11.728  -0.938  73.535  0.00  0.00    +0.000 OA
ATOM     32  C   UNL     1      11.200  -0.979  72.235  0.00  0.00    +0.000 C 
ENDBRANCH  30  31
ENDBRANCH  12  30
TORSDOF 4
ENDMDL
MODEL 8
REMARK VINA RESULT:      -4.9     17.351     20.670
REMARK  Name = 5326018_Caulerpin.pdbqt.pdb
REMARK  4 active torsions:
REMARK  status: ('A' for Active; 'I' for Inactive)
REMARK    1  A    between atoms: C_11  and  C_26
REMARK    2  A    between atoms: C_12  and  C_30
REMARK    3  A    between atoms: C_26  and  O_27
REMARK    4  A    between atoms: C_30  and  O_31
REMARK                            x       y       z     vdW  Elec       q    Type
REMARK                         _______ _______ _______ _____ _____    ______ ____
ROOT
ATOM      1  N   UNL     1      10.003   1.007  75.742  0.00  0.00    +0.000 N 
ATOM      2  N   UNL     1      14.153   4.714  72.318  0.00  0.00    +0.000 N 
ATOM      3  C   UNL     1      11.021   2.964  75.528  0.00  0.00    +0.000 C 
ATOM      4  C   UNL     1      13.425   2.676  72.796  0.00  0.00    +0.000 C 
ATOM      5  C   UNL     1      11.086   1.624  75.151  0.00  0.00    +0.000 C 
ATOM      6  C   UNL     1      13.462   3.986  73.264  0.00  0.00    +0.000 C 
ATOM      7  C   UNL     1       9.926   3.144  76.407  0.00  0.00    +0.000 A 
ATOM      8  C   UNL     1      14.158   2.597  71.587  0.00  0.00    +0.000 A 
ATOM      9  C   UNL     1       9.308   1.900  76.529  0.00  0.00    +0.000 A 
ATOM     10  C   UNL     1      14.608   3.888  71.312  0.00  0.00    +0.000 A 
ATOM     11  C   UNL     1      11.977   0.912  74.273  0.00  0.00    +0.000 C 
ATOM     12  C   UNL     1      12.876   4.614  74.420  0.00  0.00    +0.000 C 
ATOM     13  C   UNL     1      12.719   1.632  73.471  0.00  0.00    +0.000 C 
ATOM     14  C   UNL     1      11.937   3.950  75.043  0.00  0.00    +0.000 C 
ATOM     15  C   UNL     1       9.386   4.242  77.100  0.00  0.00    +0.000 A 
ATOM     16  C   UNL     1      14.471   1.562  70.686  0.00  0.00    +0.000 A 
ATOM     17  C   UNL     1       8.170   1.694  77.317  0.00  0.00    +0.000 A 
ATOM     18  C   UNL     1      15.364   4.201  70.177  0.00  0.00    +0.000 A 
ATOM     19  C   UNL     1       8.254   4.053  77.896  0.00  0.00    +0.000 A 
ATOM     20  C   UNL     1      15.230   1.855  69.552  0.00  0.00    +0.000 A 
ATOM     21  C   UNL     1       7.660   2.800  78.001  0.00  0.00    +0.000 A 
ATOM     22  C   UNL     1      15.668   3.152  69.306  0.00  0.00    +0.000 A 
ATOM     23  H   UNL     1       9.722   0.041  75.628  0.00  0.00    +0.000 HD
ATOM     24  H   UNL     1      14.315   5.714  72.321  0.00  0.00    +0.000 HD
ENDROOT
BRANCH  11  26
ATOM     25  O   UNL     1      13.318  -1.057  74.487  0.00  0.00    +0.000 OA
ATOM     26  C   UNL     1      12.216  -0.560  74.293  0.00  0.00    +0.000 C 
BRANCH  26  27
ATOM     27  O   UNL     1      11.028  -1.201  74.089  0.00  0.00    +0.000 OA
ATOM     28  C   UNL     1      10.578  -1.361  72.770  0.00  0.00    +0.000 C 
ENDBRANCH  26  27
ENDBRANCH  11  26
BRANCH  12  30
ATOM     29  O   UNL     1      14.467   6.342  74.880  0.00  0.00    +0.000 OA
ATOM     30  C   UNL     1      13.339   5.891  75.039  0.00  0.00    +0.000 C 
BRANCH  30  31
ATOM     31  O   UNL     1      12.309   6.432  75.752  0.00  0.00    +0.000 OA
ATOM     32  C   UNL     1      12.012   7.791  75.561  0.00  0.00    +0.000 C 
ENDBRANCH  30  31
ENDBRANCH  12  30
TORSDOF 4
ENDMDL
MODEL 9
REMARK VINA RESULT:      -4.8     12.896     15.946
REMARK  Name = 5326018_Caulerpin.pdbqt.pdb
REMARK  4 active torsions:
REMARK  status: ('A' for Active; 'I' for Inactive)
REMARK    1  A    between atoms: C_11  and  C_26
REMARK    2  A    between atoms: C_12  and  C_30
REMARK    3  A    between atoms: C_26  and  O_27
REMARK    4  A    between atoms: C_30  and  O_31
REMARK                            x       y       z     vdW  Elec       q    Type
REMARK                         _______ _______ _______ _____ _____    ______ ____
ROOT
ATOM      1  N   UNL     1       2.531   4.537  64.466  0.00  0.00    +0.000 N 
ATOM      2  N   UNL     1       6.338   6.556  59.555  0.00  0.00    +0.000 N 
ATOM      3  C   UNL     1       3.646   6.209  63.531  0.00  0.00    +0.000 C 
ATOM      4  C   UNL     1       5.545   4.849  60.725  0.00  0.00    +0.000 C 
ATOM      5  C   UNL     1       3.547   4.820  63.577  0.00  0.00    +0.000 C 
ATOM      6  C   UNL     1       5.757   6.224  60.761  0.00  0.00    +0.000 C 
ATOM      7  C   UNL     1       2.727   6.768  64.450  0.00  0.00    +0.000 A 
ATOM      8  C   UNL     1       6.062   4.333  59.512  0.00  0.00    +0.000 A 
ATOM      9  C   UNL     1       2.043   5.698  65.027  0.00  0.00    +0.000 A 
ATOM     10  C   UNL     1       6.558   5.424  58.798  0.00  0.00    +0.000 A 
ATOM     11  C   UNL     1       4.226   3.780  62.849  0.00  0.00    +0.000 C 
ATOM     12  C   UNL     1       5.417   7.227  61.737  0.00  0.00    +0.000 C 
ATOM     13  C   UNL     1       4.880   4.140  61.775  0.00  0.00    +0.000 C 
ATOM     14  C   UNL     1       4.543   6.892  62.651  0.00  0.00    +0.000 C 
ATOM     15  C   UNL     1       2.392   8.078  64.839  0.00  0.00    +0.000 A 
ATOM     16  C   UNL     1       6.145   3.051  58.938  0.00  0.00    +0.000 A 
ATOM     17  C   UNL     1       1.037   5.870  65.984  0.00  0.00    +0.000 A 
ATOM     18  C   UNL     1       7.141   5.299  57.533  0.00  0.00    +0.000 A 
ATOM     19  C   UNL     1       1.394   8.267  65.798  0.00  0.00    +0.000 A 
ATOM     20  C   UNL     1       6.729   2.908  57.678  0.00  0.00    +0.000 A 
ATOM     21  C   UNL     1       0.731   7.180  66.359  0.00  0.00    +0.000 A 
ATOM     22  C   UNL     1       7.219   4.014  56.991  0.00  0.00    +0.000 A 
ATOM     23  H   UNL     1       2.162   3.622  64.692  0.00  0.00    +0.000 HD
ATOM     24  H   UNL     1       6.573   7.486  59.230  0.00  0.00    +0.000 HD
ENDROOT
BRANCH  11  26
ATOM     25  O   UNL     1       4.156   1.409  62.539  0.00  0.00    +0.000 OA
ATOM     26  C   UNL     1       4.352   2.360  63.286  0.00  0.00    +0.000 C 
BRANCH  26  27
ATOM     27  O   UNL     1       4.731   2.335  64.597  0.00  0.00    +0.000 OA
ATOM     28  C   UNL     1       4.113   1.409  65.449  0.00  0.00    +0.000 C 
ENDBRANCH  26  27
ENDBRANCH  11  26
BRANCH  12  30
ATOM     29  O   UNL     1       6.479   9.206  60.909  0.00  0.00    +0.000 OA
ATOM     30  C   UNL     1       6.070   8.562  61.868  0.00  0.00    +0.000 C 
BRANCH  30  31
ATOM     31  O   UNL     1       6.096   8.910  63.188  0.00  0.00    +0.000 OA
ATOM     32  C   UNL     1       6.008  10.272  63.516  0.00  0.00    +0.000 C 
ENDBRANCH  30  31
ENDBRANCH  12  30
TORSDOF 4
ENDMDL
