MODEL 1
REMARK VINA RESULT:      -2.2      0.000      0.000
REMARK  Name = 5350_Sulforaphane.pdbqt.pdb
REMARK  3 active torsions:
REMARK  status: ('A' for Active; 'I' for Inactive)
REMARK    1  A    between atoms: C_1  and  C_2
REMARK    2  A    between atoms: C_3  and  N_5
REMARK    3  A    between atoms: C_7  and  S_8
REMARK                            x       y       z     vdW  Elec       q    Type
REMARK                         _______ _______ _______ _____ _____    ______ ____
ROOT
ATOM      1  C   UNL     1       3.580   8.641  72.733  0.00  0.00    +0.000 C 
ATOM      2  C   UNL     1       3.692   9.828  71.770  0.00  0.00    +0.000 C 
ENDROOT
BRANCH   2   3
ATOM      3  S   UNL     1       3.822  11.189  70.658  0.00  0.00    +0.000 S 
ATOM      4  O   UNL     1       5.308  11.270  70.846  0.00  0.00    +0.000 OA
ATOM      5  C   UNL     1       3.531  12.381  71.921  0.00  0.00    +0.000 C 
ENDBRANCH   2   3
BRANCH   1   6
ATOM      6  C   UNL     1       3.471   7.457  73.698  0.00  0.00    +0.000 C 
ATOM      7  C   UNL     1       3.362   6.271  74.663  0.00  0.00    +0.000 C 
BRANCH   7   9
ATOM      8  S   UNL     1       5.693   4.583  76.641  0.00  0.00    +0.000 S 
ATOM      9  N   UNL     1       3.254   5.237  75.509  0.00  0.00    +0.000 NA
ATOM     10  C   UNL     1       4.298   4.976  75.978  0.00  0.00    +0.000 C 
ENDBRANCH   7   9
ENDBRANCH   1   6
TORSDOF 3
ENDMDL
MODEL 2
REMARK VINA RESULT:      -2.2     12.176     13.392
REMARK  Name = 5350_Sulforaphane.pdbqt.pdb
REMARK  3 active torsions:
REMARK  status: ('A' for Active; 'I' for Inactive)
REMARK    1  A    between atoms: C_1  and  C_2
REMARK    2  A    between atoms: C_3  and  N_5
REMARK    3  A    between atoms: C_7  and  S_8
REMARK                            x       y       z     vdW  Elec       q    Type
REMARK                         _______ _______ _______ _____ _____    ______ ____
ROOT
ATOM      1  C   UNL     1      15.030   7.354  68.644  0.00  0.00    +0.000 C 
ATOM      2  C   UNL     1      15.691   5.971  68.634  0.00  0.00    +0.000 C 
ENDROOT
BRANCH   2   3
ATOM      3  S   UNL     1      16.453   4.382  68.618  0.00  0.00    +0.000 S 
ATOM      4  O   UNL     1      15.852   4.048  67.285  0.00  0.00    +0.000 OA
ATOM      5  C   UNL     1      15.121   3.621  69.482  0.00  0.00    +0.000 C 
ENDBRANCH   2   3
BRANCH   1   6
ATOM      6  C   UNL     1      14.366   8.734  68.655  0.00  0.00    +0.000 C 
ATOM      7  C   UNL     1      13.702  10.115  68.665  0.00  0.00    +0.000 C 
BRANCH   7   9
ATOM      8  S   UNL     1      14.698  13.207  69.947  0.00  0.00    +0.000 S 
ATOM      9  N   UNL     1      13.127  11.326  68.662  0.00  0.00    +0.000 NA
ATOM     10  C   UNL     1      13.808  12.108  69.211  0.00  0.00    +0.000 C 
ENDBRANCH   7   9
ENDBRANCH   1   6
TORSDOF 3
ENDMDL
MODEL 3
REMARK VINA RESULT:      -2.2     13.777     14.333
REMARK  Name = 5350_Sulforaphane.pdbqt.pdb
REMARK  3 active torsions:
REMARK  status: ('A' for Active; 'I' for Inactive)
REMARK    1  A    between atoms: C_1  and  C_2
REMARK    2  A    between atoms: C_3  and  N_5
REMARK    3  A    between atoms: C_7  and  S_8
REMARK                            x       y       z     vdW  Elec       q    Type
REMARK                         _______ _______ _______ _____ _____    ______ ____
ROOT
ATOM      1  C   UNL     1       7.851   9.492  60.137  0.00  0.00    +0.000 C 
ATOM      2  C   UNL     1       8.551  10.828  60.408  0.00  0.00    +0.000 C 
ENDROOT
BRANCH   2   3
ATOM      3  S   UNL     1       9.359  12.363  60.720  0.00  0.00    +0.000 S 
ATOM      4  O   UNL     1      10.573  11.674  61.268  0.00  0.00    +0.000 OA
ATOM      5  C   UNL     1       8.649  12.529  62.322  0.00  0.00    +0.000 C 
ENDBRANCH   2   3
BRANCH   1   6
ATOM      6  C   UNL     1       7.152   8.156  59.868  0.00  0.00    +0.000 C 
ATOM      7  C   UNL     1       6.452   6.819  59.600  0.00  0.00    +0.000 C 
BRANCH   7   9
ATOM      8  S   UNL     1       7.533   3.830  58.154  0.00  0.00    +0.000 S 
ATOM      9  N   UNL     1       5.834   5.655  59.355  0.00  0.00    +0.000 NA
ATOM     10  C   UNL     1       6.571   4.896  58.846  0.00  0.00    +0.000 C 
ENDBRANCH   7   9
ENDBRANCH   1   6
TORSDOF 3
ENDMDL
MODEL 4
REMARK VINA RESULT:      -2.2      4.043      6.989
REMARK  Name = 5350_Sulforaphane.pdbqt.pdb
REMARK  3 active torsions:
REMARK  status: ('A' for Active; 'I' for Inactive)
REMARK    1  A    between atoms: C_1  and  C_2
REMARK    2  A    between atoms: C_3  and  N_5
REMARK    3  A    between atoms: C_7  and  S_8
REMARK                            x       y       z     vdW  Elec       q    Type
REMARK                         _______ _______ _______ _____ _____    ______ ____
ROOT
ATOM      1  C   UNL     1       3.215   7.898  73.301  0.00  0.00    +0.000 C 
ATOM      2  C   UNL     1       3.551   6.973  74.476  0.00  0.00    +0.000 C 
ENDROOT
BRANCH   2   3
ATOM      3  S   UNL     1       3.937   5.913  75.829  0.00  0.00    +0.000 S 
ATOM      4  O   UNL     1       4.234   4.762  74.914  0.00  0.00    +0.000 OA
ATOM      5  C   UNL     1       2.266   5.400  76.039  0.00  0.00    +0.000 C 
ENDBRANCH   2   3
BRANCH   1   6
ATOM      6  C   UNL     1       2.882   8.822  72.127  0.00  0.00    +0.000 C 
ATOM      7  C   UNL     1       2.548   9.748  70.950  0.00  0.00    +0.000 C 
BRANCH   7   9
ATOM      8  S   UNL     1       1.389   9.149  67.711  0.00  0.00    +0.000 S 
ATOM      9  N   UNL     1       2.248  10.563  69.930  0.00  0.00    +0.000 NA
ATOM     10  C   UNL     1       1.886   9.945  69.000  0.00  0.00    +0.000 C 
ENDBRANCH   7   9
ENDBRANCH   1   6
TORSDOF 3
ENDMDL
MODEL 5
REMARK VINA RESULT:      -2.1      4.356      6.203
REMARK  Name = 5350_Sulforaphane.pdbqt.pdb
REMARK  3 active torsions:
REMARK  status: ('A' for Active; 'I' for Inactive)
REMARK    1  A    between atoms: C_1  and  C_2
REMARK    2  A    between atoms: C_3  and  N_5
REMARK    3  A    between atoms: C_7  and  S_8
REMARK                            x       y       z     vdW  Elec       q    Type
REMARK                         _______ _______ _______ _____ _____    ______ ____
ROOT
ATOM      1  C   UNL     1       3.218   8.527  72.655  0.00  0.00    +0.000 C 
ATOM      2  C   UNL     1       3.702   8.599  74.107  0.00  0.00    +0.000 C 
ENDROOT
BRANCH   2   3
ATOM      3  S   UNL     1       4.255   8.683  75.778  0.00  0.00    +0.000 S 
ATOM      4  O   UNL     1       5.690   8.794  75.355  0.00  0.00    +0.000 OA
ATOM      5  C   UNL     1       4.369   6.933  75.936  0.00  0.00    +0.000 C 
ENDBRANCH   2   3
BRANCH   1   6
ATOM      6  C   UNL     1       2.735   8.457  71.203  0.00  0.00    +0.000 C 
ATOM      7  C   UNL     1       2.252   8.388  69.750  0.00  0.00    +0.000 C 
BRANCH   7   9
ATOM      8  S   UNL     1       2.029   5.784  67.434  0.00  0.00    +0.000 S 
ATOM      9  N   UNL     1       1.820   8.337  68.482  0.00  0.00    +0.000 NA
ATOM     10  C   UNL     1       1.916   7.247  68.057  0.00  0.00    +0.000 C 
ENDBRANCH   7   9
ENDBRANCH   1   6
TORSDOF 3
ENDMDL
MODEL 6
REMARK VINA RESULT:      -2.1     16.984     17.334
REMARK  Name = 5350_Sulforaphane.pdbqt.pdb
REMARK  3 active torsions:
REMARK  status: ('A' for Active; 'I' for Inactive)
REMARK    1  A    between atoms: C_1  and  C_2
REMARK    2  A    between atoms: C_3  and  N_5
REMARK    3  A    between atoms: C_7  and  S_8
REMARK                            x       y       z     vdW  Elec       q    Type
REMARK                         _______ _______ _______ _____ _____    ______ ____
ROOT
ATOM      1  C   UNL     1      17.485   3.971  66.143  0.00  0.00    +0.000 C 
ATOM      2  C   UNL     1      16.686   4.446  67.362  0.00  0.00    +0.000 C 
ENDROOT
BRANCH   2   3
ATOM      3  S   UNL     1      15.769   4.996  68.762  0.00  0.00    +0.000 S 
ATOM      4  O   UNL     1      15.241   6.186  68.018  0.00  0.00    +0.000 OA
ATOM      5  C   UNL     1      17.119   5.919  69.414  0.00  0.00    +0.000 C 
ENDBRANCH   2   3
BRANCH   1   6
ATOM      6  C   UNL     1      18.285   3.496  64.928  0.00  0.00    +0.000 C 
ATOM      7  C   UNL     1      19.087   3.019  63.711  0.00  0.00    +0.000 C 
BRANCH   7   9
ATOM      8  S   UNL     1      18.749   0.286  61.563  0.00  0.00    +0.000 S 
ATOM      9  N   UNL     1      19.786   2.615  62.641  0.00  0.00    +0.000 NA
ATOM     10  C   UNL     1      19.331   1.628  62.199  0.00  0.00    +0.000 C 
ENDBRANCH   7   9
ENDBRANCH   1   6
TORSDOF 3
ENDMDL
MODEL 7
REMARK VINA RESULT:      -2.1     12.657     12.771
REMARK  Name = 5350_Sulforaphane.pdbqt.pdb
REMARK  3 active torsions:
REMARK  status: ('A' for Active; 'I' for Inactive)
REMARK    1  A    between atoms: C_1  and  C_2
REMARK    2  A    between atoms: C_3  and  N_5
REMARK    3  A    between atoms: C_7  and  S_8
REMARK                            x       y       z     vdW  Elec       q    Type
REMARK                         _______ _______ _______ _____ _____    ______ ____
ROOT
ATOM      1  C   UNL     1      15.260   5.906  68.778  0.00  0.00    +0.000 C 
ATOM      2  C   UNL     1      14.898   7.391  68.675  0.00  0.00    +0.000 C 
ENDROOT
BRANCH   2   3
ATOM      3  S   UNL     1      14.479   9.098  68.553  0.00  0.00    +0.000 S 
ATOM      4  O   UNL     1      15.276   9.260  67.293  0.00  0.00    +0.000 OA
ATOM      5  C   UNL     1      15.835   9.609  69.555  0.00  0.00    +0.000 C 
ENDBRANCH   2   3
BRANCH   1   6
ATOM      6  C   UNL     1      15.624   4.422  68.879  0.00  0.00    +0.000 C 
ATOM      7  C   UNL     1      15.989   2.936  68.980  0.00  0.00    +0.000 C 
BRANCH   7   9
ATOM      8  S   UNL     1      14.160   0.102  69.886  0.00  0.00    +0.000 S 
ATOM      9  N   UNL     1      16.308   1.637  69.056  0.00  0.00    +0.000 NA
ATOM     10  C   UNL     1      15.385   1.003  69.409  0.00  0.00    +0.000 C 
ENDBRANCH   7   9
ENDBRANCH   1   6
TORSDOF 3
ENDMDL
MODEL 8
REMARK VINA RESULT:      -2.1     24.536     24.928
REMARK  Name = 5350_Sulforaphane.pdbqt.pdb
REMARK  3 active torsions:
REMARK  status: ('A' for Active; 'I' for Inactive)
REMARK    1  A    between atoms: C_1  and  C_2
REMARK    2  A    between atoms: C_3  and  N_5
REMARK    3  A    between atoms: C_7  and  S_8
REMARK                            x       y       z     vdW  Elec       q    Type
REMARK                         _______ _______ _______ _____ _____    ______ ____
ROOT
ATOM      1  C   UNL     1      19.015   1.270  54.011  0.00  0.00    +0.000 C 
ATOM      2  C   UNL     1      18.393   1.887  52.753  0.00  0.00    +0.000 C 
ENDROOT
BRANCH   2   3
ATOM      3  S   UNL     1      17.682   2.596  51.306  0.00  0.00    +0.000 S 
ATOM      4  O   UNL     1      17.493   3.921  51.981  0.00  0.00    +0.000 OA
ATOM      5  C   UNL     1      16.053   2.076  51.725  0.00  0.00    +0.000 C 
ENDBRANCH   2   3
BRANCH   1   6
ATOM      6  C   UNL     1      19.636   0.656  55.269  0.00  0.00    +0.000 C 
ATOM      7  C   UNL     1      20.258   0.042  56.528  0.00  0.00    +0.000 C 
BRANCH   7   9
ATOM      8  S   UNL     1      18.889  -1.432  59.383  0.00  0.00    +0.000 S 
ATOM      9  N   UNL     1      20.810  -0.501  57.622  0.00  0.00    +0.000 NA
ATOM     10  C   UNL     1      19.980  -0.890  58.355  0.00  0.00    +0.000 C 
ENDBRANCH   7   9
ENDBRANCH   1   6
TORSDOF 3
ENDMDL
MODEL 9
REMARK VINA RESULT:      -2.1     13.494     15.025
REMARK  Name = 5350_Sulforaphane.pdbqt.pdb
REMARK  3 active torsions:
REMARK  status: ('A' for Active; 'I' for Inactive)
REMARK    1  A    between atoms: C_1  and  C_2
REMARK    2  A    between atoms: C_3  and  N_5
REMARK    3  A    between atoms: C_7  and  S_8
REMARK                            x       y       z     vdW  Elec       q    Type
REMARK                         _______ _______ _______ _____ _____    ______ ____
ROOT
ATOM      1  C   UNL     1       6.537   6.858  58.775  0.00  0.00    +0.000 C 
ATOM      2  C   UNL     1       6.730   6.342  57.345  0.00  0.00    +0.000 C 
ENDROOT
BRANCH   2   3
ATOM      3  S   UNL     1       6.952   5.753  55.699  0.00  0.00    +0.000 S 
ATOM      4  O   UNL     1       8.039   6.751  55.431  0.00  0.00    +0.000 OA
ATOM      5  C   UNL     1       5.718   6.823  55.040  0.00  0.00    +0.000 C 
ENDBRANCH   2   3
BRANCH   1   6
ATOM      6  C   UNL     1       6.341   7.372  60.204  0.00  0.00    +0.000 C 
ATOM      7  C   UNL     1       6.144   7.888  61.634  0.00  0.00    +0.000 C 
BRANCH   7   9
ATOM      8  S   UNL     1       5.979  11.117  62.955  0.00  0.00    +0.000 S 
ATOM      9  N   UNL     1       5.977   8.350  62.881  0.00  0.00    +0.000 NA
ATOM     10  C   UNL     1       5.980   9.524  62.891  0.00  0.00    +0.000 C 
ENDBRANCH   7   9
ENDBRANCH   1   6
TORSDOF 3
ENDMDL
