MODEL 1
REMARK VINA RESULT:      -3.4      0.000      0.000
REMARK  Name = 5357283_Methylferulate.pdbqt.pdb
REMARK  5 active torsions:
REMARK  status: ('A' for Active; 'I' for Inactive)
REMARK    1  A    between atoms: C_1  and  C_11
REMARK    2  A    between atoms: C_2  and  O_7
REMARK    3  A    between atoms: C_5  and  O_9
REMARK    4  A    between atoms: C_12  and  C_14
REMARK    5  A    between atoms: C_14  and  O_15
REMARK                            x       y       z     vdW  Elec       q    Type
REMARK                         _______ _______ _______ _____ _____    ______ ____
ROOT
ATOM      1  C   UNL     1       6.816   7.652  59.409  0.00  0.00    +0.000 A 
ATOM      2  C   UNL     1       6.073   7.340  61.697  0.00  0.00    +0.000 A 
ATOM      3  C   UNL     1       6.265   6.845  60.404  0.00  0.00    +0.000 A 
ATOM      4  C   UNL     1       7.183   8.965  59.699  0.00  0.00    +0.000 A 
ATOM      5  C   UNL     1       6.446   8.658  61.972  0.00  0.00    +0.000 A 
ATOM      6  C   UNL     1       6.998   9.470  60.982  0.00  0.00    +0.000 A 
ENDROOT
BRANCH   2   7
ATOM      7  O   UNL     1       5.538   6.613  62.732  0.00  0.00    +0.000 OA
ATOM      8  C   UNL     1       4.752   5.513  62.353  0.00  0.00    +0.000 C 
ENDBRANCH   2   7
BRANCH   5   9
ATOM      9  O   UNL     1       6.268   9.161  63.233  0.00  0.00    +0.000 OA
ATOM     10  H   UNL     1       5.472   9.723  63.236  0.00  0.00    +0.000 HD
ENDBRANCH   5   9
BRANCH   1  11
ATOM     11  C   UNL     1       7.003   7.131  58.095  0.00  0.00    +0.000 C 
ATOM     12  C   UNL     1       7.160   6.691  56.988  0.00  0.00    +0.000 C 
BRANCH  12  14
ATOM     13  O   UNL     1       8.118   6.717  54.885  0.00  0.00    +0.000 OA
ATOM     14  C   UNL     1       7.352   6.158  55.659  0.00  0.00    +0.000 C 
BRANCH  14  15
ATOM     15  O   UNL     1       6.596   5.038  55.462  0.00  0.00    +0.000 OA
ATOM     16  C   UNL     1       6.829   3.932  56.296  0.00  0.00    +0.000 C 
ENDBRANCH  14  15
ENDBRANCH  12  14
ENDBRANCH   1  11
TORSDOF 5
ENDMDL
MODEL 2
REMARK VINA RESULT:      -3.4      9.187     11.428
REMARK  Name = 5357283_Methylferulate.pdbqt.pdb
REMARK  5 active torsions:
REMARK  status: ('A' for Active; 'I' for Inactive)
REMARK    1  A    between atoms: C_1  and  C_11
REMARK    2  A    between atoms: C_2  and  O_7
REMARK    3  A    between atoms: C_5  and  O_9
REMARK    4  A    between atoms: C_12  and  C_14
REMARK    5  A    between atoms: C_14  and  O_15
REMARK                            x       y       z     vdW  Elec       q    Type
REMARK                         _______ _______ _______ _____ _____    ______ ____
ROOT
ATOM      1  C   UNL     1      15.681  11.082  60.283  0.00  0.00    +0.000 A 
ATOM      2  C   UNL     1      17.588  10.934  58.793  0.00  0.00    +0.000 A 
ATOM      3  C   UNL     1      16.424  11.583  59.215  0.00  0.00    +0.000 A 
ATOM      4  C   UNL     1      16.094   9.926  60.941  0.00  0.00    +0.000 A 
ATOM      5  C   UNL     1      17.990   9.775  59.463  0.00  0.00    +0.000 A 
ATOM      6  C   UNL     1      17.251   9.271  60.531  0.00  0.00    +0.000 A 
ENDROOT
BRANCH   2   7
ATOM      7  O   UNL     1      18.378  11.359  57.752  0.00  0.00    +0.000 OA
ATOM      8  C   UNL     1      17.797  11.262  56.478  0.00  0.00    +0.000 C 
ENDBRANCH   2   7
BRANCH   5   9
ATOM      9  O   UNL     1      19.128   9.126  59.066  0.00  0.00    +0.000 OA
ATOM     10  H   UNL     1      19.900   9.590  59.439  0.00  0.00    +0.000 HD
ENDBRANCH   5   9
BRANCH   1  11
ATOM     11  C   UNL     1      14.495  11.756  60.699  0.00  0.00    +0.000 C 
ATOM     12  C   UNL     1      13.495  12.324  61.049  0.00  0.00    +0.000 C 
BRANCH  12  14
ATOM     13  O   UNL     1      12.341  14.195  61.761  0.00  0.00    +0.000 OA
ATOM     14  C   UNL     1      12.293  13.009  61.464  0.00  0.00    +0.000 C 
BRANCH  14  15
ATOM     15  O   UNL     1      11.218  12.166  61.461  0.00  0.00    +0.000 OA
ATOM     16  C   UNL     1      10.056  12.580  62.134  0.00  0.00    +0.000 C 
ENDBRANCH  14  15
ENDBRANCH  12  14
ENDBRANCH   1  11
TORSDOF 5
ENDMDL
MODEL 3
REMARK VINA RESULT:      -3.3     12.270     14.826
REMARK  Name = 5357283_Methylferulate.pdbqt.pdb
REMARK  5 active torsions:
REMARK  status: ('A' for Active; 'I' for Inactive)
REMARK    1  A    between atoms: C_1  and  C_11
REMARK    2  A    between atoms: C_2  and  O_7
REMARK    3  A    between atoms: C_5  and  O_9
REMARK    4  A    between atoms: C_12  and  C_14
REMARK    5  A    between atoms: C_14  and  O_15
REMARK                            x       y       z     vdW  Elec       q    Type
REMARK                         _______ _______ _______ _____ _____    ______ ____
ROOT
ATOM      1  C   UNL     1      17.982   1.240  53.597  0.00  0.00    +0.000 A 
ATOM      2  C   UNL     1      15.702   1.016  52.800  0.00  0.00    +0.000 A 
ATOM      3  C   UNL     1      16.722   0.648  53.683  0.00  0.00    +0.000 A 
ATOM      4  C   UNL     1      18.234   2.208  52.628  0.00  0.00    +0.000 A 
ATOM      5  C   UNL     1      15.970   1.988  51.833  0.00  0.00    +0.000 A 
ATOM      6  C   UNL     1      17.228   2.584  51.744  0.00  0.00    +0.000 A 
ENDROOT
BRANCH   2   7
ATOM      7  O   UNL     1      14.436   0.482  52.816  0.00  0.00    +0.000 OA
ATOM      8  C   UNL     1      14.099  -0.236  53.974  0.00  0.00    +0.000 C 
ENDBRANCH   2   7
BRANCH   5   9
ATOM      9  O   UNL     1      14.984   2.363  50.961  0.00  0.00    +0.000 OA
ATOM     10  H   UNL     1      15.221   2.051  50.069  0.00  0.00    +0.000 HD
ENDBRANCH   5   9
BRANCH   1  11
ATOM     11  C   UNL     1      19.011   0.852  54.505  0.00  0.00    +0.000 C 
ATOM     12  C   UNL     1      19.878   0.523  55.269  0.00  0.00    +0.000 C 
BRANCH  12  14
ATOM     13  O   UNL     1      21.830  -0.593  55.804  0.00  0.00    +0.000 OA
ATOM     14  C   UNL     1      20.917   0.125  56.190  0.00  0.00    +0.000 C 
BRANCH  14  15
ATOM     15  O   UNL     1      20.702   0.648  57.433  0.00  0.00    +0.000 OA
ATOM     16  C   UNL     1      21.824   1.023  58.192  0.00  0.00    +0.000 C 
ENDBRANCH  14  15
ENDBRANCH  12  14
ENDBRANCH   1  11
TORSDOF 5
ENDMDL
MODEL 4
REMARK VINA RESULT:      -3.2     13.149     15.193
REMARK  Name = 5357283_Methylferulate.pdbqt.pdb
REMARK  5 active torsions:
REMARK  status: ('A' for Active; 'I' for Inactive)
REMARK    1  A    between atoms: C_1  and  C_11
REMARK    2  A    between atoms: C_2  and  O_7
REMARK    3  A    between atoms: C_5  and  O_9
REMARK    4  A    between atoms: C_12  and  C_14
REMARK    5  A    between atoms: C_14  and  O_15
REMARK                            x       y       z     vdW  Elec       q    Type
REMARK                         _______ _______ _______ _____ _____    ______ ____
ROOT
ATOM      1  C   UNL     1      17.833   1.180  53.630  0.00  0.00    +0.000 A 
ATOM      2  C   UNL     1      16.837   2.474  51.837  0.00  0.00    +0.000 A 
ATOM      3  C   UNL     1      17.905   2.218  52.702  0.00  0.00    +0.000 A 
ATOM      4  C   UNL     1      16.692   0.385  53.702  0.00  0.00    +0.000 A 
ATOM      5  C   UNL     1      15.698   1.669  51.921  0.00  0.00    +0.000 A 
ATOM      6  C   UNL     1      15.621   0.629  52.847  0.00  0.00    +0.000 A 
ENDROOT
BRANCH   2   7
ATOM      7  O   UNL     1      16.827   3.475  50.896  0.00  0.00    +0.000 OA
ATOM      8  C   UNL     1      17.970   4.289  50.870  0.00  0.00    +0.000 C 
ENDBRANCH   2   7
BRANCH   5   9
ATOM      9  O   UNL     1      14.643   1.903  51.082  0.00  0.00    +0.000 OA
ATOM     10  H   UNL     1      14.848   1.524  50.208  0.00  0.00    +0.000 HD
ENDBRANCH   5   9
BRANCH   1  11
ATOM     11  C   UNL     1      18.932   0.934  54.505  0.00  0.00    +0.000 C 
ATOM     12  C   UNL     1      19.857   0.727  55.244  0.00  0.00    +0.000 C 
BRANCH  12  14
ATOM     13  O   UNL     1      22.092   0.322  55.672  0.00  0.00    +0.000 OA
ATOM     14  C   UNL     1      20.969   0.484  56.133  0.00  0.00    +0.000 C 
BRANCH  14  15
ATOM     15  O   UNL     1      20.565   0.471  57.438  0.00  0.00    +0.000 OA
ATOM     16  C   UNL     1      21.504   0.097  58.414  0.00  0.00    +0.000 C 
ENDBRANCH  14  15
ENDBRANCH  12  14
ENDBRANCH   1  11
TORSDOF 5
ENDMDL
MODEL 5
REMARK VINA RESULT:      -3.2     12.912     16.033
REMARK  Name = 5357283_Methylferulate.pdbqt.pdb
REMARK  5 active torsions:
REMARK  status: ('A' for Active; 'I' for Inactive)
REMARK    1  A    between atoms: C_1  and  C_11
REMARK    2  A    between atoms: C_2  and  O_7
REMARK    3  A    between atoms: C_5  and  O_9
REMARK    4  A    between atoms: C_12  and  C_14
REMARK    5  A    between atoms: C_14  and  O_15
REMARK                            x       y       z     vdW  Elec       q    Type
REMARK                         _______ _______ _______ _____ _____    ______ ____
ROOT
ATOM      1  C   UNL     1       3.021   7.097  74.537  0.00  0.00    +0.000 A 
ATOM      2  C   UNL     1       1.435   6.614  76.307  0.00  0.00    +0.000 A 
ATOM      3  C   UNL     1       1.866   7.419  75.249  0.00  0.00    +0.000 A 
ATOM      4  C   UNL     1       3.757   5.964  74.876  0.00  0.00    +0.000 A 
ATOM      5  C   UNL     1       2.184   5.481  76.636  0.00  0.00    +0.000 A 
ATOM      6  C   UNL     1       3.339   5.154  75.927  0.00  0.00    +0.000 A 
ENDROOT
BRANCH   2   7
ATOM      7  O   UNL     1       0.311   6.860  77.058  0.00  0.00    +0.000 OA
ATOM      8  C   UNL     1       0.387   7.974  77.909  0.00  0.00    +0.000 C 
ENDBRANCH   2   7
BRANCH   5   9
ATOM      9  O   UNL     1       1.777   4.679  77.668  0.00  0.00    +0.000 OA
ATOM     10  H   UNL     1       1.930   3.749  77.420  0.00  0.00    +0.000 HD
ENDBRANCH   5   9
BRANCH   1  11
ATOM     11  C   UNL     1       3.447   7.930  73.461  0.00  0.00    +0.000 C 
ATOM     12  C   UNL     1       3.807   8.632  72.554  0.00  0.00    +0.000 C 
BRANCH  12  14
ATOM     13  O   UNL     1       3.417   9.967  70.708  0.00  0.00    +0.000 OA
ATOM     14  C   UNL     1       4.243   9.474  71.464  0.00  0.00    +0.000 C 
BRANCH  14  15
ATOM     15  O   UNL     1       5.603   9.595  71.449  0.00  0.00    +0.000 OA
ATOM     16  C   UNL     1       6.194  10.499  72.349  0.00  0.00    +0.000 C 
ENDBRANCH  14  15
ENDBRANCH  12  14
ENDBRANCH   1  11
TORSDOF 5
ENDMDL
MODEL 6
REMARK VINA RESULT:      -3.1      2.076      3.387
REMARK  Name = 5357283_Methylferulate.pdbqt.pdb
REMARK  5 active torsions:
REMARK  status: ('A' for Active; 'I' for Inactive)
REMARK    1  A    between atoms: C_1  and  C_11
REMARK    2  A    between atoms: C_2  and  O_7
REMARK    3  A    between atoms: C_5  and  O_9
REMARK    4  A    between atoms: C_12  and  C_14
REMARK    5  A    between atoms: C_14  and  O_15
REMARK                            x       y       z     vdW  Elec       q    Type
REMARK                         _______ _______ _______ _____ _____    ______ ____
ROOT
ATOM      1  C   UNL     1       6.997   8.442  60.465  0.00  0.00    +0.000 A 
ATOM      2  C   UNL     1       6.902  10.670  61.418  0.00  0.00    +0.000 A 
ATOM      3  C   UNL     1       7.298   9.801  60.397  0.00  0.00    +0.000 A 
ATOM      4  C   UNL     1       6.295   7.936  61.557  0.00  0.00    +0.000 A 
ATOM      5  C   UNL     1       6.199  10.149  62.506  0.00  0.00    +0.000 A 
ATOM      6  C   UNL     1       5.895   8.790  62.580  0.00  0.00    +0.000 A 
ENDROOT
BRANCH   2   7
ATOM      7  O   UNL     1       7.159  12.020  61.428  0.00  0.00    +0.000 OA
ATOM      8  C   UNL     1       6.472  12.770  60.460  0.00  0.00    +0.000 C 
ENDBRANCH   2   7
BRANCH   5   9
ATOM      9  O   UNL     1       5.802  10.983  63.516  0.00  0.00    +0.000 OA
ATOM     10  H   UNL     1       4.919  11.337  63.300  0.00  0.00    +0.000 HD
ENDBRANCH   5   9
BRANCH   1  11
ATOM     11  C   UNL     1       7.410   7.570  59.415  0.00  0.00    +0.000 C 
ATOM     12  C   UNL     1       7.759   6.836  58.529  0.00  0.00    +0.000 C 
BRANCH  12  14
ATOM     13  O   UNL     1       7.853   6.204  56.308  0.00  0.00    +0.000 OA
ATOM     14  C   UNL     1       8.178   5.957  57.462  0.00  0.00    +0.000 C 
BRANCH  14  15
ATOM     15  O   UNL     1       8.923   4.918  57.942  0.00  0.00    +0.000 OA
ATOM     16  C   UNL     1      10.255   5.177  58.308  0.00  0.00    +0.000 C 
ENDBRANCH  14  15
ENDBRANCH  12  14
ENDBRANCH   1  11
TORSDOF 5
ENDMDL
MODEL 7
REMARK VINA RESULT:      -3.1     10.109     11.875
REMARK  Name = 5357283_Methylferulate.pdbqt.pdb
REMARK  5 active torsions:
REMARK  status: ('A' for Active; 'I' for Inactive)
REMARK    1  A    between atoms: C_1  and  C_11
REMARK    2  A    between atoms: C_2  and  O_7
REMARK    3  A    between atoms: C_5  and  O_9
REMARK    4  A    between atoms: C_12  and  C_14
REMARK    5  A    between atoms: C_14  and  O_15
REMARK                            x       y       z     vdW  Elec       q    Type
REMARK                         _______ _______ _______ _____ _____    ______ ____
ROOT
ATOM      1  C   UNL     1      16.568  10.551  60.677  0.00  0.00    +0.000 A 
ATOM      2  C   UNL     1      18.463   9.571  59.524  0.00  0.00    +0.000 A 
ATOM      3  C   UNL     1      17.235  10.239  59.493  0.00  0.00    +0.000 A 
ATOM      4  C   UNL     1      17.122  10.199  61.905  0.00  0.00    +0.000 A 
ATOM      5  C   UNL     1      19.006   9.224  60.764  0.00  0.00    +0.000 A 
ATOM      6  C   UNL     1      18.343   9.534  61.950  0.00  0.00    +0.000 A 
ENDROOT
BRANCH   2   7
ATOM      7  O   UNL     1      19.185   9.226  58.407  0.00  0.00    +0.000 OA
ATOM      8  C   UNL     1      18.584   9.547  57.179  0.00  0.00    +0.000 C 
ENDBRANCH   2   7
BRANCH   5   9
ATOM      9  O   UNL     1      20.208   8.571  60.815  0.00  0.00    +0.000 OA
ATOM     10  H   UNL     1      20.716   8.910  61.575  0.00  0.00    +0.000 HD
ENDBRANCH   5   9
BRANCH   1  11
ATOM     11  C   UNL     1      15.316  11.232  60.626  0.00  0.00    +0.000 C 
ATOM     12  C   UNL     1      14.259  11.804  60.584  0.00  0.00    +0.000 C 
BRANCH  12  14
ATOM     13  O   UNL     1      12.035  12.053  61.160  0.00  0.00    +0.000 OA
ATOM     14  C   UNL     1      12.989  12.489  60.529  0.00  0.00    +0.000 C 
BRANCH  14  15
ATOM     15  O   UNL     1      13.056  13.592  59.726  0.00  0.00    +0.000 OA
ATOM     16  C   UNL     1      13.808  14.690  60.178  0.00  0.00    +0.000 C 
ENDBRANCH  14  15
ENDBRANCH  12  14
ENDBRANCH   1  11
TORSDOF 5
ENDMDL
MODEL 8
REMARK VINA RESULT:      -3.1     11.068     11.830
REMARK  Name = 5357283_Methylferulate.pdbqt.pdb
REMARK  5 active torsions:
REMARK  status: ('A' for Active; 'I' for Inactive)
REMARK    1  A    between atoms: C_1  and  C_11
REMARK    2  A    between atoms: C_2  and  O_7
REMARK    3  A    between atoms: C_5  and  O_9
REMARK    4  A    between atoms: C_12  and  C_14
REMARK    5  A    between atoms: C_14  and  O_15
REMARK                            x       y       z     vdW  Elec       q    Type
REMARK                         _______ _______ _______ _____ _____    ______ ____
ROOT
ATOM      1  C   UNL     1      18.481   9.539  59.290  0.00  0.00    +0.000 A 
ATOM      2  C   UNL     1      16.985  10.098  61.115  0.00  0.00    +0.000 A 
ATOM      3  C   UNL     1      17.200   9.820  59.762  0.00  0.00    +0.000 A 
ATOM      4  C   UNL     1      19.563   9.532  60.167  0.00  0.00    +0.000 A 
ATOM      5  C   UNL     1      18.080  10.088  61.983  0.00  0.00    +0.000 A 
ATOM      6  C   UNL     1      19.363   9.807  61.517  0.00  0.00    +0.000 A 
ENDROOT
BRANCH   2   7
ATOM      7  O   UNL     1      15.757  10.385  61.660  0.00  0.00    +0.000 OA
ATOM      8  C   UNL     1      15.004  11.351  60.974  0.00  0.00    +0.000 C 
ENDBRANCH   2   7
BRANCH   5   9
ATOM      9  O   UNL     1      17.890  10.356  63.312  0.00  0.00    +0.000 OA
ATOM     10  H   UNL     1      17.402   9.614  63.714  0.00  0.00    +0.000 HD
ENDBRANCH   5   9
BRANCH   1  11
ATOM     11  C   UNL     1      18.682   9.259  57.906  0.00  0.00    +0.000 C 
ATOM     12  C   UNL     1      18.851   9.024  56.739  0.00  0.00    +0.000 C 
BRANCH  12  14
ATOM     13  O   UNL     1      20.187   8.653  54.891  0.00  0.00    +0.000 OA
ATOM     14  C   UNL     1      19.051   8.746  55.336  0.00  0.00    +0.000 C 
BRANCH  14  15
ATOM     15  O   UNL     1      17.859   8.621  54.683  0.00  0.00    +0.000 OA
ATOM     16  C   UNL     1      17.174   9.798  54.333  0.00  0.00    +0.000 C 
ENDBRANCH  14  15
ENDBRANCH  12  14
ENDBRANCH   1  11
TORSDOF 5
ENDMDL
MODEL 9
REMARK VINA RESULT:      -3.0     13.175     14.778
REMARK  Name = 5357283_Methylferulate.pdbqt.pdb
REMARK  5 active torsions:
REMARK  status: ('A' for Active; 'I' for Inactive)
REMARK    1  A    between atoms: C_1  and  C_11
REMARK    2  A    between atoms: C_2  and  O_7
REMARK    3  A    between atoms: C_5  and  O_9
REMARK    4  A    between atoms: C_12  and  C_14
REMARK    5  A    between atoms: C_14  and  O_15
REMARK                            x       y       z     vdW  Elec       q    Type
REMARK                         _______ _______ _______ _____ _____    ______ ____
ROOT
ATOM      1  C   UNL     1      14.035   3.061  71.458  0.00  0.00    +0.000 A 
ATOM      2  C   UNL     1      12.985   1.105  72.433  0.00  0.00    +0.000 A 
ATOM      3  C   UNL     1      13.609   1.738  71.354  0.00  0.00    +0.000 A 
ATOM      4  C   UNL     1      13.843   3.766  72.643  0.00  0.00    +0.000 A 
ATOM      5  C   UNL     1      12.799   1.825  73.616  0.00  0.00    +0.000 A 
ATOM      6  C   UNL     1      13.224   3.148  73.725  0.00  0.00    +0.000 A 
ENDROOT
BRANCH   2   7
ATOM      7  O   UNL     1      12.536  -0.194  72.414  0.00  0.00    +0.000 OA
ATOM      8  C   UNL     1      11.552  -0.476  71.454  0.00  0.00    +0.000 C 
ENDBRANCH   2   7
BRANCH   5   9
ATOM      9  O   UNL     1      12.192   1.222  74.684  0.00  0.00    +0.000 OA
ATOM     10  H   UNL     1      12.438   1.702  75.496  0.00  0.00    +0.000 HD
ENDBRANCH   5   9
BRANCH   1  11
ATOM     11  C   UNL     1      14.668   3.691  70.346  0.00  0.00    +0.000 C 
ATOM     12  C   UNL     1      15.203   4.222  69.409  0.00  0.00    +0.000 C 
BRANCH  12  14
ATOM     13  O   UNL     1      15.447   5.943  67.887  0.00  0.00    +0.000 OA
ATOM     14  C   UNL     1      15.850   4.858  68.285  0.00  0.00    +0.000 C 
BRANCH  14  15
ATOM     15  O   UNL     1      16.879   4.097  67.811  0.00  0.00    +0.000 OA
ATOM     16  C   UNL     1      16.575   3.077  66.893  0.00  0.00    +0.000 C 
ENDBRANCH  14  15
ENDBRANCH  12  14
ENDBRANCH   1  11
TORSDOF 5
ENDMDL
