MODEL 1
REMARK VINA RESULT:      -4.3      0.000      0.000
REMARK  Name = 5358691_Yuanhuacine.pdbqt.pdb
REMARK  12 active torsions:
REMARK  status: ('A' for Active; 'I' for Inactive)
REMARK    1  A    between atoms: C_9  and  C_48
REMARK    2  A    between atoms: C_13  and  C_23
REMARK    3  A    between atoms: C_14  and  O_26
REMARK    4  A    between atoms: C_15  and  O_28
REMARK    5  A    between atoms: C_16  and  O_39
REMARK    6  A    between atoms: C_17  and  C_30
REMARK    7  A    between atoms: C_31  and  C_32
REMARK    8  A    between atoms: C_33  and  C_34
REMARK    9  A    between atoms: C_35  and  C_36
REMARK   10  A    between atoms: O_39  and  C_41
REMARK   11  A    between atoms: C_41  and  C_42
REMARK   12  A    between atoms: C_48  and  O_49
REMARK                            x       y       z     vdW  Elec       q    Type
REMARK                         _______ _______ _______ _____ _____    ______ ____
ROOT
ATOM      1  O   UNL     1       2.822   7.878  58.187  0.00  0.00    +0.000 OA
ATOM      2  O   UNL     1       4.827   7.154  60.964  0.00  0.00    +0.000 OA
ATOM      3  O   UNL     1       2.923   8.468  61.497  0.00  0.00    +0.000 OA
ATOM      4  O   UNL     1       4.795   8.647  62.808  0.00  0.00    +0.000 OA
ATOM      5  O   UNL     1       7.259   7.009  55.603  0.00  0.00    +0.000 OA
ATOM      6  C   UNL     1       4.145   9.105  59.686  0.00  0.00    +0.000 C 
ATOM      7  C   UNL     1       5.282   8.111  59.960  0.00  0.00    +0.000 C 
ATOM      8  C   UNL     1       3.288   9.121  58.534  0.00  0.00    +0.000 C 
ATOM      9  C   UNL     1       3.398   8.676  57.144  0.00  0.00    +0.000 C 
ATOM     10  C   UNL     1       3.660   9.542  61.001  0.00  0.00    +0.000 C 
ATOM     11  C   UNL     1       5.653   7.326  58.739  0.00  0.00    +0.000 C 
ATOM     12  C   UNL     1       6.498   8.895  60.539  0.00  0.00    +0.000 C 
ATOM     13  C   UNL     1       4.739   9.891  62.055  0.00  0.00    +0.000 C 
ATOM     14  C   UNL     1       5.934   8.011  57.420  0.00  0.00    +0.000 C 
ATOM     15  C   UNL     1       4.733   8.334  56.581  0.00  0.00    +0.000 C 
ATOM     16  C   UNL     1       6.121   9.979  61.431  0.00  0.00    +0.000 C 
ATOM     17  C   UNL     1       4.030   7.731  62.028  0.00  0.00    +0.000 C 
ATOM     18  C   UNL     1       6.225   6.028  58.702  0.00  0.00    +0.000 C 
ATOM     19  C   UNL     1       7.968   8.484  60.440  0.00  0.00    +0.000 C 
ATOM     20  C   UNL     1       6.787   6.895  56.731  0.00  0.00    +0.000 C 
ATOM     21  C   UNL     1       6.897   5.712  57.647  0.00  0.00    +0.000 C 
ATOM     22  C   UNL     1       7.195   4.306  57.240  0.00  0.00    +0.000 C 
ENDROOT
BRANCH  13  23
ATOM     23  C   UNL     1       4.273  11.094  62.907  0.00  0.00    +0.000 C 
ATOM     24  C   UNL     1       4.394  11.166  64.428  0.00  0.00    +0.000 C 
ATOM     25  C   UNL     1       3.464  12.068  62.441  0.00  0.00    +0.000 C 
ENDBRANCH  13  23
BRANCH  14  26
ATOM     26  O   UNL     1       6.666   9.203  57.610  0.00  0.00    +0.000 OA
ATOM     27  H   UNL     1       7.576   9.039  57.293  0.00  0.00    +0.000 HD
ENDBRANCH  14  26
BRANCH  15  28
ATOM     28  O   UNL     1       4.947   8.497  55.210  0.00  0.00    +0.000 OA
ATOM     29  H   UNL     1       4.336   9.124  54.767  0.00  0.00    +0.000 HD
ENDBRANCH  15  28
BRANCH  17  30
ATOM     30  C   UNL     1       3.540   6.656  62.885  0.00  0.00    +0.000 C 
ATOM     31  C   UNL     1       3.139   5.771  63.590  0.00  0.00    +0.000 C 
BRANCH  31  32
ATOM     32  C   UNL     1       2.629   4.642  64.490  0.00  0.00    +0.000 C 
ATOM     33  C   UNL     1       2.230   3.757  65.195  0.00  0.00    +0.000 C 
BRANCH  33  34
ATOM     34  C   UNL     1       1.723   2.626  66.095  0.00  0.00    +0.000 C 
ATOM     35  C   UNL     1       1.217   1.496  66.995  0.00  0.00    +0.000 C 
BRANCH  35  36
ATOM     36  C   UNL     1       0.710   0.365  67.898  0.00  0.00    +0.000 C 
ATOM     37  C   UNL     1       0.204  -0.764  68.800  0.00  0.00    +0.000 C 
ATOM     38  C   UNL     1      -0.302  -1.893  69.704  0.00  0.00    +0.000 C 
ENDBRANCH  35  36
ENDBRANCH  33  34
ENDBRANCH  31  32
ENDBRANCH  17  30
BRANCH  16  39
ATOM     39  O   UNL     1       7.067  10.988  61.682  0.00  0.00    +0.000 OA
BRANCH  39  41
ATOM     40  O   UNL     1       6.173  12.557  60.261  0.00  0.00    +0.000 OA
ATOM     41  C   UNL     1       7.128  11.953  60.718  0.00  0.00    +0.000 C 
BRANCH  41  42
ATOM     42  C   UNL     1       8.519  12.136  60.265  0.00  0.00    +0.000 A 
ATOM     43  C   UNL     1       8.820  12.465  58.944  0.00  0.00    +0.000 A 
ATOM     44  C   UNL     1       9.543  11.973  61.197  0.00  0.00    +0.000 A 
ATOM     45  C   UNL     1      10.147  12.631  58.555  0.00  0.00    +0.000 A 
ATOM     46  C   UNL     1      10.869  12.141  60.806  0.00  0.00    +0.000 A 
ATOM     47  C   UNL     1      11.170  12.469  59.486  0.00  0.00    +0.000 A 
ENDBRANCH  41  42
ENDBRANCH  39  41
ENDBRANCH  16  39
BRANCH   9  48
ATOM     48  C   UNL     1       2.358   9.087  56.210  0.00  0.00    +0.000 C 
BRANCH  48  49
ATOM     49  O   UNL     1       1.407   9.456  55.357  0.00  0.00    +0.000 OA
ATOM     50  H   UNL     1       0.548   9.086  55.625  0.00  0.00    +0.000 HD
ENDBRANCH  48  49
ENDBRANCH   9  48
TORSDOF 12
ENDMDL
MODEL 2
REMARK VINA RESULT:      -4.2     12.864     17.725
REMARK  Name = 5358691_Yuanhuacine.pdbqt.pdb
REMARK  12 active torsions:
REMARK  status: ('A' for Active; 'I' for Inactive)
REMARK    1  A    between atoms: C_9  and  C_48
REMARK    2  A    between atoms: C_13  and  C_23
REMARK    3  A    between atoms: C_14  and  O_26
REMARK    4  A    between atoms: C_15  and  O_28
REMARK    5  A    between atoms: C_16  and  O_39
REMARK    6  A    between atoms: C_17  and  C_30
REMARK    7  A    between atoms: C_31  and  C_32
REMARK    8  A    between atoms: C_33  and  C_34
REMARK    9  A    between atoms: C_35  and  C_36
REMARK   10  A    between atoms: O_39  and  C_41
REMARK   11  A    between atoms: C_41  and  C_42
REMARK   12  A    between atoms: C_48  and  O_49
REMARK                            x       y       z     vdW  Elec       q    Type
REMARK                         _______ _______ _______ _____ _____    ______ ____
ROOT
ATOM      1  O   UNL     1      16.147   5.519  67.580  0.00  0.00    +0.000 OA
ATOM      2  O   UNL     1      17.846   8.435  66.650  0.00  0.00    +0.000 OA
ATOM      3  O   UNL     1      18.962   6.447  65.990  0.00  0.00    +0.000 OA
ATOM      4  O   UNL     1      20.201   8.339  66.372  0.00  0.00    +0.000 OA
ATOM      5  O   UNL     1      14.066   8.677  71.159  0.00  0.00    +0.000 OA
ATOM      6  C   UNL     1      18.188   6.536  68.128  0.00  0.00    +0.000 C 
ATOM      7  C   UNL     1      17.809   8.023  68.050  0.00  0.00    +0.000 C 
ATOM      8  C   UNL     1      17.287   5.439  68.338  0.00  0.00    +0.000 C 
ATOM      9  C   UNL     1      15.983   5.266  68.981  0.00  0.00    +0.000 C 
ATOM     10  C   UNL     1      19.398   6.382  67.312  0.00  0.00    +0.000 C 
ATOM     11  C   UNL     1      16.419   8.278  68.549  0.00  0.00    +0.000 C 
ATOM     12  C   UNL     1      18.870   8.848  68.838  0.00  0.00    +0.000 C 
ATOM     13  C   UNL     1      20.496   7.459  67.493  0.00  0.00    +0.000 C 
ATOM     14  C   UNL     1      15.953   7.742  69.884  0.00  0.00    +0.000 C 
ATOM     15  C   UNL     1      15.459   6.326  69.885  0.00  0.00    +0.000 C 
ATOM     16  C   UNL     1      20.225   8.337  68.702  0.00  0.00    +0.000 C 
ATOM     17  C   UNL     1      18.942   7.876  65.886  0.00  0.00    +0.000 C 
ATOM     18  C   UNL     1      15.558   9.338  68.163  0.00  0.00    +0.000 C 
ATOM     19  C   UNL     1      18.647  10.207  69.502  0.00  0.00    +0.000 C 
ATOM     20  C   UNL     1      14.766   8.726  70.151  0.00  0.00    +0.000 C 
ATOM     21  C   UNL     1      14.635   9.677  68.999  0.00  0.00    +0.000 C 
ATOM     22  C   UNL     1      13.407  10.437  68.618  0.00  0.00    +0.000 C 
ENDROOT
BRANCH  13  23
ATOM     23  C   UNL     1      21.895   6.805  67.397  0.00  0.00    +0.000 C 
ATOM     24  C   UNL     1      23.180   7.572  67.087  0.00  0.00    +0.000 C 
ATOM     25  C   UNL     1      22.090   5.474  67.294  0.00  0.00    +0.000 C 
ENDBRANCH  13  23
BRANCH  14  26
ATOM     26  O   UNL     1      16.968   7.850  70.859  0.00  0.00    +0.000 OA
ATOM     27  H   UNL     1      16.859   7.098  71.475  0.00  0.00    +0.000 HD
ENDBRANCH  14  26
BRANCH  15  28
ATOM     28  O   UNL     1      14.593   5.961  70.919  0.00  0.00    +0.000 OA
ATOM     29  H   UNL     1      13.642   6.125  70.740  0.00  0.00    +0.000 HD
ENDBRANCH  15  28
BRANCH  17  30
ATOM     30  C   UNL     1      18.789   8.266  64.488  0.00  0.00    +0.000 C 
ATOM     31  C   UNL     1      18.661   8.587  63.339  0.00  0.00    +0.000 C 
BRANCH  31  32
ATOM     32  C   UNL     1      18.497   8.997  61.873  0.00  0.00    +0.000 C 
ATOM     33  C   UNL     1      18.367   9.319  60.724  0.00  0.00    +0.000 C 
BRANCH  33  34
ATOM     34  C   UNL     1      18.200   9.727  59.257  0.00  0.00    +0.000 C 
ATOM     35  C   UNL     1      18.035  10.135  57.791  0.00  0.00    +0.000 C 
BRANCH  35  36
ATOM     36  C   UNL     1      17.870  10.542  56.322  0.00  0.00    +0.000 C 
ATOM     37  C   UNL     1      17.704  10.947  54.855  0.00  0.00    +0.000 C 
ATOM     38  C   UNL     1      17.537  11.353  53.387  0.00  0.00    +0.000 C 
ENDBRANCH  35  36
ENDBRANCH  33  34
ENDBRANCH  31  32
ENDBRANCH  17  30
BRANCH  16  39
ATOM     39  O   UNL     1      21.177   8.725  69.659  0.00  0.00    +0.000 OA
BRANCH  39  41
ATOM     40  O   UNL     1      20.504   8.611  71.853  0.00  0.00    +0.000 OA
ATOM     41  C   UNL     1      21.034   8.116  70.873  0.00  0.00    +0.000 C 
BRANCH  41  42
ATOM     42  C   UNL     1      21.655   6.779  70.852  0.00  0.00    +0.000 A 
ATOM     43  C   UNL     1      20.885   5.617  70.867  0.00  0.00    +0.000 A 
ATOM     44  C   UNL     1      23.046   6.698  70.814  0.00  0.00    +0.000 A 
ATOM     45  C   UNL     1      21.508   4.371  70.845  0.00  0.00    +0.000 A 
ATOM     46  C   UNL     1      23.667   5.452  70.791  0.00  0.00    +0.000 A 
ATOM     47  C   UNL     1      22.898   4.290  70.807  0.00  0.00    +0.000 A 
ENDBRANCH  41  42
ENDBRANCH  39  41
ENDBRANCH  16  39
BRANCH   9  48
ATOM     48  C   UNL     1      15.494   3.908  69.180  0.00  0.00    +0.000 C 
BRANCH  48  49
ATOM     49  O   UNL     1      15.052   2.667  69.366  0.00  0.00    +0.000 OA
ATOM     50  H   UNL     1      14.107   2.606  69.143  0.00  0.00    +0.000 HD
ENDBRANCH  48  49
ENDBRANCH   9  48
TORSDOF 12
ENDMDL
MODEL 3
REMARK VINA RESULT:      -4.2     13.003     17.173
REMARK  Name = 5358691_Yuanhuacine.pdbqt.pdb
REMARK  12 active torsions:
REMARK  status: ('A' for Active; 'I' for Inactive)
REMARK    1  A    between atoms: C_9  and  C_48
REMARK    2  A    between atoms: C_13  and  C_23
REMARK    3  A    between atoms: C_14  and  O_26
REMARK    4  A    between atoms: C_15  and  O_28
REMARK    5  A    between atoms: C_16  and  O_39
REMARK    6  A    between atoms: C_17  and  C_30
REMARK    7  A    between atoms: C_31  and  C_32
REMARK    8  A    between atoms: C_33  and  C_34
REMARK    9  A    between atoms: C_35  and  C_36
REMARK   10  A    between atoms: O_39  and  C_41
REMARK   11  A    between atoms: C_41  and  C_42
REMARK   12  A    between atoms: C_48  and  O_49
REMARK                            x       y       z     vdW  Elec       q    Type
REMARK                         _______ _______ _______ _____ _____    ______ ____
ROOT
ATOM      1  O   UNL     1      15.152   8.754  67.712  0.00  0.00    +0.000 OA
ATOM      2  O   UNL     1      17.755   6.498  68.342  0.00  0.00    +0.000 OA
ATOM      3  O   UNL     1      15.728   5.440  67.706  0.00  0.00    +0.000 OA
ATOM      4  O   UNL     1      17.206   4.295  69.033  0.00  0.00    +0.000 OA
ATOM      5  O   UNL     1      17.976  11.838  70.815  0.00  0.00    +0.000 OA
ATOM      6  C   UNL     1      15.589   7.071  69.287  0.00  0.00    +0.000 C 
ATOM      7  C   UNL     1      17.111   7.203  69.448  0.00  0.00    +0.000 C 
ATOM      8  C   UNL     1      14.692   8.090  68.821  0.00  0.00    +0.000 C 
ATOM      9  C   UNL     1      14.689   9.553  68.808  0.00  0.00    +0.000 C 
ATOM     10  C   UNL     1      15.330   5.650  69.025  0.00  0.00    +0.000 C 
ATOM     11  C   UNL     1      17.564   8.630  69.384  0.00  0.00    +0.000 C 
ATOM     12  C   UNL     1      17.531   6.518  70.783  0.00  0.00    +0.000 C 
ATOM     13  C   UNL     1      16.094   4.633  69.908  0.00  0.00    +0.000 C 
ATOM     14  C   UNL     1      16.907   9.701  70.225  0.00  0.00    +0.000 C 
ATOM     15  C   UNL     1      15.654  10.301  69.659  0.00  0.00    +0.000 C 
ATOM     16  C   UNL     1      16.774   5.314  71.083  0.00  0.00    +0.000 C 
ATOM     17  C   UNL     1      17.121   5.248  67.975  0.00  0.00    +0.000 C 
ATOM     18  C   UNL     1      18.836   9.101  68.969  0.00  0.00    +0.000 C 
ATOM     19  C   UNL     1      18.762   6.858  71.624  0.00  0.00    +0.000 C 
ATOM     20  C   UNL     1      18.057  10.761  70.230  0.00  0.00    +0.000 C 
ATOM     21  C   UNL     1      19.207  10.255  69.413  0.00  0.00    +0.000 C 
ATOM     22  C   UNL     1      20.271  11.088  68.775  0.00  0.00    +0.000 C 
ENDROOT
BRANCH  13  23
ATOM     23  C   UNL     1      15.184   3.424  70.226  0.00  0.00    +0.000 C 
ATOM     24  C   UNL     1      15.482   1.989  69.793  0.00  0.00    +0.000 C 
ATOM     25  C   UNL     1      13.912   3.542  70.659  0.00  0.00    +0.000 C 
ENDBRANCH  13  23
BRANCH  14  26
ATOM     26  O   UNL     1      16.613   9.223  71.521  0.00  0.00    +0.000 OA
ATOM     27  H   UNL     1      16.632   9.992  72.125  0.00  0.00    +0.000 HD
ENDBRANCH  14  26
BRANCH  15  28
ATOM     28  O   UNL     1      15.301  11.573  70.118  0.00  0.00    +0.000 OA
ATOM     29  H   UNL     1      15.711  11.834  70.970  0.00  0.00    +0.000 HD
ENDBRANCH  15  28
BRANCH  17  30
ATOM     30  C   UNL     1      17.784   4.715  66.789  0.00  0.00    +0.000 C 
ATOM     31  C   UNL     1      18.330   4.279  65.814  0.00  0.00    +0.000 C 
BRANCH  31  32
ATOM     32  C   UNL     1      19.028   3.721  64.570  0.00  0.00    +0.000 C 
ATOM     33  C   UNL     1      19.576   3.286  63.595  0.00  0.00    +0.000 C 
BRANCH  33  34
ATOM     34  C   UNL     1      20.273   2.731  62.349  0.00  0.00    +0.000 C 
ATOM     35  C   UNL     1      20.969   2.177  61.103  0.00  0.00    +0.000 C 
BRANCH  35  36
ATOM     36  C   UNL     1      21.667   1.624  59.855  0.00  0.00    +0.000 C 
ATOM     37  C   UNL     1      22.365   1.073  58.609  0.00  0.00    +0.000 C 
ATOM     38  C   UNL     1      23.064   0.521  57.362  0.00  0.00    +0.000 C 
ENDBRANCH  35  36
ENDBRANCH  33  34
ENDBRANCH  31  32
ENDBRANCH  17  30
BRANCH  16  39
ATOM     39  O   UNL     1      16.767   4.851  72.410  0.00  0.00    +0.000 OA
BRANCH  39  41
ATOM     40  O   UNL     1      15.887   6.681  73.487  0.00  0.00    +0.000 OA
ATOM     41  C   UNL     1      15.875   5.490  73.223  0.00  0.00    +0.000 C 
BRANCH  41  42
ATOM     42  C   UNL     1      14.909   4.527  73.782  0.00  0.00    +0.000 A 
ATOM     43  C   UNL     1      15.254   3.194  74.005  0.00  0.00    +0.000 A 
ATOM     44  C   UNL     1      13.627   4.980  74.089  0.00  0.00    +0.000 A 
ATOM     45  C   UNL     1      14.314   2.314  74.537  0.00  0.00    +0.000 A 
ATOM     46  C   UNL     1      12.690   4.098  74.620  0.00  0.00    +0.000 A 
ATOM     47  C   UNL     1      13.034   2.767  74.843  0.00  0.00    +0.000 A 
ENDBRANCH  41  42
ENDBRANCH  39  41
ENDBRANCH  16  39
BRANCH   9  48
ATOM     48  C   UNL     1      13.455  10.231  68.433  0.00  0.00    +0.000 C 
BRANCH  48  49
ATOM     49  O   UNL     1      12.332  10.855  68.089  0.00  0.00    +0.000 OA
ATOM     50  H   UNL     1      12.251  10.900  67.120  0.00  0.00    +0.000 HD
ENDBRANCH  48  49
ENDBRANCH   9  48
TORSDOF 12
ENDMDL
MODEL 4
REMARK VINA RESULT:      -4.2     13.530     15.859
REMARK  Name = 5358691_Yuanhuacine.pdbqt.pdb
REMARK  12 active torsions:
REMARK  status: ('A' for Active; 'I' for Inactive)
REMARK    1  A    between atoms: C_9  and  C_48
REMARK    2  A    between atoms: C_13  and  C_23
REMARK    3  A    between atoms: C_14  and  O_26
REMARK    4  A    between atoms: C_15  and  O_28
REMARK    5  A    between atoms: C_16  and  O_39
REMARK    6  A    between atoms: C_17  and  C_30
REMARK    7  A    between atoms: C_31  and  C_32
REMARK    8  A    between atoms: C_33  and  C_34
REMARK    9  A    between atoms: C_35  and  C_36
REMARK   10  A    between atoms: O_39  and  C_41
REMARK   11  A    between atoms: C_41  and  C_42
REMARK   12  A    between atoms: C_48  and  O_49
REMARK                            x       y       z     vdW  Elec       q    Type
REMARK                         _______ _______ _______ _____ _____    ______ ____
ROOT
ATOM      1  O   UNL     1      13.472   8.698  70.403  0.00  0.00    +0.000 OA
ATOM      2  O   UNL     1      14.854   6.365  72.618  0.00  0.00    +0.000 OA
ATOM      3  O   UNL     1      13.651   8.098  73.708  0.00  0.00    +0.000 OA
ATOM      4  O   UNL     1      15.361   7.061  74.830  0.00  0.00    +0.000 OA
ATOM      5  O   UNL     1      17.258   6.964  67.275  0.00  0.00    +0.000 OA
ATOM      6  C   UNL     1      15.113   8.721  72.079  0.00  0.00    +0.000 C 
ATOM      7  C   UNL     1      15.716   7.318  71.923  0.00  0.00    +0.000 C 
ATOM      8  C   UNL     1      14.398   9.456  71.074  0.00  0.00    +0.000 C 
ATOM      9  C   UNL     1      14.378   9.477  69.610  0.00  0.00    +0.000 C 
ATOM     10  C   UNL     1      14.793   8.871  73.504  0.00  0.00    +0.000 C 
ATOM     11  C   UNL     1      15.783   6.887  70.490  0.00  0.00    +0.000 C 
ATOM     12  C   UNL     1      17.119   7.302  72.602  0.00  0.00    +0.000 C 
ATOM     13  C   UNL     1      15.867   8.388  74.508  0.00  0.00    +0.000 C 
ATOM     14  C   UNL     1      16.387   7.780  69.429  0.00  0.00    +0.000 C 
ATOM     15  C   UNL     1      15.473   8.818  68.848  0.00  0.00    +0.000 C 
ATOM     16  C   UNL     1      17.187   8.096  73.818  0.00  0.00    +0.000 C 
ATOM     17  C   UNL     1      14.322   6.844  73.878  0.00  0.00    +0.000 C 
ATOM     18  C   UNL     1      15.760   5.556  69.999  0.00  0.00    +0.000 C 
ATOM     19  C   UNL     1      18.285   6.380  72.243  0.00  0.00    +0.000 C 
ATOM     20  C   UNL     1      16.728   6.698  68.351  0.00  0.00    +0.000 C 
ATOM     21  C   UNL     1      16.289   5.350  68.839  0.00  0.00    +0.000 C 
ATOM     22  C   UNL     1      15.991   4.158  67.990  0.00  0.00    +0.000 C 
ENDROOT
BRANCH  13  23
ATOM     23  C   UNL     1      15.906   9.333  75.732  0.00  0.00    +0.000 C 
ATOM     24  C   UNL     1      16.506   8.958  77.086  0.00  0.00    +0.000 C 
ATOM     25  C   UNL     1      15.175  10.463  75.824  0.00  0.00    +0.000 C 
ENDBRANCH  13  23
BRANCH  14  26
ATOM     26  O   UNL     1      17.541   8.436  69.911  0.00  0.00    +0.000 OA
ATOM     27  H   UNL     1      18.315   7.994  69.510  0.00  0.00    +0.000 HD
ENDBRANCH  14  26
BRANCH  15  28
ATOM     28  O   UNL     1      15.802   9.309  67.582  0.00  0.00    +0.000 OA
ATOM     29  H   UNL     1      16.624   8.939  67.194  0.00  0.00    +0.000 HD
ENDBRANCH  15  28
BRANCH  17  30
ATOM     30  C   UNL     1      13.387   5.852  74.400  0.00  0.00    +0.000 C 
ATOM     31  C   UNL     1      12.618   5.036  74.828  0.00  0.00    +0.000 C 
BRANCH  31  32
ATOM     32  C   UNL     1      11.638   3.993  75.373  0.00  0.00    +0.000 C 
ATOM     33  C   UNL     1      10.868   3.176  75.799  0.00  0.00    +0.000 C 
BRANCH  33  34
ATOM     34  C   UNL     1       9.885   2.136  76.344  0.00  0.00    +0.000 C 
ATOM     35  C   UNL     1       8.902   1.097  76.889  0.00  0.00    +0.000 C 
BRANCH  35  36
ATOM     36  C   UNL     1       7.917   0.057  77.433  0.00  0.00    +0.000 C 
ATOM     37  C   UNL     1       6.933  -0.983  77.978  0.00  0.00    +0.000 C 
ATOM     38  C   UNL     1       5.949  -2.023  78.523  0.00  0.00    +0.000 C 
ENDBRANCH  35  36
ENDBRANCH  33  34
ENDBRANCH  31  32
ENDBRANCH  17  30
BRANCH  16  39
ATOM     39  O   UNL     1      18.455   8.489  74.281  0.00  0.00    +0.000 OA
BRANCH  39  41
ATOM     40  O   UNL     1      19.912   9.329  72.715  0.00  0.00    +0.000 OA
ATOM     41  C   UNL     1      19.036   9.484  73.549  0.00  0.00    +0.000 C 
BRANCH  41  42
ATOM     42  C   UNL     1      18.486  10.795  73.940  0.00  0.00    +0.000 A 
ATOM     43  C   UNL     1      17.604  11.492  73.115  0.00  0.00    +0.000 A 
ATOM     44  C   UNL     1      18.868  11.331  75.169  0.00  0.00    +0.000 A 
ATOM     45  C   UNL     1      17.105  12.727  73.520  0.00  0.00    +0.000 A 
ATOM     46  C   UNL     1      18.367  12.566  75.572  0.00  0.00    +0.000 A 
ATOM     47  C   UNL     1      17.486  13.263  74.748  0.00  0.00    +0.000 A 
ENDBRANCH  41  42
ENDBRANCH  39  41
ENDBRANCH  16  39
BRANCH   9  48
ATOM     48  C   UNL     1      13.652  10.554  68.952  0.00  0.00    +0.000 C 
BRANCH  48  49
ATOM     49  O   UNL     1      12.989  11.535  68.345  0.00  0.00    +0.000 OA
ATOM     50  H   UNL     1      12.898  12.301  68.937  0.00  0.00    +0.000 HD
ENDBRANCH  48  49
ENDBRANCH   9  48
TORSDOF 12
ENDMDL
MODEL 5
REMARK VINA RESULT:      -4.1      9.285     14.034
REMARK  Name = 5358691_Yuanhuacine.pdbqt.pdb
REMARK  12 active torsions:
REMARK  status: ('A' for Active; 'I' for Inactive)
REMARK    1  A    between atoms: C_9  and  C_48
REMARK    2  A    between atoms: C_13  and  C_23
REMARK    3  A    between atoms: C_14  and  O_26
REMARK    4  A    between atoms: C_15  and  O_28
REMARK    5  A    between atoms: C_16  and  O_39
REMARK    6  A    between atoms: C_17  and  C_30
REMARK    7  A    between atoms: C_31  and  C_32
REMARK    8  A    between atoms: C_33  and  C_34
REMARK    9  A    between atoms: C_35  and  C_36
REMARK   10  A    between atoms: O_39  and  C_41
REMARK   11  A    between atoms: C_41  and  C_42
REMARK   12  A    between atoms: C_48  and  O_49
REMARK                            x       y       z     vdW  Elec       q    Type
REMARK                         _______ _______ _______ _____ _____    ______ ____
ROOT
ATOM      1  O   UNL     1       5.776   9.800  72.497  0.00  0.00    +0.000 OA
ATOM      2  O   UNL     1       2.568   8.553  71.853  0.00  0.00    +0.000 OA
ATOM      3  O   UNL     1       3.225  10.274  70.356  0.00  0.00    +0.000 OA
ATOM      4  O   UNL     1       0.993   9.968  70.782  0.00  0.00    +0.000 OA
ATOM      5  O   UNL     1       4.806   7.950  77.267  0.00  0.00    +0.000 OA
ATOM      6  C   UNL     1       3.586  10.640  72.573  0.00  0.00    +0.000 C 
ATOM      7  C   UNL     1       2.807   9.396  73.022  0.00  0.00    +0.000 C 
ATOM      8  C   UNL     1       4.986  10.887  72.777  0.00  0.00    +0.000 C 
ATOM      9  C   UNL     1       5.991  10.460  73.753  0.00  0.00    +0.000 C 
ATOM     10  C   UNL     1       2.889  11.150  71.386  0.00  0.00    +0.000 C 
ATOM     11  C   UNL     1       3.577   8.572  74.009  0.00  0.00    +0.000 C 
ATOM     12  C   UNL     1       1.430   9.851  73.594  0.00  0.00    +0.000 C 
ATOM     13  C   UNL     1       1.344  11.206  71.463  0.00  0.00    +0.000 C 
ATOM     14  C   UNL     1       4.209   9.199  75.231  0.00  0.00    +0.000 C 
ATOM     15  C   UNL     1       5.559   9.821  75.025  0.00  0.00    +0.000 C 
ATOM     16  C   UNL     1       0.846  10.974  72.879  0.00  0.00    +0.000 C 
ATOM     17  C   UNL     1       2.235   9.281  70.645  0.00  0.00    +0.000 C 
ATOM     18  C   UNL     1       3.457   7.176  74.231  0.00  0.00    +0.000 C 
ATOM     19  C   UNL     1       0.589   9.102  74.627  0.00  0.00    +0.000 C 
ATOM     20  C   UNL     1       4.334   7.927  76.133  0.00  0.00    +0.000 C 
ATOM     21  C   UNL     1       3.820   6.732  75.387  0.00  0.00    +0.000 C 
ATOM     22  C   UNL     1       4.169   5.306  75.658  0.00  0.00    +0.000 C 
ENDROOT
BRANCH  13  23
ATOM     23  C   UNL     1       0.826  12.467  70.732  0.00  0.00    +0.000 C 
ATOM     24  C   UNL     1      -0.605  12.635  70.222  0.00  0.00    +0.000 C 
ATOM     25  C   UNL     1       1.635  13.417  70.221  0.00  0.00    +0.000 C 
ENDBRANCH  13  23
BRANCH  14  26
ATOM     26  O   UNL     1       3.363  10.177  75.799  0.00  0.00    +0.000 OA
ATOM     27  H   UNL     1       3.932  10.812  76.276  0.00  0.00    +0.000 HD
ENDBRANCH  14  26
BRANCH  15  28
ATOM     28  O   UNL     1       6.369   9.958  76.156  0.00  0.00    +0.000 OA
ATOM     29  H   UNL     1       5.892  10.188  76.982  0.00  0.00    +0.000 HD
ENDBRANCH  15  28
BRANCH  17  30
ATOM     30  C   UNL     1       2.146   8.336  69.537  0.00  0.00    +0.000 C 
ATOM     31  C   UNL     1       2.074   7.557  68.626  0.00  0.00    +0.000 C 
BRANCH  31  32
ATOM     32  C   UNL     1       1.982   6.563  67.465  0.00  0.00    +0.000 C 
ATOM     33  C   UNL     1       1.911   5.783  66.556  0.00  0.00    +0.000 C 
BRANCH  33  34
ATOM     34  C   UNL     1       1.822   4.787  65.396  0.00  0.00    +0.000 C 
ATOM     35  C   UNL     1       1.734   3.792  64.236  0.00  0.00    +0.000 C 
BRANCH  35  36
ATOM     36  C   UNL     1       1.647   2.796  63.074  0.00  0.00    +0.000 C 
ATOM     37  C   UNL     1       1.560   1.800  61.914  0.00  0.00    +0.000 C 
ATOM     38  C   UNL     1       1.473   0.803  60.754  0.00  0.00    +0.000 C 
ENDBRANCH  35  36
ENDBRANCH  33  34
ENDBRANCH  31  32
ENDBRANCH  17  30
BRANCH  16  39
ATOM     39  O   UNL     1      -0.155  11.720  73.524  0.00  0.00    +0.000 OA
BRANCH  39  41
ATOM     40  O   UNL     1       0.306  12.311  75.697  0.00  0.00    +0.000 OA
ATOM     41  C   UNL     1       0.309  12.554  74.502  0.00  0.00    +0.000 C 
BRANCH  41  42
ATOM     42  C   UNL     1       0.779  13.821  73.914  0.00  0.00    +0.000 A 
ATOM     43  C   UNL     1       2.134  14.151  73.878  0.00  0.00    +0.000 A 
ATOM     44  C   UNL     1      -0.170  14.696  73.386  0.00  0.00    +0.000 A 
ATOM     45  C   UNL     1       2.539  15.357  73.312  0.00  0.00    +0.000 A 
ATOM     46  C   UNL     1       0.238  15.901  72.821  0.00  0.00    +0.000 A 
ATOM     47  C   UNL     1       1.591  16.231  72.784  0.00  0.00    +0.000 A 
ENDBRANCH  41  42
ENDBRANCH  39  41
ENDBRANCH  16  39
BRANCH   9  48
ATOM     48  C   UNL     1       7.284  11.129  73.739  0.00  0.00    +0.000 C 
BRANCH  48  49
ATOM     49  O   UNL     1       8.463  11.746  73.723  0.00  0.00    +0.000 OA
ATOM     50  H   UNL     1       8.421  12.573  74.232  0.00  0.00    +0.000 HD
ENDBRANCH  48  49
ENDBRANCH   9  48
TORSDOF 12
ENDMDL
MODEL 6
REMARK VINA RESULT:      -4.0     13.473     16.848
REMARK  Name = 5358691_Yuanhuacine.pdbqt.pdb
REMARK  12 active torsions:
REMARK  status: ('A' for Active; 'I' for Inactive)
REMARK    1  A    between atoms: C_9  and  C_48
REMARK    2  A    between atoms: C_13  and  C_23
REMARK    3  A    between atoms: C_14  and  O_26
REMARK    4  A    between atoms: C_15  and  O_28
REMARK    5  A    between atoms: C_16  and  O_39
REMARK    6  A    between atoms: C_17  and  C_30
REMARK    7  A    between atoms: C_31  and  C_32
REMARK    8  A    between atoms: C_33  and  C_34
REMARK    9  A    between atoms: C_35  and  C_36
REMARK   10  A    between atoms: O_39  and  C_41
REMARK   11  A    between atoms: C_41  and  C_42
REMARK   12  A    between atoms: C_48  and  O_49
REMARK                            x       y       z     vdW  Elec       q    Type
REMARK                         _______ _______ _______ _____ _____    ______ ____
ROOT
ATOM      1  O   UNL     1      18.314  -3.365  54.263  0.00  0.00    +0.000 OA
ATOM      2  O   UNL     1      16.267  -0.764  55.405  0.00  0.00    +0.000 OA
ATOM      3  O   UNL     1      15.141  -2.848  55.254  0.00  0.00    +0.000 OA
ATOM      4  O   UNL     1      13.928  -0.914  55.038  0.00  0.00    +0.000 OA
ATOM      5  O   UNL     1      21.033   0.576  52.215  0.00  0.00    +0.000 OA
ATOM      6  C   UNL     1      16.418  -2.232  53.474  0.00  0.00    +0.000 C 
ATOM      7  C   UNL     1      16.677  -0.814  54.004  0.00  0.00    +0.000 C 
ATOM      8  C   UNL     1      17.406  -3.247  53.242  0.00  0.00    +0.000 C 
ATOM      9  C   UNL     1      18.837  -3.261  52.932  0.00  0.00    +0.000 C 
ATOM     10  C   UNL     1      15.053  -2.578  53.889  0.00  0.00    +0.000 C 
ATOM     11  C   UNL     1      18.130  -0.450  53.957  0.00  0.00    +0.000 C 
ATOM     12  C   UNL     1      15.799   0.188  53.196  0.00  0.00    +0.000 C 
ATOM     13  C   UNL     1      13.974  -1.485  53.700  0.00  0.00    +0.000 C 
ATOM     14  C   UNL     1      18.945  -0.638  52.697  0.00  0.00    +0.000 C 
ATOM     15  C   UNL     1      19.507  -2.012  52.479  0.00  0.00    +0.000 C 
ATOM     16  C   UNL     1      14.487  -0.334  52.852  0.00  0.00    +0.000 C 
ATOM     17  C   UNL     1      15.050  -1.491  55.703  0.00  0.00    +0.000 C 
ATOM     18  C   UNL     1      18.804   0.475  54.796  0.00  0.00    +0.000 C 
ATOM     19  C   UNL     1      16.101   1.668  52.962  0.00  0.00    +0.000 C 
ATOM     20  C   UNL     1      20.101   0.375  52.990  0.00  0.00    +0.000 C 
ATOM     21  C   UNL     1      19.884   1.007  54.333  0.00  0.00    +0.000 C 
ATOM     22  C   UNL     1      20.931   1.642  55.189  0.00  0.00    +0.000 C 
ENDROOT
BRANCH  13  23
ATOM     23  C   UNL     1      12.637  -2.134  53.272  0.00  0.00    +0.000 C 
ATOM     24  C   UNL     1      11.265  -1.501  53.500  0.00  0.00    +0.000 C 
ATOM     25  C   UNL     1      12.517  -3.430  52.919  0.00  0.00    +0.000 C 
ENDBRANCH  13  23
BRANCH  14  26
ATOM     26  O   UNL     1      18.202  -0.285  51.550  0.00  0.00    +0.000 OA
ATOM     27  H   UNL     1      17.329   0.032  51.856  0.00  0.00    +0.000 HD
ENDBRANCH  14  26
BRANCH  15  28
ATOM     28  O   UNL     1      20.624  -2.112  51.646  0.00  0.00    +0.000 OA
ATOM     29  H   UNL     1      21.259  -1.367  51.712  0.00  0.00    +0.000 HD
ENDBRANCH  15  28
BRANCH  17  30
ATOM     30  C   UNL     1      14.826  -1.463  57.145  0.00  0.00    +0.000 C 
ATOM     31  C   UNL     1      14.643  -1.442  58.331  0.00  0.00    +0.000 C 
BRANCH  31  32
ATOM     32  C   UNL     1      14.410  -1.416  59.844  0.00  0.00    +0.000 C 
ATOM     33  C   UNL     1      14.227  -1.397  61.030  0.00  0.00    +0.000 C 
BRANCH  33  34
ATOM     34  C   UNL     1      13.992  -1.373  62.543  0.00  0.00    +0.000 C 
ATOM     35  C   UNL     1      13.757  -1.350  64.056  0.00  0.00    +0.000 C 
BRANCH  35  36
ATOM     36  C   UNL     1      13.524  -1.327  65.570  0.00  0.00    +0.000 C 
ATOM     37  C   UNL     1      13.289  -1.305  67.083  0.00  0.00    +0.000 C 
ATOM     38  C   UNL     1      13.055  -1.284  68.598  0.00  0.00    +0.000 C 
ENDBRANCH  35  36
ENDBRANCH  33  34
ENDBRANCH  31  32
ENDBRANCH  17  30
BRANCH  16  39
ATOM     39  O   UNL     1      13.782   0.286  51.806  0.00  0.00    +0.000 OA
BRANCH  39  41
ATOM     40  O   UNL     1      14.974   0.803  49.911  0.00  0.00    +0.000 OA
ATOM     41  C   UNL     1      14.286   0.035  50.562  0.00  0.00    +0.000 C 
BRANCH  41  42
ATOM     42  C   UNL     1      13.845  -1.289  50.088  0.00  0.00    +0.000 A 
ATOM     43  C   UNL     1      14.721  -2.372  50.028  0.00  0.00    +0.000 A 
ATOM     44  C   UNL     1      12.516  -1.441  49.696  0.00  0.00    +0.000 A 
ATOM     45  C   UNL     1      14.266  -3.609  49.576  0.00  0.00    +0.000 A 
ATOM     46  C   UNL     1      12.063  -2.677  49.245  0.00  0.00    +0.000 A 
ATOM     47  C   UNL     1      12.938  -3.760  49.185  0.00  0.00    +0.000 A 
ENDBRANCH  41  42
ENDBRANCH  39  41
ENDBRANCH  16  39
BRANCH   9  48
ATOM     48  C   UNL     1      19.439  -4.529  52.542  0.00  0.00    +0.000 C 
BRANCH  48  49
ATOM     49  O   UNL     1      19.987  -5.685  52.180  0.00  0.00    +0.000 OA
ATOM     50  H   UNL     1      20.338  -6.154  52.957  0.00  0.00    +0.000 HD
ENDBRANCH  48  49
ENDBRANCH   9  48
TORSDOF 12
ENDMDL
MODEL 7
REMARK VINA RESULT:      -3.9     11.862     16.217
REMARK  Name = 5358691_Yuanhuacine.pdbqt.pdb
REMARK  12 active torsions:
REMARK  status: ('A' for Active; 'I' for Inactive)
REMARK    1  A    between atoms: C_9  and  C_48
REMARK    2  A    between atoms: C_13  and  C_23
REMARK    3  A    between atoms: C_14  and  O_26
REMARK    4  A    between atoms: C_15  and  O_28
REMARK    5  A    between atoms: C_16  and  O_39
REMARK    6  A    between atoms: C_17  and  C_30
REMARK    7  A    between atoms: C_31  and  C_32
REMARK    8  A    between atoms: C_33  and  C_34
REMARK    9  A    between atoms: C_35  and  C_36
REMARK   10  A    between atoms: O_39  and  C_41
REMARK   11  A    between atoms: C_41  and  C_42
REMARK   12  A    between atoms: C_48  and  O_49
REMARK                            x       y       z     vdW  Elec       q    Type
REMARK                         _______ _______ _______ _____ _____    ______ ____
ROOT
ATOM      1  O   UNL     1       4.017   7.964  72.089  0.00  0.00    +0.000 OA
ATOM      2  O   UNL     1       5.290   8.417  75.319  0.00  0.00    +0.000 OA
ATOM      3  O   UNL     1       3.788   6.587  75.149  0.00  0.00    +0.000 OA
ATOM      4  O   UNL     1       4.003   7.661  77.164  0.00  0.00    +0.000 OA
ATOM      5  O   UNL     1       5.219  13.011  71.635  0.00  0.00    +0.000 OA
ATOM      6  C   UNL     1       3.143   8.545  74.187  0.00  0.00    +0.000 C 
ATOM      7  C   UNL     1       4.307   9.353  74.780  0.00  0.00    +0.000 C 
ATOM      8  C   UNL     1       2.892   8.313  72.792  0.00  0.00    +0.000 C 
ATOM      9  C   UNL     1       3.204   9.012  71.544  0.00  0.00    +0.000 C 
ATOM     10  C   UNL     1       2.780   7.549  75.202  0.00  0.00    +0.000 C 
ATOM     11  C   UNL     1       5.007  10.179  73.745  0.00  0.00    +0.000 C 
ATOM     12  C   UNL     1       3.761  10.226  75.950  0.00  0.00    +0.000 C 
ATOM     13  C   UNL     1       2.692   8.050  76.664  0.00  0.00    +0.000 C 
ATOM     14  C   UNL     1       4.235  11.083  72.809  0.00  0.00    +0.000 C 
ATOM     15  C   UNL     1       3.666  10.426  71.585  0.00  0.00    +0.000 C 
ATOM     16  C   UNL     1       2.732   9.567  76.738  0.00  0.00    +0.000 C 
ATOM     17  C   UNL     1       4.720   7.269  75.996  0.00  0.00    +0.000 C 
ATOM     18  C   UNL     1       6.360  10.603  73.766  0.00  0.00    +0.000 C 
ATOM     19  C   UNL     1       4.357  11.542  76.449  0.00  0.00    +0.000 C 
ATOM     20  C   UNL     1       5.382  12.068  72.406  0.00  0.00    +0.000 C 
ATOM     21  C   UNL     1       6.655  11.658  73.082  0.00  0.00    +0.000 C 
ATOM     22  C   UNL     1       8.040  12.000  72.639  0.00  0.00    +0.000 C 
ENDROOT
BRANCH  13  23
ATOM     23  C   UNL     1       1.529   7.340  77.395  0.00  0.00    +0.000 C 
ATOM     24  C   UNL     1       1.464   7.136  78.908  0.00  0.00    +0.000 C 
ATOM     25  C   UNL     1       0.605   6.584  76.766  0.00  0.00    +0.000 C 
ENDBRANCH  13  23
BRANCH  14  26
ATOM     26  O   UNL     1       3.180  11.735  73.483  0.00  0.00    +0.000 OA
ATOM     27  H   UNL     1       2.352  11.279  73.235  0.00  0.00    +0.000 HD
ENDBRANCH  14  26
BRANCH  15  28
ATOM     28  O   UNL     1       3.395  11.254  70.493  0.00  0.00    +0.000 OA
ATOM     29  H   UNL     1       4.155  11.409  69.892  0.00  0.00    +0.000 HD
ENDBRANCH  15  28
BRANCH  17  30
ATOM     30  C   UNL     1       5.800   6.361  76.371  0.00  0.00    +0.000 C 
ATOM     31  C   UNL     1       6.689   5.616  76.680  0.00  0.00    +0.000 C 
BRANCH  31  32
ATOM     32  C   UNL     1       7.823   4.668  77.075  0.00  0.00    +0.000 C 
ATOM     33  C   UNL     1       8.713   3.924  77.385  0.00  0.00    +0.000 C 
BRANCH  33  34
ATOM     34  C   UNL     1       9.851   2.977  77.781  0.00  0.00    +0.000 C 
ATOM     35  C   UNL     1      10.986   2.031  78.178  0.00  0.00    +0.000 C 
BRANCH  35  36
ATOM     36  C   UNL     1      12.123   1.082  78.575  0.00  0.00    +0.000 C 
ATOM     37  C   UNL     1      13.258   0.133  78.970  0.00  0.00    +0.000 C 
ATOM     38  C   UNL     1      14.394  -0.816  79.364  0.00  0.00    +0.000 C 
ENDBRANCH  35  36
ENDBRANCH  33  34
ENDBRANCH  31  32
ENDBRANCH  17  30
BRANCH  16  39
ATOM     39  O   UNL     1       1.893  10.367  77.532  0.00  0.00    +0.000 OA
BRANCH  39  41
ATOM     40  O   UNL     1       0.887  11.867  76.111  0.00  0.00    +0.000 OA
ATOM     41  C   UNL     1       0.833  10.908  76.862  0.00  0.00    +0.000 C 
BRANCH  41  42
ATOM     42  C   UNL     1      -0.409  10.194  77.208  0.00  0.00    +0.000 A 
ATOM     43  C   UNL     1      -0.808  10.022  78.533  0.00  0.00    +0.000 A 
ATOM     44  C   UNL     1      -1.191   9.687  76.170  0.00  0.00    +0.000 A 
ATOM     45  C   UNL     1      -1.990   9.343  78.820  0.00  0.00    +0.000 A 
ATOM     46  C   UNL     1      -2.372   9.010  76.459  0.00  0.00    +0.000 A 
ATOM     47  C   UNL     1      -2.770   8.838  77.783  0.00  0.00    +0.000 A 
ENDBRANCH  41  42
ENDBRANCH  39  41
ENDBRANCH  16  39
BRANCH   9  48
ATOM     48  C   UNL     1       2.561   8.548  70.323  0.00  0.00    +0.000 C 
BRANCH  48  49
ATOM     49  O   UNL     1       1.975   8.130  69.204  0.00  0.00    +0.000 OA
ATOM     50  H   UNL     1       1.458   7.323  69.372  0.00  0.00    +0.000 HD
ENDBRANCH  48  49
ENDBRANCH   9  48
TORSDOF 12
ENDMDL
MODEL 8
REMARK VINA RESULT:      -3.9      3.286      9.537
REMARK  Name = 5358691_Yuanhuacine.pdbqt.pdb
REMARK  12 active torsions:
REMARK  status: ('A' for Active; 'I' for Inactive)
REMARK    1  A    between atoms: C_9  and  C_48
REMARK    2  A    between atoms: C_13  and  C_23
REMARK    3  A    between atoms: C_14  and  O_26
REMARK    4  A    between atoms: C_15  and  O_28
REMARK    5  A    between atoms: C_16  and  O_39
REMARK    6  A    between atoms: C_17  and  C_30
REMARK    7  A    between atoms: C_31  and  C_32
REMARK    8  A    between atoms: C_33  and  C_34
REMARK    9  A    between atoms: C_35  and  C_36
REMARK   10  A    between atoms: O_39  and  C_41
REMARK   11  A    between atoms: C_41  and  C_42
REMARK   12  A    between atoms: C_48  and  O_49
REMARK                            x       y       z     vdW  Elec       q    Type
REMARK                         _______ _______ _______ _____ _____    ______ ____
ROOT
ATOM      1  O   UNL     1       8.072   5.898  57.296  0.00  0.00    +0.000 OA
ATOM      2  O   UNL     1       4.680   5.722  58.146  0.00  0.00    +0.000 OA
ATOM      3  O   UNL     1       5.683   7.798  58.710  0.00  0.00    +0.000 OA
ATOM      4  O   UNL     1       3.885   7.068  59.931  0.00  0.00    +0.000 OA
ATOM      5  O   UNL     1       7.720   0.710  57.577  0.00  0.00    +0.000 OA
ATOM      6  C   UNL     1       6.821   5.912  59.280  0.00  0.00    +0.000 C 
ATOM      7  C   UNL     1       5.668   4.967  58.911  0.00  0.00    +0.000 C 
ATOM      8  C   UNL     1       8.118   5.952  58.666  0.00  0.00    +0.000 C 
ATOM      9  C   UNL     1       8.968   4.995  57.956  0.00  0.00    +0.000 C 
ATOM     10  C   UNL     1       6.196   7.126  59.818  0.00  0.00    +0.000 C 
ATOM     11  C   UNL     1       6.123   3.832  58.044  0.00  0.00    +0.000 C 
ATOM     12  C   UNL     1       4.998   4.463  60.224  0.00  0.00    +0.000 C 
ATOM     13  C   UNL     1       5.030   6.919  60.816  0.00  0.00    +0.000 C 
ATOM     14  C   UNL     1       7.321   2.989  58.420  0.00  0.00    +0.000 C 
ATOM     15  C   UNL     1       8.660   3.541  58.025  0.00  0.00    +0.000 C 
ATOM     16  C   UNL     1       4.931   5.473  61.268  0.00  0.00    +0.000 C 
ATOM     17  C   UNL     1       4.452   7.071  58.622  0.00  0.00    +0.000 C 
ATOM     18  C   UNL     1       5.341   3.110  57.107  0.00  0.00    +0.000 C 
ATOM     19  C   UNL     1       4.236   3.150  60.403  0.00  0.00    +0.000 C 
ATOM     20  C   UNL     1       7.000   1.706  57.584  0.00  0.00    +0.000 C 
ATOM     21  C   UNL     1       5.730   1.914  56.816  0.00  0.00    +0.000 C 
ATOM     22  C   UNL     1       5.315   1.183  55.581  0.00  0.00    +0.000 C 
ENDROOT
BRANCH  13  23
ATOM     23  C   UNL     1       5.086   8.000  61.921  0.00  0.00    +0.000 C 
ATOM     24  C   UNL     1       3.853   8.644  62.553  0.00  0.00    +0.000 C 
ATOM     25  C   UNL     1       6.204   8.686  62.237  0.00  0.00    +0.000 C 
ENDBRANCH  13  23
BRANCH  14  26
ATOM     26  O   UNL     1       7.349   2.731  59.808  0.00  0.00    +0.000 OA
ATOM     27  H   UNL     1       7.738   1.842  59.930  0.00  0.00    +0.000 HD
ENDBRANCH  14  26
BRANCH  15  28
ATOM     28  O   UNL     1       9.707   2.624  57.899  0.00  0.00    +0.000 OA
ATOM     29  H   UNL     1      10.313   2.788  57.145  0.00  0.00    +0.000 HD
ENDBRANCH  15  28
BRANCH  17  30
ATOM     30  C   UNL     1       3.545   7.749  57.702  0.00  0.00    +0.000 C 
ATOM     31  C   UNL     1       2.797   8.304  56.945  0.00  0.00    +0.000 C 
BRANCH  31  32
ATOM     32  C   UNL     1       1.842   9.013  55.981  0.00  0.00    +0.000 C 
ATOM     33  C   UNL     1       1.092   9.567  55.225  0.00  0.00    +0.000 C 
BRANCH  33  34
ATOM     34  C   UNL     1       0.135  10.273  54.258  0.00  0.00    +0.000 C 
ATOM     35  C   UNL     1      -0.820  10.978  53.292  0.00  0.00    +0.000 C 
BRANCH  35  36
ATOM     36  C   UNL     1      -1.776  11.682  52.324  0.00  0.00    +0.000 C 
ATOM     37  C   UNL     1      -2.733  12.386  51.357  0.00  0.00    +0.000 C 
ATOM     38  C   UNL     1      -3.690  13.089  50.390  0.00  0.00    +0.000 C 
ENDBRANCH  35  36
ENDBRANCH  33  34
ENDBRANCH  31  32
ENDBRANCH  17  30
BRANCH  16  39
ATOM     39  O   UNL     1       4.736   5.044  62.592  0.00  0.00    +0.000 OA
BRANCH  39  41
ATOM     40  O   UNL     1       2.475   5.439  62.473  0.00  0.00    +0.000 OA
ATOM     41  C   UNL     1       3.430   4.830  62.927  0.00  0.00    +0.000 C 
BRANCH  41  42
ATOM     42  C   UNL     1       3.330   3.779  63.956  0.00  0.00    +0.000 A 
ATOM     43  C   UNL     1       2.302   3.775  64.898  0.00  0.00    +0.000 A 
ATOM     44  C   UNL     1       4.296   2.774  63.969  0.00  0.00    +0.000 A 
ATOM     45  C   UNL     1       2.241   2.764  65.854  0.00  0.00    +0.000 A 
ATOM     46  C   UNL     1       4.233   1.765  64.926  0.00  0.00    +0.000 A 
ATOM     47  C   UNL     1       3.206   1.761  65.867  0.00  0.00    +0.000 A 
ENDBRANCH  41  42
ENDBRANCH  39  41
ENDBRANCH  16  39
BRANCH   9  48
ATOM     48  C   UNL     1      10.345   5.379  57.677  0.00  0.00    +0.000 C 
BRANCH  48  49
ATOM     49  O   UNL     1      11.604   5.731  57.429  0.00  0.00    +0.000 OA
ATOM     50  H   UNL     1      11.718   6.690  57.546  0.00  0.00    +0.000 HD
ENDBRANCH  48  49
ENDBRANCH   9  48
TORSDOF 12
ENDMDL
MODEL 9
REMARK VINA RESULT:      -3.8     14.210     18.101
REMARK  Name = 5358691_Yuanhuacine.pdbqt.pdb
REMARK  12 active torsions:
REMARK  status: ('A' for Active; 'I' for Inactive)
REMARK    1  A    between atoms: C_9  and  C_48
REMARK    2  A    between atoms: C_13  and  C_23
REMARK    3  A    between atoms: C_14  and  O_26
REMARK    4  A    between atoms: C_15  and  O_28
REMARK    5  A    between atoms: C_16  and  O_39
REMARK    6  A    between atoms: C_17  and  C_30
REMARK    7  A    between atoms: C_31  and  C_32
REMARK    8  A    between atoms: C_33  and  C_34
REMARK    9  A    between atoms: C_35  and  C_36
REMARK   10  A    between atoms: O_39  and  C_41
REMARK   11  A    between atoms: C_41  and  C_42
REMARK   12  A    between atoms: C_48  and  O_49
REMARK                            x       y       z     vdW  Elec       q    Type
REMARK                         _______ _______ _______ _____ _____    ______ ____
ROOT
ATOM      1  O   UNL     1      15.471   5.333  49.892  0.00  0.00    +0.000 OA
ATOM      2  O   UNL     1      18.352   5.661  51.856  0.00  0.00    +0.000 OA
ATOM      3  O   UNL     1      17.821   7.624  50.632  0.00  0.00    +0.000 OA
ATOM      4  O   UNL     1      20.009   7.224  51.191  0.00  0.00    +0.000 OA
ATOM      5  O   UNL     1      16.638   0.269  50.222  0.00  0.00    +0.000 OA
ATOM      6  C   UNL     1      17.762   5.651  49.498  0.00  0.00    +0.000 C 
ATOM      7  C   UNL     1      18.376   4.840  50.648  0.00  0.00    +0.000 C 
ATOM      8  C   UNL     1      16.450   5.479  48.942  0.00  0.00    +0.000 C 
ATOM      9  C   UNL     1      15.500   4.370  48.830  0.00  0.00    +0.000 C 
ATOM     10  C   UNL     1      18.401   6.972  49.545  0.00  0.00    +0.000 C 
ATOM     11  C   UNL     1      17.595   3.597  50.944  0.00  0.00    +0.000 C 
ATOM     12  C   UNL     1      19.861   4.524  50.295  0.00  0.00    +0.000 C 
ATOM     13  C   UNL     1      19.935   6.991  49.756  0.00  0.00    +0.000 C 
ATOM     14  C   UNL     1      17.205   2.635  49.844  0.00  0.00    +0.000 C 
ATOM     15  C   UNL     1      15.957   2.977  49.084  0.00  0.00    +0.000 C 
ATOM     16  C   UNL     1      20.538   5.606  49.599  0.00  0.00    +0.000 C 
ATOM     17  C   UNL     1      18.666   7.059  51.641  0.00  0.00    +0.000 C 
ATOM     18  C   UNL     1      17.514   2.917  52.186  0.00  0.00    +0.000 C 
ATOM     19  C   UNL     1      20.678   3.337  50.807  0.00  0.00    +0.000 C 
ATOM     20  C   UNL     1      16.976   1.347  50.703  0.00  0.00    +0.000 C 
ATOM     21  C   UNL     1      17.210   1.663  52.150  0.00  0.00    +0.000 C 
ATOM     22  C   UNL     1      16.669   0.905  53.317  0.00  0.00    +0.000 C 
ENDROOT
BRANCH  13  23
ATOM     23  C   UNL     1      20.566   8.132  48.925  0.00  0.00    +0.000 C 
ATOM     24  C   UNL     1      21.944   8.733  49.200  0.00  0.00    +0.000 C 
ATOM     25  C   UNL     1      19.868   8.902  48.065  0.00  0.00    +0.000 C 
ENDBRANCH  13  23
BRANCH  14  26
ATOM     26  O   UNL     1      18.253   2.476  48.910  0.00  0.00    +0.000 OA
ATOM     27  H   UNL     1      17.862   2.566  48.018  0.00  0.00    +0.000 HD
ENDBRANCH  14  26
BRANCH  15  28
ATOM     28  O   UNL     1      15.305   1.926  48.435  0.00  0.00    +0.000 OA
ATOM     29  H   UNL     1      15.898   1.237  48.065  0.00  0.00    +0.000 HD
ENDBRANCH  15  28
BRANCH  17  30
ATOM     30  C   UNL     1      18.483   7.780  52.897  0.00  0.00    +0.000 C 
ATOM     31  C   UNL     1      18.332   8.372  53.930  0.00  0.00    +0.000 C 
BRANCH  31  32
ATOM     32  C   UNL     1      18.138   9.127  55.248  0.00  0.00    +0.000 C 
ATOM     33  C   UNL     1      17.985   9.718  56.281  0.00  0.00    +0.000 C 
BRANCH  33  34
ATOM     34  C   UNL     1      17.787  10.474  57.599  0.00  0.00    +0.000 C 
ATOM     35  C   UNL     1      17.591  11.230  58.915  0.00  0.00    +0.000 C 
BRANCH  35  36
ATOM     36  C   UNL     1      17.393  11.988  60.233  0.00  0.00    +0.000 C 
ATOM     37  C   UNL     1      17.197  12.744  61.549  0.00  0.00    +0.000 C 
ATOM     38  C   UNL     1      17.001  13.501  62.867  0.00  0.00    +0.000 C 
ENDBRANCH  35  36
ENDBRANCH  33  34
ENDBRANCH  31  32
ENDBRANCH  17  30
BRANCH  16  39
ATOM     39  O   UNL     1      21.708   5.302  48.882  0.00  0.00    +0.000 OA
BRANCH  39  41
ATOM     40  O   UNL     1      21.617   3.436  47.545  0.00  0.00    +0.000 OA
ATOM     41  C   UNL     1      21.491   4.638  47.709  0.00  0.00    +0.000 C 
BRANCH  41  42
ATOM     42  C   UNL     1      21.121   5.587  46.644  0.00  0.00    +0.000 A 
ATOM     43  C   UNL     1      19.821   5.651  46.142  0.00  0.00    +0.000 A 
ATOM     44  C   UNL     1      22.109   6.432  46.141  0.00  0.00    +0.000 A 
ATOM     45  C   UNL     1      19.511   6.562  45.136  0.00  0.00    +0.000 A 
ATOM     46  C   UNL     1      21.795   7.343  45.136  0.00  0.00    +0.000 A 
ATOM     47  C   UNL     1      20.497   7.407  44.634  0.00  0.00    +0.000 A 
ENDBRANCH  41  42
ENDBRANCH  39  41
ENDBRANCH  16  39
BRANCH   9  48
ATOM     48  C   UNL     1      14.336   4.552  47.973  0.00  0.00    +0.000 C 
BRANCH  48  49
ATOM     49  O   UNL     1      13.275   4.723  47.189  0.00  0.00    +0.000 OA
ATOM     50  H   UNL     1      13.197   5.656  46.921  0.00  0.00    +0.000 HD
ENDBRANCH  48  49
ENDBRANCH   9  48
TORSDOF 12
ENDMDL
