MODEL 1
REMARK VINA RESULT:      -3.3      0.000      0.000
REMARK  Name = 5386_Tegafur.pdbqt.pdb
REMARK  1 active torsions:
REMARK  status: ('A' for Active; 'I' for Inactive)
REMARK    1  A    between atoms: N_4  and  C_12
REMARK                            x       y       z     vdW  Elec       q    Type
REMARK                         _______ _______ _______ _____ _____    ______ ____
ROOT
ATOM      1  F   UNL     1      14.827   6.952  72.864  0.00  0.00    +0.000 F 
ATOM      2  O   UNL     1      14.240   8.087  67.584  0.00  0.00    +0.000 OA
ATOM      3  O   UNL     1      13.126   9.015  71.941  0.00  0.00    +0.000 OA
ATOM      4  N   UNL     1      15.421   6.959  69.296  0.00  0.00    +0.000 N 
ATOM      5  N   UNL     1      13.782   8.572  69.779  0.00  0.00    +0.000 N 
ATOM      6  C   UNL     1      14.482   7.874  68.767  0.00  0.00    +0.000 C 
ATOM      7  C   UNL     1      15.513   6.877  70.639  0.00  0.00    +0.000 C 
ATOM      8  C   UNL     1      14.929   7.466  71.627  0.00  0.00    +0.000 C 
ATOM      9  C   UNL     1      13.870   8.422  71.169  0.00  0.00    +0.000 C 
ATOM     10  H   UNL     1      13.072   9.210  69.449  0.00  0.00    +0.000 HD
ENDROOT
BRANCH   4  12
ATOM     11  O   UNL     1      15.713   5.187  67.663  0.00  0.00    +0.000 OA
ATOM     12  C   UNL     1      16.221   6.162  68.529  0.00  0.00    +0.000 C 
ATOM     13  C   UNL     1      17.639   6.136  68.445  0.00  0.00    +0.000 C 
ATOM     14  C   UNL     1      18.384   5.164  67.528  0.00  0.00    +0.000 C 
ATOM     15  C   UNL     1      16.927   4.795  67.255  0.00  0.00    +0.000 C 
ENDBRANCH   4  12
TORSDOF 1
ENDMDL
MODEL 2
REMARK VINA RESULT:      -3.1     12.094     13.181
REMARK  Name = 5386_Tegafur.pdbqt.pdb
REMARK  1 active torsions:
REMARK  status: ('A' for Active; 'I' for Inactive)
REMARK    1  A    between atoms: N_4  and  C_12
REMARK                            x       y       z     vdW  Elec       q    Type
REMARK                         _______ _______ _______ _____ _____    ______ ____
ROOT
ATOM      1  F   UNL     1       2.245   9.325  69.773  0.00  0.00    +0.000 F 
ATOM      2  O   UNL     1       5.405   9.722  74.173  0.00  0.00    +0.000 OA
ATOM      3  O   UNL     1       4.119  11.418  70.105  0.00  0.00    +0.000 OA
ATOM      4  N   UNL     1       3.550   8.727  73.093  0.00  0.00    +0.000 N 
ATOM      5  N   UNL     1       4.668  10.581  72.178  0.00  0.00    +0.000 N 
ATOM      6  C   UNL     1       4.601   9.660  73.250  0.00  0.00    +0.000 C 
ATOM      7  C   UNL     1       2.789   8.836  71.985  0.00  0.00    +0.000 C 
ATOM      8  C   UNL     1       2.772   9.631  70.970  0.00  0.00    +0.000 C 
ATOM      9  C   UNL     1       3.889  10.630  71.014  0.00  0.00    +0.000 C 
ATOM     10  H   UNL     1       5.428  11.244  72.227  0.00  0.00    +0.000 HD
ENDROOT
BRANCH   4  12
ATOM     11  O   UNL     1       3.997   6.535  74.036  0.00  0.00    +0.000 OA
ATOM     12  C   UNL     1       3.276   7.734  73.988  0.00  0.00    +0.000 C 
ATOM     13  C   UNL     1       2.270   7.688  74.991  0.00  0.00    +0.000 C 
ATOM     14  C   UNL     1       2.094   6.481  75.915  0.00  0.00    +0.000 C 
ATOM     15  C   UNL     1       3.272   6.040  75.048  0.00  0.00    +0.000 C 
ENDBRANCH   4  12
TORSDOF 1
ENDMDL
MODEL 3
REMARK VINA RESULT:      -3.0     12.766     13.524
REMARK  Name = 5386_Tegafur.pdbqt.pdb
REMARK  1 active torsions:
REMARK  status: ('A' for Active; 'I' for Inactive)
REMARK    1  A    between atoms: N_4  and  C_12
REMARK                            x       y       z     vdW  Elec       q    Type
REMARK                         _______ _______ _______ _____ _____    ______ ____
ROOT
ATOM      1  F   UNL     1       4.277   8.248  78.795  0.00  0.00    +0.000 F 
ATOM      2  O   UNL     1       4.549   5.006  74.446  0.00  0.00    +0.000 OA
ATOM      3  O   UNL     1       5.205   5.581  78.954  0.00  0.00    +0.000 OA
ATOM      4  N   UNL     1       3.783   7.016  75.431  0.00  0.00    +0.000 N 
ATOM      5  N   UNL     1       4.776   5.311  76.708  0.00  0.00    +0.000 N 
ATOM      6  C   UNL     1       4.370   5.730  75.419  0.00  0.00    +0.000 C 
ATOM      7  C   UNL     1       3.698   7.643  76.622  0.00  0.00    +0.000 C 
ATOM      8  C   UNL     1       4.032   7.346  77.831  0.00  0.00    +0.000 C 
ATOM      9  C   UNL     1       4.718   6.016  77.918  0.00  0.00    +0.000 C 
ATOM     10  H   UNL     1       5.237   4.413  76.743  0.00  0.00    +0.000 HD
ENDROOT
BRANCH   4  12
ATOM     11  O   UNL     1       3.973   7.604  73.084  0.00  0.00    +0.000 OA
ATOM     12  C   UNL     1       3.310   7.646  74.316  0.00  0.00    +0.000 C 
ATOM     13  C   UNL     1       2.137   8.433  74.164  0.00  0.00    +0.000 C 
ATOM     14  C   UNL     1       1.756   9.079  72.831  0.00  0.00    +0.000 C 
ATOM     15  C   UNL     1       3.059   8.368  72.470  0.00  0.00    +0.000 C 
ENDBRANCH   4  12
TORSDOF 1
ENDMDL
MODEL 4
REMARK VINA RESULT:      -2.9     12.481     13.794
REMARK  Name = 5386_Tegafur.pdbqt.pdb
REMARK  1 active torsions:
REMARK  status: ('A' for Active; 'I' for Inactive)
REMARK    1  A    between atoms: N_4  and  C_12
REMARK                            x       y       z     vdW  Elec       q    Type
REMARK                         _______ _______ _______ _____ _____    ______ ____
ROOT
ATOM      1  F   UNL     1       0.463   8.455  77.199  0.00  0.00    +0.000 F 
ATOM      2  O   UNL     1       3.843   7.412  73.076  0.00  0.00    +0.000 OA
ATOM      3  O   UNL     1       0.121   9.603  74.636  0.00  0.00    +0.000 OA
ATOM      4  N   UNL     1       3.367   7.282  75.390  0.00  0.00    +0.000 N 
ATOM      5  N   UNL     1       2.043   8.554  73.924  0.00  0.00    +0.000 N 
ATOM      6  C   UNL     1       3.169   7.707  74.057  0.00  0.00    +0.000 C 
ATOM      7  C   UNL     1       2.490   7.722  76.315  0.00  0.00    +0.000 C 
ATOM      8  C   UNL     1       1.452   8.487  76.290  0.00  0.00    +0.000 C 
ATOM      9  C   UNL     1       1.122   8.948  74.903  0.00  0.00    +0.000 C 
ATOM     10  H   UNL     1       1.838   8.852  72.981  0.00  0.00    +0.000 HD
ENDROOT
BRANCH   4  12
ATOM     11  O   UNL     1       5.665   6.928  76.089  0.00  0.00    +0.000 OA
ATOM     12  C   UNL     1       4.383   6.458  75.782  0.00  0.00    +0.000 C 
ATOM     13  C   UNL     1       4.375   5.047  75.946  0.00  0.00    +0.000 C 
ATOM     14  C   UNL     1       5.617   4.271  76.390  0.00  0.00    +0.000 C 
ATOM     15  C   UNL     1       6.138   5.706  76.368  0.00  0.00    +0.000 C 
ENDBRANCH   4  12
TORSDOF 1
ENDMDL
MODEL 5
REMARK VINA RESULT:      -2.9     11.441     12.788
REMARK  Name = 5386_Tegafur.pdbqt.pdb
REMARK  1 active torsions:
REMARK  status: ('A' for Active; 'I' for Inactive)
REMARK    1  A    between atoms: N_4  and  C_12
REMARK                            x       y       z     vdW  Elec       q    Type
REMARK                         _______ _______ _______ _____ _____    ______ ____
ROOT
ATOM      1  F   UNL     1       5.934  11.912  73.628  0.00  0.00    +0.000 F 
ATOM      2  O   UNL     1       2.773   8.258  71.146  0.00  0.00    +0.000 OA
ATOM      3  O   UNL     1       5.597  11.864  70.820  0.00  0.00    +0.000 OA
ATOM      4  N   UNL     1       3.882   8.979  73.107  0.00  0.00    +0.000 N 
ATOM      5  N   UNL     1       4.257  10.002  71.025  0.00  0.00    +0.000 N 
ATOM      6  C   UNL     1       3.560   8.994  71.731  0.00  0.00    +0.000 C 
ATOM      7  C   UNL     1       4.771   9.895  73.542  0.00  0.00    +0.000 C 
ATOM      8  C   UNL     1       5.451  10.838  72.983  0.00  0.00    +0.000 C 
ATOM      9  C   UNL     1       5.138  10.972  71.523  0.00  0.00    +0.000 C 
ATOM     10  H   UNL     1       4.030  10.077  70.044  0.00  0.00    +0.000 HD
ENDROOT
BRANCH   4  12
ATOM     11  O   UNL     1       3.948   6.885  74.333  0.00  0.00    +0.000 OA
ATOM     12  C   UNL     1       3.342   8.104  74.004  0.00  0.00    +0.000 C 
ATOM     13  C   UNL     1       2.135   8.214  74.746  0.00  0.00    +0.000 C 
ATOM     14  C   UNL     1       1.670   7.125  75.714  0.00  0.00    +0.000 C 
ATOM     15  C   UNL     1       2.980   6.538  75.191  0.00  0.00    +0.000 C 
ENDBRANCH   4  12
TORSDOF 1
ENDMDL
MODEL 6
REMARK VINA RESULT:      -2.9     11.402     13.189
REMARK  Name = 5386_Tegafur.pdbqt.pdb
REMARK  1 active torsions:
REMARK  status: ('A' for Active; 'I' for Inactive)
REMARK    1  A    between atoms: N_4  and  C_12
REMARK                            x       y       z     vdW  Elec       q    Type
REMARK                         _______ _______ _______ _____ _____    ______ ____
ROOT
ATOM      1  F   UNL     1       3.140   6.716  74.314  0.00  0.00    +0.000 F 
ATOM      2  O   UNL     1       4.430   3.975  78.822  0.00  0.00    +0.000 OA
ATOM      3  O   UNL     1       1.177   5.608  76.023  0.00  0.00    +0.000 OA
ATOM      4  N   UNL     1       5.113   4.952  76.779  0.00  0.00    +0.000 N 
ATOM      5  N   UNL     1       2.844   4.733  77.349  0.00  0.00    +0.000 N 
ATOM      6  C   UNL     1       4.183   4.503  77.744  0.00  0.00    +0.000 C 
ATOM      7  C   UNL     1       4.616   5.519  75.661  0.00  0.00    +0.000 C 
ATOM      8  C   UNL     1       3.430   5.766  75.217  0.00  0.00    +0.000 C 
ATOM      9  C   UNL     1       2.367   5.374  76.198  0.00  0.00    +0.000 C 
ATOM     10  H   UNL     1       2.143   4.463  78.025  0.00  0.00    +0.000 HD
ENDROOT
BRANCH   4  12
ATOM     11  O   UNL     1       7.307   5.963  77.012  0.00  0.00    +0.000 OA
ATOM     12  C   UNL     1       6.466   4.848  76.922  0.00  0.00    +0.000 C 
ATOM     13  C   UNL     1       7.270   3.678  76.998  0.00  0.00    +0.000 C 
ATOM     14  C   UNL     1       8.790   3.742  77.153  0.00  0.00    +0.000 C 
ATOM     15  C   UNL     1       8.418   5.223  77.121  0.00  0.00    +0.000 C 
ENDBRANCH   4  12
TORSDOF 1
ENDMDL
MODEL 7
REMARK VINA RESULT:      -2.9     13.694     14.945
REMARK  Name = 5386_Tegafur.pdbqt.pdb
REMARK  1 active torsions:
REMARK  status: ('A' for Active; 'I' for Inactive)
REMARK    1  A    between atoms: N_4  and  C_12
REMARK                            x       y       z     vdW  Elec       q    Type
REMARK                         _______ _______ _______ _____ _____    ______ ____
ROOT
ATOM      1  F   UNL     1      10.085   1.641  58.806  0.00  0.00    +0.000 F 
ATOM      2  O   UNL     1       6.347   4.254  55.855  0.00  0.00    +0.000 OA
ATOM      3  O   UNL     1       9.048   0.581  56.397  0.00  0.00    +0.000 OA
ATOM      4  N   UNL     1       7.554   4.054  57.880  0.00  0.00    +0.000 N 
ATOM      5  N   UNL     1       7.648   2.399  56.214  0.00  0.00    +0.000 N 
ATOM      6  C   UNL     1       7.106   3.648  56.602  0.00  0.00    +0.000 C 
ATOM      7  C   UNL     1       8.405   3.230  58.526  0.00  0.00    +0.000 C 
ATOM      8  C   UNL     1       8.943   2.089  58.259  0.00  0.00    +0.000 C 
ATOM      9  C   UNL     1       8.572   1.595  56.893  0.00  0.00    +0.000 C 
ATOM     10  H   UNL     1       7.386   2.086  55.290  0.00  0.00    +0.000 HD
ENDROOT
BRANCH   4  12
ATOM     11  O   UNL     1       5.989   5.352  59.206  0.00  0.00    +0.000 OA
ATOM     12  C   UNL     1       7.179   5.220  58.481  0.00  0.00    +0.000 C 
ATOM     13  C   UNL     1       7.852   6.472  58.501  0.00  0.00    +0.000 C 
ATOM     14  C   UNL     1       7.282   7.693  59.225  0.00  0.00    +0.000 C 
ATOM     15  C   UNL     1       6.209   6.640  59.498  0.00  0.00    +0.000 C 
ENDBRANCH   4  12
TORSDOF 1
ENDMDL
MODEL 8
REMARK VINA RESULT:      -2.9     13.846     14.833
REMARK  Name = 5386_Tegafur.pdbqt.pdb
REMARK  1 active torsions:
REMARK  status: ('A' for Active; 'I' for Inactive)
REMARK    1  A    between atoms: N_4  and  C_12
REMARK                            x       y       z     vdW  Elec       q    Type
REMARK                         _______ _______ _______ _____ _____    ______ ____
ROOT
ATOM      1  F   UNL     1       1.648   7.856  63.449  0.00  0.00    +0.000 F 
ATOM      2  O   UNL     1       2.130   4.832  67.935  0.00  0.00    +0.000 OA
ATOM      3  O   UNL     1       2.760   5.255  63.407  0.00  0.00    +0.000 OA
ATOM      4  N   UNL     1       1.695   6.937  66.947  0.00  0.00    +0.000 N 
ATOM      5  N   UNL     1       2.506   5.123  65.692  0.00  0.00    +0.000 N 
ATOM      6  C   UNL     1       2.105   5.584  66.968  0.00  0.00    +0.000 C 
ATOM      7  C   UNL     1       1.737   7.576  65.760  0.00  0.00    +0.000 C 
ATOM      8  C   UNL     1       2.085   7.245  64.563  0.00  0.00    +0.000 C 
ATOM      9  C   UNL     1       2.486   5.804  64.467  0.00  0.00    +0.000 C 
ATOM     10  H   UNL     1       2.771   4.150  65.649  0.00  0.00    +0.000 HD
ENDROOT
BRANCH   4  12
ATOM     11  O   UNL     1      -0.089   7.913  68.273  0.00  0.00    +0.000 OA
ATOM     12  C   UNL     1       1.261   7.616  68.048  0.00  0.00    +0.000 C 
ATOM     13  C   UNL     1       2.017   8.143  69.129  0.00  0.00    +0.000 C 
ATOM     14  C   UNL     1       1.365   8.892  70.293  0.00  0.00    +0.000 C 
ATOM     15  C   UNL     1       0.155   8.546  69.428  0.00  0.00    +0.000 C 
ENDBRANCH   4  12
TORSDOF 1
ENDMDL
MODEL 9
REMARK VINA RESULT:      -2.7      2.356      2.627
REMARK  Name = 5386_Tegafur.pdbqt.pdb
REMARK  1 active torsions:
REMARK  status: ('A' for Active; 'I' for Inactive)
REMARK    1  A    between atoms: N_4  and  C_12
REMARK                            x       y       z     vdW  Elec       q    Type
REMARK                         _______ _______ _______ _____ _____    ______ ____
ROOT
ATOM      1  F   UNL     1      15.352   9.248  72.427  0.00  0.00    +0.000 F 
ATOM      2  O   UNL     1      13.863   8.500  67.257  0.00  0.00    +0.000 OA
ATOM      3  O   UNL     1      12.641   9.021  71.652  0.00  0.00    +0.000 OA
ATOM      4  N   UNL     1      15.553   9.042  68.821  0.00  0.00    +0.000 N 
ATOM      5  N   UNL     1      13.297   8.853  69.452  0.00  0.00    +0.000 N 
ATOM      6  C   UNL     1      14.232   8.777  68.393  0.00  0.00    +0.000 C 
ATOM      7  C   UNL     1      15.733   9.315  70.130  0.00  0.00    +0.000 C 
ATOM      8  C   UNL     1      14.954   9.408  71.154  0.00  0.00    +0.000 C 
ATOM      9  C   UNL     1      13.530   9.089  70.813  0.00  0.00    +0.000 C 
ATOM     10  H   UNL     1      12.343   8.632  69.201  0.00  0.00    +0.000 HD
ENDROOT
BRANCH   4  12
ATOM     11  O   UNL     1      17.104   7.866  67.372  0.00  0.00    +0.000 OA
ATOM     12  C   UNL     1      16.637   9.030  67.993  0.00  0.00    +0.000 C 
ATOM     13  C   UNL     1      17.480  10.108  67.608  0.00  0.00    +0.000 C 
ATOM     14  C   UNL     1      18.670   9.916  66.666  0.00  0.00    +0.000 C 
ATOM     15  C   UNL     1      18.113   8.496  66.757  0.00  0.00    +0.000 C 
ENDBRANCH   4  12
TORSDOF 1
ENDMDL
