MODEL 1
REMARK VINA RESULT:      -4.4      0.000      0.000
REMARK  Name = 5470187_Zerumbone.pdbqt.pdb
REMARK  0 active torsions:
REMARK  status: ('A' for Active; 'I' for Inactive)
REMARK                            x       y       z     vdW  Elec       q    Type
REMARK                         _______ _______ _______ _____ _____    ______ ____
ROOT
ATOM      1  O   UNL     1      21.330   3.389  52.969  0.00  0.00    +0.000 OA
ATOM      2  C   UNL     1      17.145   0.867  53.010  0.00  0.00    +0.000 C 
ATOM      3  C   UNL     1      16.976  -0.074  54.143  0.00  0.00    +0.000 C 
ATOM      4  C   UNL     1      16.021   1.931  53.032  0.00  0.00    +0.000 C 
ATOM      5  C   UNL     1      17.132   0.079  51.676  0.00  0.00    +0.000 C 
ATOM      6  C   UNL     1      18.478   1.524  53.199  0.00  0.00    +0.000 C 
ATOM      7  C   UNL     1      17.188  -0.899  55.426  0.00  0.00    +0.000 C 
ATOM      8  C   UNL     1      17.740  -1.364  56.507  0.00  0.00    +0.000 C 
ATOM      9  C   UNL     1      19.023  -0.796  56.712  0.00  0.00    +0.000 C 
ATOM     10  C   UNL     1      20.225   0.109  56.427  0.00  0.00    +0.000 C 
ATOM     11  C   UNL     1      19.564   1.999  53.426  0.00  0.00    +0.000 C 
ATOM     12  C   UNL     1      16.898  -1.761  57.674  0.00  0.00    +0.000 C 
ATOM     13  C   UNL     1      21.090   1.154  55.718  0.00  0.00    +0.000 C 
ATOM     14  C   UNL     1      21.635   2.056  54.954  0.00  0.00    +0.000 C 
ATOM     15  C   UNL     1      20.887   2.543  53.738  0.00  0.00    +0.000 C 
ATOM     16  C   UNL     1      23.007   2.550  55.344  0.00  0.00    +0.000 C 
ENDROOT
TORSDOF 0
ENDMDL
MODEL 2
REMARK VINA RESULT:      -4.3      2.175      4.641
REMARK  Name = 5470187_Zerumbone.pdbqt.pdb
REMARK  0 active torsions:
REMARK  status: ('A' for Active; 'I' for Inactive)
REMARK                            x       y       z     vdW  Elec       q    Type
REMARK                         _______ _______ _______ _____ _____    ______ ____
ROOT
ATOM      1  O   UNL     1      20.495   0.461  55.480  0.00  0.00    +0.000 OA
ATOM      2  C   UNL     1      16.473  -1.982  56.795  0.00  0.00    +0.000 C 
ATOM      3  C   UNL     1      15.259  -1.695  55.994  0.00  0.00    +0.000 C 
ATOM      4  C   UNL     1      16.843  -3.480  56.680  0.00  0.00    +0.000 C 
ATOM      5  C   UNL     1      16.224  -1.589  58.273  0.00  0.00    +0.000 C 
ATOM      6  C   UNL     1      17.569  -1.136  56.223  0.00  0.00    +0.000 C 
ATOM      7  C   UNL     1      14.270  -1.134  54.957  0.00  0.00    +0.000 C 
ATOM      8  C   UNL     1      13.797  -0.445  53.961  0.00  0.00    +0.000 C 
ATOM      9  C   UNL     1      14.792   0.400  53.405  0.00  0.00    +0.000 C 
ATOM     10  C   UNL     1      16.181   1.019  53.239  0.00  0.00    +0.000 C 
ATOM     11  C   UNL     1      18.390  -0.420  55.703  0.00  0.00    +0.000 C 
ATOM     12  C   UNL     1      12.720  -1.011  53.096  0.00  0.00    +0.000 C 
ATOM     13  C   UNL     1      17.668   1.283  53.495  0.00  0.00    +0.000 C 
ATOM     14  C   UNL     1      18.905   1.337  53.894  0.00  0.00    +0.000 C 
ATOM     15  C   UNL     1      19.349   0.469  55.045  0.00  0.00    +0.000 C 
ATOM     16  C   UNL     1      19.821   2.292  53.166  0.00  0.00    +0.000 C 
ENDROOT
TORSDOF 0
ENDMDL
MODEL 3
REMARK VINA RESULT:      -4.2      1.458      1.991
REMARK  Name = 5470187_Zerumbone.pdbqt.pdb
REMARK  0 active torsions:
REMARK  status: ('A' for Active; 'I' for Inactive)
REMARK                            x       y       z     vdW  Elec       q    Type
REMARK                         _______ _______ _______ _____ _____    ______ ____
ROOT
ATOM      1  O   UNL     1      18.656   2.694  51.753  0.00  0.00    +0.000 OA
ATOM      2  C   UNL     1      15.638  -0.627  53.687  0.00  0.00    +0.000 C 
ATOM      3  C   UNL     1      16.098  -1.252  54.950  0.00  0.00    +0.000 C 
ATOM      4  C   UNL     1      14.300   0.115  53.919  0.00  0.00    +0.000 C 
ATOM      5  C   UNL     1      15.481  -1.717  52.597  0.00  0.00    +0.000 C 
ATOM      6  C   UNL     1      16.702   0.346  53.282  0.00  0.00    +0.000 C 
ATOM      7  C   UNL     1      16.912  -1.640  56.197  0.00  0.00    +0.000 C 
ATOM      8  C   UNL     1      17.866  -1.665  57.079  0.00  0.00    +0.000 C 
ATOM      9  C   UNL     1      18.917  -0.783  56.722  0.00  0.00    +0.000 C 
ATOM     10  C   UNL     1      19.650   0.268  55.885  0.00  0.00    +0.000 C 
ATOM     11  C   UNL     1      17.609   1.102  53.029  0.00  0.00    +0.000 C 
ATOM     12  C   UNL     1      17.560  -1.928  58.517  0.00  0.00    +0.000 C 
ATOM     13  C   UNL     1      19.913   1.263  54.750  0.00  0.00    +0.000 C 
ATOM     14  C   UNL     1      19.912   2.034  53.702  0.00  0.00    +0.000 C 
ATOM     15  C   UNL     1      18.734   2.000  52.761  0.00  0.00    +0.000 C 
ATOM     16  C   UNL     1      21.120   2.916  53.497  0.00  0.00    +0.000 C 
ENDROOT
TORSDOF 0
ENDMDL
MODEL 4
REMARK VINA RESULT:      -4.2     18.702     21.499
REMARK  Name = 5470187_Zerumbone.pdbqt.pdb
REMARK  0 active torsions:
REMARK  status: ('A' for Active; 'I' for Inactive)
REMARK                            x       y       z     vdW  Elec       q    Type
REMARK                         _______ _______ _______ _____ _____    ______ ____
ROOT
ATOM      1  O   UNL     1      14.001   5.559  74.323  0.00  0.00    +0.000 OA
ATOM      2  C   UNL     1      13.072   0.931  73.062  0.00  0.00    +0.000 C 
ATOM      3  C   UNL     1      11.884   0.319  73.704  0.00  0.00    +0.000 C 
ATOM      4  C   UNL     1      12.892   0.950  71.525  0.00  0.00    +0.000 C 
ATOM      5  C   UNL     1      14.342   0.139  73.458  0.00  0.00    +0.000 C 
ATOM      6  C   UNL     1      13.162   2.332  73.585  0.00  0.00    +0.000 C 
ATOM      7  C   UNL     1      10.626   0.071  74.555  0.00  0.00    +0.000 C 
ATOM      8  C   UNL     1       9.645   0.279  75.382  0.00  0.00    +0.000 C 
ATOM      9  C   UNL     1       9.707   1.584  75.932  0.00  0.00    +0.000 C 
ATOM     10  C   UNL     1      10.250   2.999  76.143  0.00  0.00    +0.000 C 
ATOM     11  C   UNL     1      13.163   3.441  74.061  0.00  0.00    +0.000 C 
ATOM     12  C   UNL     1       8.325  -0.387  75.170  0.00  0.00    +0.000 C 
ATOM     13  C   UNL     1      11.154   4.223  75.972  0.00  0.00    +0.000 C 
ATOM     14  C   UNL     1      12.047   5.119  75.663  0.00  0.00    +0.000 C 
ATOM     15  C   UNL     1      13.125   4.774  74.667  0.00  0.00    +0.000 C 
ATOM     16  C   UNL     1      11.940   6.460  76.348  0.00  0.00    +0.000 C 
ENDROOT
TORSDOF 0
ENDMDL
MODEL 5
REMARK VINA RESULT:      -4.2      2.096      4.598
REMARK  Name = 5470187_Zerumbone.pdbqt.pdb
REMARK  0 active torsions:
REMARK  status: ('A' for Active; 'I' for Inactive)
REMARK                            x       y       z     vdW  Elec       q    Type
REMARK                         _______ _______ _______ _____ _____    ______ ____
ROOT
ATOM      1  O   UNL     1      18.656  -1.151  56.740  0.00  0.00    +0.000 OA
ATOM      2  C   UNL     1      17.238   1.257  52.731  0.00  0.00    +0.000 C 
ATOM      3  C   UNL     1      18.200   2.257  52.211  0.00  0.00    +0.000 C 
ATOM      4  C   UNL     1      16.978   0.166  51.665  0.00  0.00    +0.000 C 
ATOM      5  C   UNL     1      15.918   1.965  53.128  0.00  0.00    +0.000 C 
ATOM      6  C   UNL     1      17.872   0.648  53.944  0.00  0.00    +0.000 C 
ATOM      7  C   UNL     1      19.431   3.159  52.007  0.00  0.00    +0.000 C 
ATOM      8  C   UNL     1      20.598   3.701  52.192  0.00  0.00    +0.000 C 
ATOM      9  C   UNL     1      21.226   3.180  53.352  0.00  0.00    +0.000 C 
ATOM     10  C   UNL     1      21.386   2.294  54.589  0.00  0.00    +0.000 C 
ATOM     11  C   UNL     1      18.454   0.216  54.910  0.00  0.00    +0.000 C 
ATOM     12  C   UNL     1      21.418   4.143  51.026  0.00  0.00    +0.000 C 
ATOM     13  C   UNL     1      21.048   1.233  55.640  0.00  0.00    +0.000 C 
ATOM     14  C   UNL     1      20.549   0.303  56.402  0.00  0.00    +0.000 C 
ATOM     15  C   UNL     1      19.195  -0.274  56.074  0.00  0.00    +0.000 C 
ATOM     16  C   UNL     1      21.376  -0.130  57.589  0.00  0.00    +0.000 C 
ENDROOT
TORSDOF 0
ENDMDL
MODEL 6
REMARK VINA RESULT:      -4.1      1.450      2.078
REMARK  Name = 5470187_Zerumbone.pdbqt.pdb
REMARK  0 active torsions:
REMARK  status: ('A' for Active; 'I' for Inactive)
REMARK                            x       y       z     vdW  Elec       q    Type
REMARK                         _______ _______ _______ _____ _____    ______ ____
ROOT
ATOM      1  O   UNL     1      20.037   4.820  51.211  0.00  0.00    +0.000 OA
ATOM      2  C   UNL     1      17.139   1.215  52.786  0.00  0.00    +0.000 C 
ATOM      3  C   UNL     1      17.662   0.424  53.925  0.00  0.00    +0.000 C 
ATOM      4  C   UNL     1      15.808   1.899  53.182  0.00  0.00    +0.000 C 
ATOM      5  C   UNL     1      16.939   0.290  51.560  0.00  0.00    +0.000 C 
ATOM      6  C   UNL     1      18.176   2.252  52.476  0.00  0.00    +0.000 C 
ATOM      7  C   UNL     1      18.537  -0.126  55.066  0.00  0.00    +0.000 C 
ATOM      8  C   UNL     1      19.532  -0.263  55.891  0.00  0.00    +0.000 C 
ATOM      9  C   UNL     1      20.558   0.677  55.616  0.00  0.00    +0.000 C 
ATOM     10  C   UNL     1      21.243   1.846  54.905  0.00  0.00    +0.000 C 
ATOM     11  C   UNL     1      19.064   3.048  52.293  0.00  0.00    +0.000 C 
ATOM     12  C   UNL     1      19.295  -0.731  57.289  0.00  0.00    +0.000 C 
ATOM     13  C   UNL     1      21.445   2.996  53.913  0.00  0.00    +0.000 C 
ATOM     14  C   UNL     1      21.388   3.908  52.987  0.00  0.00    +0.000 C 
ATOM     15  C   UNL     1      20.168   3.991  52.105  0.00  0.00    +0.000 C 
ATOM     16  C   UNL     1      22.579   4.827  52.855  0.00  0.00    +0.000 C 
ENDROOT
TORSDOF 0
ENDMDL
MODEL 7
REMARK VINA RESULT:      -4.1      2.433      6.076
REMARK  Name = 5470187_Zerumbone.pdbqt.pdb
REMARK  0 active torsions:
REMARK  status: ('A' for Active; 'I' for Inactive)
REMARK                            x       y       z     vdW  Elec       q    Type
REMARK                         _______ _______ _______ _____ _____    ______ ____
ROOT
ATOM      1  O   UNL     1      16.655  -1.217  55.240  0.00  0.00    +0.000 OA
ATOM      2  C   UNL     1      20.999   0.971  54.770  0.00  0.00    +0.000 C 
ATOM      3  C   UNL     1      21.034   2.132  53.849  0.00  0.00    +0.000 C 
ATOM      4  C   UNL     1      21.394   1.415  56.198  0.00  0.00    +0.000 C 
ATOM      5  C   UNL     1      21.955  -0.132  54.251  0.00  0.00    +0.000 C 
ATOM      6  C   UNL     1      19.588   0.465  54.761  0.00  0.00    +0.000 C 
ATOM      7  C   UNL     1      20.655   3.239  52.849  0.00  0.00    +0.000 C 
ATOM      8  C   UNL     1      19.945   3.980  52.052  0.00  0.00    +0.000 C 
ATOM      9  C   UNL     1      18.605   3.519  51.983  0.00  0.00    +0.000 C 
ATOM     10  C   UNL     1      17.401   2.634  52.315  0.00  0.00    +0.000 C 
ATOM     11  C   UNL     1      18.433   0.122  54.691  0.00  0.00    +0.000 C 
ATOM     12  C   UNL     1      20.249   5.433  51.900  0.00  0.00    +0.000 C 
ATOM     13  C   UNL     1      16.587   1.517  52.975  0.00  0.00    +0.000 C 
ATOM     14  C   UNL     1      16.111   0.512  53.651  0.00  0.00    +0.000 C 
ATOM     15  C   UNL     1      17.025  -0.260  54.569  0.00  0.00    +0.000 C 
ATOM     16  C   UNL     1      14.652   0.181  53.452  0.00  0.00    +0.000 C 
ENDROOT
TORSDOF 0
ENDMDL
MODEL 8
REMARK VINA RESULT:      -4.0     18.161     20.692
REMARK  Name = 5470187_Zerumbone.pdbqt.pdb
REMARK  0 active torsions:
REMARK  status: ('A' for Active; 'I' for Inactive)
REMARK                            x       y       z     vdW  Elec       q    Type
REMARK                         _______ _______ _______ _____ _____    ______ ____
ROOT
ATOM      1  O   UNL     1       6.645  -2.076  73.632  0.00  0.00    +0.000 OA
ATOM      2  C   UNL     1       9.942  -1.145  70.147  0.00  0.00    +0.000 C 
ATOM      3  C   UNL     1      11.168  -0.444  70.597  0.00  0.00    +0.000 C 
ATOM      4  C   UNL     1      10.308  -2.523  69.547  0.00  0.00    +0.000 C 
ATOM      5  C   UNL     1       9.198  -0.271  69.107  0.00  0.00    +0.000 C 
ATOM      6  C   UNL     1       9.086  -1.326  71.364  0.00  0.00    +0.000 C 
ATOM      7  C   UNL     1      12.242   0.261  71.445  0.00  0.00    +0.000 C 
ATOM      8  C   UNL     1      12.855   0.767  72.473  0.00  0.00    +0.000 C 
ATOM      9  C   UNL     1      12.067   0.651  73.647  0.00  0.00    +0.000 C 
ATOM     10  C   UNL     1      10.864   0.244  74.501  0.00  0.00    +0.000 C 
ATOM     11  C   UNL     1       8.460  -1.425  72.391  0.00  0.00    +0.000 C 
ATOM     12  C   UNL     1      14.345   0.728  72.560  0.00  0.00    +0.000 C 
ATOM     13  C   UNL     1       9.504  -0.363  74.857  0.00  0.00    +0.000 C 
ATOM     14  C   UNL     1       8.339  -0.939  74.916  0.00  0.00    +0.000 C 
ATOM     15  C   UNL     1       7.736  -1.518  73.660  0.00  0.00    +0.000 C 
ATOM     16  C   UNL     1       7.658  -0.976  76.263  0.00  0.00    +0.000 C 
ENDROOT
TORSDOF 0
ENDMDL
MODEL 9
REMARK VINA RESULT:      -3.9     19.896     22.625
REMARK  Name = 5470187_Zerumbone.pdbqt.pdb
REMARK  0 active torsions:
REMARK  status: ('A' for Active; 'I' for Inactive)
REMARK                            x       y       z     vdW  Elec       q    Type
REMARK                         _______ _______ _______ _____ _____    ______ ____
ROOT
ATOM      1  O   UNL     1      12.333   7.330  76.229  0.00  0.00    +0.000 OA
ATOM      2  C   UNL     1      13.465   3.124  74.014  0.00  0.00    +0.000 C 
ATOM      3  C   UNL     1      12.530   2.001  74.258  0.00  0.00    +0.000 C 
ATOM      4  C   UNL     1      13.516   3.454  72.503  0.00  0.00    +0.000 C 
ATOM      5  C   UNL     1      14.872   2.752  74.545  0.00  0.00    +0.000 C 
ATOM      6  C   UNL     1      12.929   4.297  74.778  0.00  0.00    +0.000 C 
ATOM      7  C   UNL     1      11.358   1.131  74.748  0.00  0.00    +0.000 C 
ATOM      8  C   UNL     1      10.265   0.777  75.356  0.00  0.00    +0.000 C 
ATOM      9  C   UNL     1       9.735   1.846  76.122  0.00  0.00    +0.000 C 
ATOM     10  C   UNL     1       9.650   3.265  76.689  0.00  0.00    +0.000 C 
ATOM     11  C   UNL     1      12.430   5.185  75.424  0.00  0.00    +0.000 C 
ATOM     12  C   UNL     1       9.353  -0.233  74.741  0.00  0.00    +0.000 C 
ATOM     13  C   UNL     1      10.023   4.729  76.939  0.00  0.00    +0.000 C 
ATOM     14  C   UNL     1      10.532   5.925  76.998  0.00  0.00    +0.000 C 
ATOM     15  C   UNL     1      11.791   6.231  76.226  0.00  0.00    +0.000 C 
ATOM     16  C   UNL     1       9.815   6.935  77.861  0.00  0.00    +0.000 C 
ENDROOT
TORSDOF 0
ENDMDL
