MODEL 1
REMARK VINA RESULT:      -3.7      0.000      0.000
REMARK  Name = 5azacytidine.pdbqt.pdb
REMARK  5 active torsions:
REMARK  status: ('A' for Active; 'I' for Inactive)
REMARK    1  A    between atoms: C2*_2  and  O2*_16
REMARK    2  A    between atoms: C3*_3  and  O3*_21
REMARK    3  A    between atoms: C4*_4  and  C5*_18
REMARK    4  A    between atoms: C1*_5  and  N_6
REMARK    5  A    between atoms: C5*_18  and  O5*_19
REMARK                            x       y       z     vdW  Elec       q    Type
REMARK                         _______ _______ _______ _____ _____    ______ ____
ROOT
ATOM      1  O4* UNL     1      12.838   8.947  71.286  0.00  0.00    +0.000 OA
ATOM      2  C2* UNL     1      13.742  10.585  69.936  0.00  0.00    +0.000 A 
ATOM      3  C3* UNL     1      12.782  11.195  70.805  0.00  0.00    +0.000 A 
ATOM      4  C4* UNL     1      12.238  10.167  71.645  0.00  0.00    +0.000 A 
ATOM      5  C1* UNL     1      13.750   9.173  70.232  0.00  0.00    +0.000 A 
ENDROOT
BRANCH   5   6
ATOM      6  N   UNL     1      14.425   8.142  69.649  0.00  0.00    +0.000 N 
ATOM      7  C   UNL     1      14.352   7.729  68.325  0.00  0.00    +0.000 A 
ATOM      8  O   UNL     1      13.613   8.247  67.491  0.00  0.00    +0.000 OA
ATOM      9  N   UNL     1      15.175   6.654  67.998  0.00  0.00    +0.000 NA
ATOM     10  C   UNL     1      15.940   6.102  68.905  0.00  0.00    +0.000 A 
ATOM     11  N   UNL     1      15.985   6.499  70.230  0.00  0.00    +0.000 NA
ATOM     12  C   UNL     1      15.268   7.407  70.371  0.00  0.00    +0.000 A 
ATOM     13  N   UNL     1      16.728   5.059  68.538  0.00  0.00    +0.000 N 
ATOM     14  H   UNL     1      16.969   4.431  69.294  0.00  0.00    +0.000 HD
ATOM     15  H   UNL     1      16.426   4.604  67.685  0.00  0.00    +0.000 HD
ENDBRANCH   5   6
BRANCH   2  16
ATOM     16  O2* UNL     1      13.985  11.131  68.706  0.00  0.00    +0.000 OA
ATOM     17  H2* UNL     1      14.198  12.088  68.765  0.00  0.00    +0.000 HD
ENDBRANCH   2  16
BRANCH   3  18
ATOM     18  O3* UNL     1      12.045  12.272  70.398  0.00  0.00    +0.000 OA
ATOM     19  H3* UNL     1      12.129  12.385  69.433  0.00  0.00    +0.000 HD
ENDBRANCH   3  18
BRANCH   4  20
ATOM     20  C5* UNL     1      11.086  10.233  72.452  0.00  0.00    +0.000 C 
BRANCH  20  21
ATOM     21  O5* UNL     1      10.005  10.297  73.222  0.00  0.00    +0.000 OA
ATOM     22  H5* UNL     1       9.501   9.467  73.157  0.00  0.00    +0.000 HD
ENDBRANCH  20  21
ENDBRANCH   4  20
TORSDOF 5
ENDMDL
MODEL 2
REMARK VINA RESULT:      -3.3      1.777      2.610
REMARK  Name = 5azacytidine.pdbqt.pdb
REMARK  5 active torsions:
REMARK  status: ('A' for Active; 'I' for Inactive)
REMARK    1  A    between atoms: C2*_2  and  O2*_16
REMARK    2  A    between atoms: C3*_3  and  O3*_21
REMARK    3  A    between atoms: C4*_4  and  C5*_18
REMARK    4  A    between atoms: C1*_5  and  N_6
REMARK    5  A    between atoms: C5*_18  and  O5*_19
REMARK                            x       y       z     vdW  Elec       q    Type
REMARK                         _______ _______ _______ _____ _____    ______ ____
ROOT
ATOM      1  O4* UNL     1      14.530  10.371  71.362  0.00  0.00    +0.000 OA
ATOM      2  C2* UNL     1      12.660   9.107  71.837  0.00  0.00    +0.000 A 
ATOM      3  C3* UNL     1      12.666  10.247  72.703  0.00  0.00    +0.000 A 
ATOM      4  C4* UNL     1      13.828  11.028  72.387  0.00  0.00    +0.000 A 
ATOM      5  C1* UNL     1      13.846   9.185  71.019  0.00  0.00    +0.000 A 
ENDROOT
BRANCH   5   6
ATOM      6  N   UNL     1      14.348   8.323  70.090  0.00  0.00    +0.000 N 
ATOM      7  C   UNL     1      14.181   8.378  68.712  0.00  0.00    +0.000 A 
ATOM      8  O   UNL     1      13.503   9.230  68.142  0.00  0.00    +0.000 OA
ATOM      9  N   UNL     1      14.830   7.372  68.000  0.00  0.00    +0.000 NA
ATOM     10  C   UNL     1      15.532   6.461  68.626  0.00  0.00    +0.000 A 
ATOM     11  N   UNL     1      15.669   6.395  70.002  0.00  0.00    +0.000 NA
ATOM     12  C   UNL     1      15.096   7.292  70.476  0.00  0.00    +0.000 A 
ATOM     13  N   UNL     1      16.150   5.503  67.890  0.00  0.00    +0.000 N 
ATOM     14  H   UNL     1      16.318   4.637  68.386  0.00  0.00    +0.000 HD
ATOM     15  H   UNL     1      15.763   5.393  66.960  0.00  0.00    +0.000 HD
ENDBRANCH   5   6
BRANCH   2  16
ATOM     16  O2* UNL     1      12.066   7.946  72.250  0.00  0.00    +0.000 OA
ATOM     17  H2* UNL     1      11.641   8.044  73.130  0.00  0.00    +0.000 HD
ENDBRANCH   2  16
BRANCH   3  18
ATOM     18  O3* UNL     1      12.156  10.175  73.969  0.00  0.00    +0.000 OA
ATOM     19  H3* UNL     1      11.601   9.377  74.058  0.00  0.00    +0.000 HD
ENDBRANCH   3  18
BRANCH   4  20
ATOM     20  C5* UNL     1      14.395  12.072  73.143  0.00  0.00    +0.000 C 
BRANCH  20  21
ATOM     21  O5* UNL     1      14.923  13.056  73.863  0.00  0.00    +0.000 OA
ATOM     22  H5* UNL     1      15.754  13.357  73.457  0.00  0.00    +0.000 HD
ENDBRANCH  20  21
ENDBRANCH   4  20
TORSDOF 5
ENDMDL
MODEL 3
REMARK VINA RESULT:      -3.1      2.827      5.661
REMARK  Name = 5azacytidine.pdbqt.pdb
REMARK  5 active torsions:
REMARK  status: ('A' for Active; 'I' for Inactive)
REMARK    1  A    between atoms: C2*_2  and  O2*_16
REMARK    2  A    between atoms: C3*_3  and  O3*_21
REMARK    3  A    between atoms: C4*_4  and  C5*_18
REMARK    4  A    between atoms: C1*_5  and  N_6
REMARK    5  A    between atoms: C5*_18  and  O5*_19
REMARK                            x       y       z     vdW  Elec       q    Type
REMARK                         _______ _______ _______ _____ _____    ______ ____
ROOT
ATOM      1  O4* UNL     1      15.254   7.934  70.706  0.00  0.00    +0.000 OA
ATOM      2  C2* UNL     1      14.177   7.735  68.676  0.00  0.00    +0.000 A 
ATOM      3  C3* UNL     1      15.110   6.657  68.800  0.00  0.00    +0.000 A 
ATOM      4  C4* UNL     1      15.763   6.789  70.071  0.00  0.00    +0.000 A 
ATOM      5  C1* UNL     1      14.294   8.540  69.867  0.00  0.00    +0.000 A 
ENDROOT
BRANCH   5   6
ATOM      6  N   UNL     1      13.687   9.709  70.217  0.00  0.00    +0.000 N 
ATOM      7  C   UNL     1      13.794  10.939  69.579  0.00  0.00    +0.000 A 
ATOM      8  O   UNL     1      14.506  11.135  68.596  0.00  0.00    +0.000 OA
ATOM      9  N   UNL     1      13.041  11.964  70.145  0.00  0.00    +0.000 NA
ATOM     10  C   UNL     1      12.304  11.741  71.204  0.00  0.00    +0.000 A 
ATOM     11  N   UNL     1      12.226  10.521  71.853  0.00  0.00    +0.000 NA
ATOM     12  C   UNL     1      12.885   9.751  71.278  0.00  0.00    +0.000 A 
ATOM     13  N   UNL     1      11.585  12.770  71.719  0.00  0.00    +0.000 N 
ATOM     14  H   UNL     1      11.377  12.683  72.705  0.00  0.00    +0.000 HD
ATOM     15  H   UNL     1      11.920  13.682  71.432  0.00  0.00    +0.000 HD
ENDBRANCH   5   6
BRANCH   2  16
ATOM     16  O2* UNL     1      13.850   8.209  67.435  0.00  0.00    +0.000 OA
ATOM     17  H2* UNL     1      12.898   8.439  67.369  0.00  0.00    +0.000 HD
ENDBRANCH   2  16
BRANCH   3  18
ATOM     18  O3* UNL     1      15.744   6.141  67.703  0.00  0.00    +0.000 OA
ATOM     19  H3* UNL     1      15.150   5.523  67.238  0.00  0.00    +0.000 HD
ENDBRANCH   3  18
BRANCH   4  20
ATOM     20  C5* UNL     1      16.931   6.137  70.511  0.00  0.00    +0.000 C 
BRANCH  20  21
ATOM     21  O5* UNL     1      18.036   5.519  70.917  0.00  0.00    +0.000 OA
ATOM     22  H5* UNL     1      17.969   4.565  70.734  0.00  0.00    +0.000 HD
ENDBRANCH  20  21
ENDBRANCH   4  20
TORSDOF 5
ENDMDL
MODEL 4
REMARK VINA RESULT:      -3.0     11.932     14.956
REMARK  Name = 5azacytidine.pdbqt.pdb
REMARK  5 active torsions:
REMARK  status: ('A' for Active; 'I' for Inactive)
REMARK    1  A    between atoms: C2*_2  and  O2*_16
REMARK    2  A    between atoms: C3*_3  and  O3*_21
REMARK    3  A    between atoms: C4*_4  and  C5*_18
REMARK    4  A    between atoms: C1*_5  and  N_6
REMARK    5  A    between atoms: C5*_18  and  O5*_19
REMARK                            x       y       z     vdW  Elec       q    Type
REMARK                         _______ _______ _______ _____ _____    ______ ____
ROOT
ATOM      1  O4* UNL     1      16.458  -1.394  58.825  0.00  0.00    +0.000 OA
ATOM      2  C2* UNL     1      14.176  -1.066  58.894  0.00  0.00    +0.000 A 
ATOM      3  C3* UNL     1      14.533  -1.481  57.571  0.00  0.00    +0.000 A 
ATOM      4  C4* UNL     1      15.952  -1.691  57.548  0.00  0.00    +0.000 A 
ATOM      5  C1* UNL     1      15.394  -0.993  59.662  0.00  0.00    +0.000 A 
ENDROOT
BRANCH   5   6
ATOM      6  N   UNL     1      15.619  -0.586  60.943  0.00  0.00    +0.000 N 
ATOM      7  C   UNL     1      14.837  -0.849  62.061  0.00  0.00    +0.000 A 
ATOM      8  O   UNL     1      13.784  -1.481  62.020  0.00  0.00    +0.000 OA
ATOM      9  N   UNL     1      15.321  -0.322  63.256  0.00  0.00    +0.000 NA
ATOM     10  C   UNL     1      16.435   0.366  63.276  0.00  0.00    +0.000 A 
ATOM     11  N   UNL     1      17.194   0.650  62.154  0.00  0.00    +0.000 NA
ATOM     12  C   UNL     1      16.693   0.146  61.230  0.00  0.00    +0.000 A 
ATOM     13  N   UNL     1      16.870   0.856  64.465  0.00  0.00    +0.000 N 
ATOM     14  H   UNL     1      17.456   1.676  64.390  0.00  0.00    +0.000 HD
ATOM     15  H   UNL     1      16.144   0.914  65.170  0.00  0.00    +0.000 HD
ENDBRANCH   5   6
BRANCH   2  16
ATOM     16  O2* UNL     1      13.080  -0.269  59.081  0.00  0.00    +0.000 OA
ATOM     17  H2* UNL     1      12.309  -0.778  59.415  0.00  0.00    +0.000 HD
ENDBRANCH   2  16
BRANCH   3  18
ATOM     18  O3* UNL     1      13.843  -1.032  56.480  0.00  0.00    +0.000 OA
ATOM     19  H3* UNL     1      12.944  -0.759  56.745  0.00  0.00    +0.000 HD
ENDBRANCH   3  18
BRANCH   4  20
ATOM     20  C5* UNL     1      16.783  -1.835  56.421  0.00  0.00    +0.000 C 
BRANCH  20  21
ATOM     21  O5* UNL     1      17.560  -1.969  55.350  0.00  0.00    +0.000 OA
ATOM     22  H5* UNL     1      18.440  -2.286  55.616  0.00  0.00    +0.000 HD
ENDBRANCH  20  21
ENDBRANCH   4  20
TORSDOF 5
ENDMDL
MODEL 5
REMARK VINA RESULT:      -3.0      2.830      3.920
REMARK  Name = 5azacytidine.pdbqt.pdb
REMARK  5 active torsions:
REMARK  status: ('A' for Active; 'I' for Inactive)
REMARK    1  A    between atoms: C2*_2  and  O2*_16
REMARK    2  A    between atoms: C3*_3  and  O3*_21
REMARK    3  A    between atoms: C4*_4  and  C5*_18
REMARK    4  A    between atoms: C1*_5  and  N_6
REMARK    5  A    between atoms: C5*_18  and  O5*_19
REMARK                            x       y       z     vdW  Elec       q    Type
REMARK                         _______ _______ _______ _____ _____    ______ ____
ROOT
ATOM      1  O4* UNL     1      15.448   6.893  71.042  0.00  0.00    +0.000 OA
ATOM      2  C2* UNL     1      13.942   8.635  71.176  0.00  0.00    +0.000 A 
ATOM      3  C3* UNL     1      13.623   7.684  72.196  0.00  0.00    +0.000 A 
ATOM      4  C4* UNL     1      14.575   6.613  72.107  0.00  0.00    +0.000 A 
ATOM      5  C1* UNL     1      15.073   8.116  70.446  0.00  0.00    +0.000 A 
ENDROOT
BRANCH   5   6
ATOM      6  N   UNL     1      15.720   8.593  69.344  0.00  0.00    +0.000 N 
ATOM      7  C   UNL     1      15.181   8.823  68.084  0.00  0.00    +0.000 A 
ATOM      8  O   UNL     1      14.012   8.584  67.791  0.00  0.00    +0.000 OA
ATOM      9  N   UNL     1      16.074   9.337  67.147  0.00  0.00    +0.000 NA
ATOM     10  C   UNL     1      17.321   9.567  67.473  0.00  0.00    +0.000 A 
ATOM     11  N   UNL     1      17.859   9.307  68.722  0.00  0.00    +0.000 NA
ATOM     12  C   UNL     1      17.014   8.896  69.412  0.00  0.00    +0.000 A 
ATOM     13  N   UNL     1      18.153  10.072  66.528  0.00  0.00    +0.000 N 
ATOM     14  H   UNL     1      19.131   9.856  66.672  0.00  0.00    +0.000 HD
ATOM     15  H   UNL     1      17.822   9.934  65.580  0.00  0.00    +0.000 HD
ENDBRANCH   5   6
BRANCH   2  16
ATOM     16  O2* UNL     1      12.952   9.414  70.642  0.00  0.00    +0.000 OA
ATOM     17  H2* UNL     1      13.296  10.024  69.954  0.00  0.00    +0.000 HD
ENDBRANCH   2  16
BRANCH   3  18
ATOM     18  O3* UNL     1      12.331   7.482  72.595  0.00  0.00    +0.000 OA
ATOM     19  H3* UNL     1      11.719   7.800  71.906  0.00  0.00    +0.000 HD
ENDBRANCH   3  18
BRANCH   4  20
ATOM     20  C5* UNL     1      14.501   5.343  72.709  0.00  0.00    +0.000 C 
BRANCH  20  21
ATOM     21  O5* UNL     1      14.421   4.145  73.281  0.00  0.00    +0.000 OA
ATOM     22  H5* UNL     1      14.920   3.493  72.758  0.00  0.00    +0.000 HD
ENDBRANCH  20  21
ENDBRANCH   4  20
TORSDOF 5
ENDMDL
MODEL 6
REMARK VINA RESULT:      -2.8      3.317      5.515
REMARK  Name = 5azacytidine.pdbqt.pdb
REMARK  5 active torsions:
REMARK  status: ('A' for Active; 'I' for Inactive)
REMARK    1  A    between atoms: C2*_2  and  O2*_16
REMARK    2  A    between atoms: C3*_3  and  O3*_21
REMARK    3  A    between atoms: C4*_4  and  C5*_18
REMARK    4  A    between atoms: C1*_5  and  N_6
REMARK    5  A    between atoms: C5*_18  and  O5*_19
REMARK                            x       y       z     vdW  Elec       q    Type
REMARK                         _______ _______ _______ _____ _____    ______ ____
ROOT
ATOM      1  O4* UNL     1      15.786   8.220  69.843  0.00  0.00    +0.000 OA
ATOM      2  C2* UNL     1      14.148   9.680  69.134  0.00  0.00    +0.000 A 
ATOM      3  C3* UNL     1      13.988   8.445  68.428  0.00  0.00    +0.000 A 
ATOM      4  C4* UNL     1      15.006   7.545  68.888  0.00  0.00    +0.000 A 
ATOM      5  C1* UNL     1      15.293   9.533  69.999  0.00  0.00    +0.000 A 
ENDROOT
BRANCH   5   6
ATOM      6  N   UNL     1      15.910  10.426  70.823  0.00  0.00    +0.000 N 
ATOM      7  C   UNL     1      15.492  10.841  72.082  0.00  0.00    +0.000 A 
ATOM      8  O   UNL     1      14.451  10.459  72.612  0.00  0.00    +0.000 OA
ATOM      9  N   UNL     1      16.336  11.752  72.712  0.00  0.00    +0.000 NA
ATOM     10  C   UNL     1      17.430  12.163  72.122  0.00  0.00    +0.000 A 
ATOM     11  N   UNL     1      17.826  11.768  70.856  0.00  0.00    +0.000 NA
ATOM     12  C   UNL     1      17.049  11.001  70.445  0.00  0.00    +0.000 A 
ATOM     13  N   UNL     1      18.223  13.048  72.777  0.00  0.00    +0.000 N 
ATOM     14  H   UNL     1      18.793  13.626  72.172  0.00  0.00    +0.000 HD
ATOM     15  H   UNL     1      17.747  13.547  73.519  0.00  0.00    +0.000 HD
ENDBRANCH   5   6
BRANCH   2  16
ATOM     16  O2* UNL     1      13.751  10.851  68.548  0.00  0.00    +0.000 OA
ATOM     17  H2* UNL     1      14.479  11.510  68.516  0.00  0.00    +0.000 HD
ENDBRANCH   2  16
BRANCH   3  18
ATOM     18  O3* UNL     1      13.516   8.421  67.145  0.00  0.00    +0.000 OA
ATOM     19  H3* UNL     1      14.260   8.337  66.520  0.00  0.00    +0.000 HD
ENDBRANCH   3  18
BRANCH   4  20
ATOM     20  C5* UNL     1      15.414   6.333  68.299  0.00  0.00    +0.000 C 
BRANCH  20  21
ATOM     21  O5* UNL     1      15.793   5.183  67.751  0.00  0.00    +0.000 OA
ATOM     22  H5* UNL     1      15.417   4.436  68.249  0.00  0.00    +0.000 HD
ENDBRANCH  20  21
ENDBRANCH   4  20
TORSDOF 5
ENDMDL
MODEL 7
REMARK VINA RESULT:      -2.8      9.883     11.582
REMARK  Name = 5azacytidine.pdbqt.pdb
REMARK  5 active torsions:
REMARK  status: ('A' for Active; 'I' for Inactive)
REMARK    1  A    between atoms: C2*_2  and  O2*_16
REMARK    2  A    between atoms: C3*_3  and  O3*_21
REMARK    3  A    between atoms: C4*_4  and  C5*_18
REMARK    4  A    between atoms: C1*_5  and  N_6
REMARK    5  A    between atoms: C5*_18  and  O5*_19
REMARK                            x       y       z     vdW  Elec       q    Type
REMARK                         _______ _______ _______ _____ _____    ______ ____
ROOT
ATOM      1  O4* UNL     1      11.273  11.917  60.762  0.00  0.00    +0.000 OA
ATOM      2  C2* UNL     1      10.149  13.675  59.780  0.00  0.00    +0.000 A 
ATOM      3  C3* UNL     1      11.381  13.479  59.079  0.00  0.00    +0.000 A 
ATOM      4  C4* UNL     1      12.063  12.376  59.695  0.00  0.00    +0.000 A 
ATOM      5  C1* UNL     1      10.105  12.704  60.846  0.00  0.00    +0.000 A 
ENDROOT
BRANCH   5   6
ATOM      6  N   UNL     1       9.192  12.510  61.840  0.00  0.00    +0.000 N 
ATOM      7  C   UNL     1       9.331  12.827  63.186  0.00  0.00    +0.000 A 
ATOM      8  O   UNL     1      10.352  13.312  63.668  0.00  0.00    +0.000 OA
ATOM      9  N   UNL     1       8.222  12.537  63.976  0.00  0.00    +0.000 NA
ATOM     10  C   UNL     1       7.150  12.002  63.448  0.00  0.00    +0.000 A 
ATOM     11  N   UNL     1       7.029  11.661  62.112  0.00  0.00    +0.000 NA
ATOM     12  C   UNL     1       8.011  11.964  61.561  0.00  0.00    +0.000 A 
ATOM     13  N   UNL     1       6.092  11.740  64.257  0.00  0.00    +0.000 N 
ATOM     14  H   UNL     1       5.489  10.997  63.930  0.00  0.00    +0.000 HD
ATOM     15  H   UNL     1       6.336  11.692  65.239  0.00  0.00    +0.000 HD
ENDBRANCH   5   6
BRANCH   2  16
ATOM     16  O2* UNL     1       9.588  14.921  59.828  0.00  0.00    +0.000 OA
ATOM     17  H2* UNL     1       9.743  15.361  60.692  0.00  0.00    +0.000 HD
ENDBRANCH   2  16
BRANCH   3  18
ATOM     18  O3* UNL     1      12.051  14.532  58.520  0.00  0.00    +0.000 OA
ATOM     19  H3* UNL     1      13.006  14.452  58.705  0.00  0.00    +0.000 HD
ENDBRANCH   3  18
BRANCH   4  20
ATOM     20  C5* UNL     1      13.408  11.996  59.532  0.00  0.00    +0.000 C 
BRANCH  20  21
ATOM     21  O5* UNL     1      14.681  11.647  59.374  0.00  0.00    +0.000 OA
ATOM     22  H5* UNL     1      14.817  10.735  59.687  0.00  0.00    +0.000 HD
ENDBRANCH  20  21
ENDBRANCH   4  20
TORSDOF 5
ENDMDL
MODEL 8
REMARK VINA RESULT:      -2.7     11.094     12.140
REMARK  Name = 5azacytidine.pdbqt.pdb
REMARK  5 active torsions:
REMARK  status: ('A' for Active; 'I' for Inactive)
REMARK    1  A    between atoms: C2*_2  and  O2*_16
REMARK    2  A    between atoms: C3*_3  and  O3*_21
REMARK    3  A    between atoms: C4*_4  and  C5*_18
REMARK    4  A    between atoms: C1*_5  and  N_6
REMARK    5  A    between atoms: C5*_18  and  O5*_19
REMARK                            x       y       z     vdW  Elec       q    Type
REMARK                         _______ _______ _______ _____ _____    ______ ____
ROOT
ATOM      1  O4* UNL     1       6.968  12.220  61.429  0.00  0.00    +0.000 OA
ATOM      2  C2* UNL     1       6.606  10.972  63.336  0.00  0.00    +0.000 A 
ATOM      3  C3* UNL     1       7.426  12.095  63.679  0.00  0.00    +0.000 A 
ATOM      4  C4* UNL     1       7.632  12.865  62.487  0.00  0.00    +0.000 A 
ATOM      5  C1* UNL     1       6.346  11.051  61.919  0.00  0.00    +0.000 A 
ENDROOT
BRANCH   5   6
ATOM      6  N   UNL     1       5.684  10.201  61.084  0.00  0.00    +0.000 N 
ATOM      7  C   UNL     1       5.983   8.868  60.828  0.00  0.00    +0.000 A 
ATOM      8  O   UNL     1       6.942   8.279  61.321  0.00  0.00    +0.000 OA
ATOM      9  N   UNL     1       5.117   8.231  59.942  0.00  0.00    +0.000 NA
ATOM     10  C   UNL     1       4.112   8.880  59.411  0.00  0.00    +0.000 A 
ATOM     11  N   UNL     1       3.838  10.216  59.647  0.00  0.00    +0.000 NA
ATOM     12  C   UNL     1       4.619  10.627  60.409  0.00  0.00    +0.000 A 
ATOM     13  N   UNL     1       3.293   8.217  58.556  0.00  0.00    +0.000 N 
ATOM     14  H   UNL     1       2.819   8.808  57.887  0.00  0.00    +0.000 HD
ATOM     15  H   UNL     1       3.708   7.379  58.166  0.00  0.00    +0.000 HD
ENDBRANCH   5   6
BRANCH   2  16
ATOM     16  O2* UNL     1       6.711   9.812  64.052  0.00  0.00    +0.000 OA
ATOM     17  H2* UNL     1       7.161   9.953  64.914  0.00  0.00    +0.000 HD
ENDBRANCH   2  16
BRANCH   3  18
ATOM     18  O3* UNL     1       8.370  12.004  64.664  0.00  0.00    +0.000 OA
ATOM     19  H3* UNL     1       8.571  11.067  64.844  0.00  0.00    +0.000 HD
ENDBRANCH   3  18
BRANCH   4  20
ATOM     20  C5* UNL     1       8.579  13.885  62.274  0.00  0.00    +0.000 C 
BRANCH  20  21
ATOM     21  O5* UNL     1       9.465  14.856  62.072  0.00  0.00    +0.000 OA
ATOM     22  H5* UNL     1      10.299  14.644  62.527  0.00  0.00    +0.000 HD
ENDBRANCH  20  21
ENDBRANCH   4  20
TORSDOF 5
ENDMDL
MODEL 9
REMARK VINA RESULT:      -2.6      5.048      6.795
REMARK  Name = 5azacytidine.pdbqt.pdb
REMARK  5 active torsions:
REMARK  status: ('A' for Active; 'I' for Inactive)
REMARK    1  A    between atoms: C2*_2  and  O2*_16
REMARK    2  A    between atoms: C3*_3  and  O3*_21
REMARK    3  A    between atoms: C4*_4  and  C5*_18
REMARK    4  A    between atoms: C1*_5  and  N_6
REMARK    5  A    between atoms: C5*_18  and  O5*_19
REMARK                            x       y       z     vdW  Elec       q    Type
REMARK                         _______ _______ _______ _____ _____    ______ ____
ROOT
ATOM      1  O4* UNL     1      14.049   3.501  71.086  0.00  0.00    +0.000 OA
ATOM      2  C2* UNL     1      15.290   2.015  69.832  0.00  0.00    +0.000 A 
ATOM      3  C3* UNL     1      14.581   1.278  70.834  0.00  0.00    +0.000 A 
ATOM      4  C4* UNL     1      13.807   2.214  71.597  0.00  0.00    +0.000 A 
ATOM      5  C1* UNL     1      14.965   3.409  70.017  0.00  0.00    +0.000 A 
ENDROOT
BRANCH   5   6
ATOM      6  N   UNL     1      15.422   4.524  69.381  0.00  0.00    +0.000 N 
ATOM      7  C   UNL     1      15.856   4.626  68.064  0.00  0.00    +0.000 A 
ATOM      8  O   UNL     1      15.912   3.672  67.291  0.00  0.00    +0.000 OA
ATOM      9  N   UNL     1      16.251   5.903  67.672  0.00  0.00    +0.000 NA
ATOM     10  C   UNL     1      16.203   6.902  68.516  0.00  0.00    +0.000 A 
ATOM     11  N   UNL     1      15.799   6.788  69.834  0.00  0.00    +0.000 NA
ATOM     12  C   UNL     1      15.484   5.683  70.032  0.00  0.00    +0.000 A 
ATOM     13  N   UNL     1      16.594   8.129  68.087  0.00  0.00    +0.000 N 
ATOM     14  H   UNL     1      16.925   8.743  68.819  0.00  0.00    +0.000 HD
ATOM     15  H   UNL     1      17.177   8.102  67.258  0.00  0.00    +0.000 HD
ENDBRANCH   5   6
BRANCH   2  16
ATOM     16  O2* UNL     1      16.484   1.543  69.361  0.00  0.00    +0.000 OA
ATOM     17  H2* UNL     1      16.638   1.801  68.426  0.00  0.00    +0.000 HD
ENDBRANCH   2  16
BRANCH   3  18
ATOM     18  O3* UNL     1      15.113   0.147  71.387  0.00  0.00    +0.000 OA
ATOM     19  H3* UNL     1      15.952   0.361  71.836  0.00  0.00    +0.000 HD
ENDBRANCH   3  18
BRANCH   4  20
ATOM     20  C5* UNL     1      13.175   2.000  72.837  0.00  0.00    +0.000 C 
BRANCH  20  21
ATOM     21  O5* UNL     1      12.588   1.797  74.013  0.00  0.00    +0.000 OA
ATOM     22  H5* UNL     1      11.625   1.731  73.897  0.00  0.00    +0.000 HD
ENDBRANCH  20  21
ENDBRANCH   4  20
TORSDOF 5
ENDMDL
