MODEL 1
REMARK VINA RESULT:      -4.6      0.000      0.000
REMARK  Name = 60953_Capecitabine.pdbqt.pdb
REMARK  6 active torsions:
REMARK  status: ('A' for Active; 'I' for Inactive)
REMARK    1  A    between atoms: N_4  and  C_16
REMARK    2  A    between atoms: C_11  and  O_23
REMARK    3  A    between atoms: C_14  and  O_19
REMARK    4  A    between atoms: C_15  and  O_21
REMARK    5  A    between atoms: O_23  and  C_24
REMARK    6  A    between atoms: C_25  and  C_26
REMARK                            x       y       z     vdW  Elec       q    Type
REMARK                         _______ _______ _______ _____ _____    ______ ____
ROOT
ATOM      1  F   UNL     1      21.530   9.228  59.018  0.00  0.00    +0.000 F 
ATOM      2  O   UNL     1      16.415   9.343  60.607  0.00  0.00    +0.000 OA
ATOM      3  O   UNL     1      17.519   9.574  56.070  0.00  0.00    +0.000 OA
ATOM      4  N   UNL     1      18.664   9.419  61.184  0.00  0.00    +0.000 N 
ATOM      5  N   UNL     1      17.932   9.509  58.900  0.00  0.00    +0.000 NA
ATOM      6  N   UNL     1      19.555   9.632  57.196  0.00  0.00    +0.000 N 
ATOM      7  C   UNL     1      19.907   9.520  60.671  0.00  0.00    +0.000 C 
ATOM      8  C   UNL     1      17.590   9.425  60.257  0.00  0.00    +0.000 C 
ATOM      9  C   UNL     1      20.335   9.652  59.465  0.00  0.00    +0.000 C 
ATOM     10  C   UNL     1      19.174   9.593  58.522  0.00  0.00    +0.000 C 
ATOM     11  C   UNL     1      18.741   9.599  56.086  0.00  0.00    +0.000 C 
ATOM     12  H   UNL     1      20.541   9.662  56.981  0.00  0.00    +0.000 HD
ENDROOT
BRANCH   4  16
ATOM     13  O   UNL     1      19.108   8.274  63.270  0.00  0.00    +0.000 OA
ATOM     14  C   UNL     1      17.844  10.191  63.491  0.00  0.00    +0.000 A 
ATOM     15  C   UNL     1      17.975   9.587  64.781  0.00  0.00    +0.000 A 
ATOM     16  C   UNL     1      18.536   9.344  62.546  0.00  0.00    +0.000 A 
ATOM     17  C   UNL     1      18.775   8.403  64.627  0.00  0.00    +0.000 A 
ATOM     18  C   UNL     1      19.028   7.268  65.559  0.00  0.00    +0.000 C 
BRANCH  14  19
ATOM     19  O   UNL     1      16.740  10.946  63.211  0.00  0.00    +0.000 OA
ATOM     20  H   UNL     1      16.624  11.090  62.245  0.00  0.00    +0.000 HD
ENDBRANCH  14  19
BRANCH  15  21
ATOM     21  O   UNL     1      16.993   9.722  65.728  0.00  0.00    +0.000 OA
ATOM     22  H   UNL     1      17.323   9.445  66.603  0.00  0.00    +0.000 HD
ENDBRANCH  15  21
ENDBRANCH   4  16
BRANCH  11  23
ATOM     23  O   UNL     1      19.532   9.613  54.971  0.00  0.00    +0.000 OA
BRANCH  23  24
ATOM     24  C   UNL     1      19.160   8.797  53.987  0.00  0.00    +0.000 C 
ATOM     25  C   UNL     1      18.731   7.860  52.853  0.00  0.00    +0.000 C 
BRANCH  25  26
ATOM     26  C   UNL     1      18.303   6.925  51.718  0.00  0.00    +0.000 C 
ATOM     27  C   UNL     1      17.867   5.991  50.586  0.00  0.00    +0.000 C 
ATOM     28  C   UNL     1      17.419   5.061  49.452  0.00  0.00    +0.000 C 
ENDBRANCH  25  26
ENDBRANCH  23  24
ENDBRANCH  11  23
TORSDOF 6
ENDMDL
MODEL 2
REMARK VINA RESULT:      -4.5      4.354     10.422
REMARK  Name = 60953_Capecitabine.pdbqt.pdb
REMARK  6 active torsions:
REMARK  status: ('A' for Active; 'I' for Inactive)
REMARK    1  A    between atoms: N_4  and  C_16
REMARK    2  A    between atoms: C_11  and  O_23
REMARK    3  A    between atoms: C_14  and  O_19
REMARK    4  A    between atoms: C_15  and  O_21
REMARK    5  A    between atoms: O_23  and  C_24
REMARK    6  A    between atoms: C_25  and  C_26
REMARK                            x       y       z     vdW  Elec       q    Type
REMARK                         _______ _______ _______ _____ _____    ______ ____
ROOT
ATOM      1  F   UNL     1      20.127   7.731  65.097  0.00  0.00    +0.000 F 
ATOM      2  O   UNL     1      16.474  11.037  62.993  0.00  0.00    +0.000 OA
ATOM      3  O   UNL     1      16.404   9.977  67.545  0.00  0.00    +0.000 OA
ATOM      4  N   UNL     1      18.211   9.534  62.643  0.00  0.00    +0.000 N 
ATOM      5  N   UNL     1      17.225   9.859  64.807  0.00  0.00    +0.000 NA
ATOM      6  N   UNL     1      18.083   8.646  66.636  0.00  0.00    +0.000 N 
ATOM      7  C   UNL     1      18.995   8.628  63.262  0.00  0.00    +0.000 C 
ATOM      8  C   UNL     1      17.247  10.196  63.447  0.00  0.00    +0.000 C 
ATOM      9  C   UNL     1      19.033   8.205  64.477  0.00  0.00    +0.000 C 
ATOM     10  C   UNL     1      18.041   8.972  65.296  0.00  0.00    +0.000 C 
ATOM     11  C   UNL     1      17.308   9.162  67.651  0.00  0.00    +0.000 C 
ATOM     12  H   UNL     1      18.768   7.972  66.945  0.00  0.00    +0.000 HD
ENDROOT
BRANCH   4  16
ATOM     13  O   UNL     1      19.578  10.301  60.799  0.00  0.00    +0.000 OA
ATOM     14  C   UNL     1      17.521   9.465  60.172  0.00  0.00    +0.000 A 
ATOM     15  C   UNL     1      18.192   9.937  58.999  0.00  0.00    +0.000 A 
ATOM     16  C   UNL     1      18.389   9.723  61.298  0.00  0.00    +0.000 A 
ATOM     17  C   UNL     1      19.475  10.441  59.406  0.00  0.00    +0.000 A 
ATOM     18  C   UNL     1      20.478  11.262  58.672  0.00  0.00    +0.000 C 
BRANCH  14  19
ATOM     19  O   UNL     1      16.156   9.469  60.212  0.00  0.00    +0.000 OA
ATOM     20  H   UNL     1      15.762   9.876  59.409  0.00  0.00    +0.000 HD
ENDBRANCH  14  19
BRANCH  15  21
ATOM     21  O   UNL     1      17.487  10.427  57.931  0.00  0.00    +0.000 OA
ATOM     22  H   UNL     1      16.606  10.735  58.217  0.00  0.00    +0.000 HD
ENDBRANCH  15  21
ENDBRANCH   4  16
BRANCH  11  23
ATOM     23  O   UNL     1      17.708   8.595  68.829  0.00  0.00    +0.000 OA
BRANCH  23  24
ATOM     24  C   UNL     1      17.079   7.474  69.174  0.00  0.00    +0.000 C 
ATOM     25  C   UNL     1      16.357   6.182  69.570  0.00  0.00    +0.000 C 
BRANCH  25  26
ATOM     26  C   UNL     1      15.635   4.890  69.964  0.00  0.00    +0.000 C 
ATOM     27  C   UNL     1      14.919   3.595  70.360  0.00  0.00    +0.000 C 
ATOM     28  C   UNL     1      14.213   2.296  70.763  0.00  0.00    +0.000 C 
ENDBRANCH  25  26
ENDBRANCH  23  24
ENDBRANCH  11  23
TORSDOF 6
ENDMDL
MODEL 3
REMARK VINA RESULT:      -4.4     11.378     13.568
REMARK  Name = 60953_Capecitabine.pdbqt.pdb
REMARK  6 active torsions:
REMARK  status: ('A' for Active; 'I' for Inactive)
REMARK    1  A    between atoms: N_4  and  C_16
REMARK    2  A    between atoms: C_11  and  O_23
REMARK    3  A    between atoms: C_14  and  O_19
REMARK    4  A    between atoms: C_15  and  O_21
REMARK    5  A    between atoms: O_23  and  C_24
REMARK    6  A    between atoms: C_25  and  C_26
REMARK                            x       y       z     vdW  Elec       q    Type
REMARK                         _______ _______ _______ _____ _____    ______ ____
ROOT
ATOM      1  F   UNL     1      15.022   6.460  71.958  0.00  0.00    +0.000 F 
ATOM      2  O   UNL     1      14.149   9.119  67.389  0.00  0.00    +0.000 OA
ATOM      3  O   UNL     1      15.787   4.740  67.337  0.00  0.00    +0.000 OA
ATOM      4  N   UNL     1      14.287   9.170  69.708  0.00  0.00    +0.000 N 
ATOM      5  N   UNL     1      14.954   7.248  68.435  0.00  0.00    +0.000 NA
ATOM      6  N   UNL     1      15.727   5.342  69.584  0.00  0.00    +0.000 N 
ATOM      7  C   UNL     1      14.658   8.445  70.783  0.00  0.00    +0.000 C 
ATOM      8  C   UNL     1      14.448   8.555  68.440  0.00  0.00    +0.000 C 
ATOM      9  C   UNL     1      15.174   7.272  70.898  0.00  0.00    +0.000 C 
ATOM     10  C   UNL     1      15.270   6.643  69.542  0.00  0.00    +0.000 C 
ATOM     11  C   UNL     1      15.931   4.487  68.524  0.00  0.00    +0.000 C 
ATOM     12  H   UNL     1      15.919   4.929  70.486  0.00  0.00    +0.000 HD
ENDROOT
BRANCH   4  16
ATOM     13  O   UNL     1      12.548  10.645  70.520  0.00  0.00    +0.000 OA
ATOM     14  C   UNL     1      14.363  11.733  69.602  0.00  0.00    +0.000 A 
ATOM     15  C   UNL     1      13.393  12.715  69.980  0.00  0.00    +0.000 A 
ATOM     16  C   UNL     1      13.811  10.436  69.921  0.00  0.00    +0.000 A 
ATOM     17  C   UNL     1      12.276  12.021  70.561  0.00  0.00    +0.000 A 
ATOM     18  C   UNL     1      10.904  12.492  70.899  0.00  0.00    +0.000 C 
BRANCH  14  19
ATOM     19  O   UNL     1      15.215  11.993  68.567  0.00  0.00    +0.000 OA
ATOM     20  H   UNL     1      14.919  12.760  68.027  0.00  0.00    +0.000 HD
ENDBRANCH  14  19
BRANCH  15  21
ATOM     21  O   UNL     1      13.280  13.896  69.295  0.00  0.00    +0.000 OA
ATOM     22  H   UNL     1      14.130  14.130  68.876  0.00  0.00    +0.000 HD
ENDBRANCH  15  21
ENDBRANCH   4  16
BRANCH  11  23
ATOM     23  O   UNL     1      16.346   3.281  69.015  0.00  0.00    +0.000 OA
BRANCH  23  24
ATOM     24  C   UNL     1      15.448   2.606  69.729  0.00  0.00    +0.000 C 
ATOM     25  C   UNL     1      14.412   1.829  70.549  0.00  0.00    +0.000 C 
BRANCH  25  26
ATOM     26  C   UNL     1      13.376   1.053  71.366  0.00  0.00    +0.000 C 
ATOM     27  C   UNL     1      12.344   0.277  72.190  0.00  0.00    +0.000 C 
ATOM     28  C   UNL     1      11.315  -0.493  73.025  0.00  0.00    +0.000 C 
ENDBRANCH  25  26
ENDBRANCH  23  24
ENDBRANCH  11  23
TORSDOF 6
ENDMDL
MODEL 4
REMARK VINA RESULT:      -4.2     11.697     15.204
REMARK  Name = 60953_Capecitabine.pdbqt.pdb
REMARK  6 active torsions:
REMARK  status: ('A' for Active; 'I' for Inactive)
REMARK    1  A    between atoms: N_4  and  C_16
REMARK    2  A    between atoms: C_11  and  O_23
REMARK    3  A    between atoms: C_14  and  O_19
REMARK    4  A    between atoms: C_15  and  O_21
REMARK    5  A    between atoms: O_23  and  C_24
REMARK    6  A    between atoms: C_25  and  C_26
REMARK                            x       y       z     vdW  Elec       q    Type
REMARK                         _______ _______ _______ _____ _____    ______ ____
ROOT
ATOM      1  F   UNL     1      14.257   4.544  72.826  0.00  0.00    +0.000 F 
ATOM      2  O   UNL     1      15.669   5.462  67.741  0.00  0.00    +0.000 OA
ATOM      3  O   UNL     1      15.079   1.099  69.312  0.00  0.00    +0.000 OA
ATOM      4  N   UNL     1      15.333   6.305  69.880  0.00  0.00    +0.000 N 
ATOM      5  N   UNL     1      15.287   3.951  69.418  0.00  0.00    +0.000 NA
ATOM      6  N   UNL     1      14.841   2.459  71.185  0.00  0.00    +0.000 N 
ATOM      7  C   UNL     1      15.098   5.943  71.157  0.00  0.00    +0.000 C 
ATOM      8  C   UNL     1      15.451   5.255  68.932  0.00  0.00    +0.000 C 
ATOM      9  C   UNL     1      14.981   4.793  71.722  0.00  0.00    +0.000 C 
ATOM     10  C   UNL     1      15.053   3.723  70.677  0.00  0.00    +0.000 C 
ATOM     11  C   UNL     1      14.842   1.265  70.499  0.00  0.00    +0.000 C 
ATOM     12  H   UNL     1      14.631   2.366  72.169  0.00  0.00    +0.000 HD
ENDROOT
BRANCH   4  16
ATOM     13  O   UNL     1      16.183   8.494  70.468  0.00  0.00    +0.000 OA
ATOM     14  C   UNL     1      14.934   8.451  68.530  0.00  0.00    +0.000 A 
ATOM     15  C   UNL     1      15.315   9.805  68.789  0.00  0.00    +0.000 A 
ATOM     16  C   UNL     1      15.460   7.641  69.604  0.00  0.00    +0.000 A 
ATOM     17  C   UNL     1      16.103   9.812  69.992  0.00  0.00    +0.000 A 
ATOM     18  C   UNL     1      16.552  10.937  70.858  0.00  0.00    +0.000 C 
BRANCH  14  19
ATOM     19  O   UNL     1      13.779   8.198  67.845  0.00  0.00    +0.000 OA
ATOM     20  H   UNL     1      13.629   7.235  67.714  0.00  0.00    +0.000 HD
ENDBRANCH  14  19
BRANCH  15  21
ATOM     21  O   UNL     1      14.522  10.851  68.396  0.00  0.00    +0.000 OA
ATOM     22  H   UNL     1      14.150  11.308  69.174  0.00  0.00    +0.000 HD
ENDBRANCH  15  21
ENDBRANCH   4  16
BRANCH  11  23
ATOM     23  O   UNL     1      14.544   0.261  71.379  0.00  0.00    +0.000 OA
BRANCH  23  24
ATOM     24  C   UNL     1      13.637   0.556  72.308  0.00  0.00    +0.000 C 
ATOM     25  C   UNL     1      12.593   0.892  73.377  0.00  0.00    +0.000 C 
BRANCH  25  26
ATOM     26  C   UNL     1      11.548   1.227  74.446  0.00  0.00    +0.000 C 
ATOM     27  C   UNL     1      10.504   1.569  75.512  0.00  0.00    +0.000 C 
ATOM     28  C   UNL     1       9.457   1.922  76.575  0.00  0.00    +0.000 C 
ENDBRANCH  25  26
ENDBRANCH  23  24
ENDBRANCH  11  23
TORSDOF 6
ENDMDL
MODEL 5
REMARK VINA RESULT:      -4.1     19.706     21.835
REMARK  Name = 60953_Capecitabine.pdbqt.pdb
REMARK  6 active torsions:
REMARK  status: ('A' for Active; 'I' for Inactive)
REMARK    1  A    between atoms: N_4  and  C_16
REMARK    2  A    between atoms: C_11  and  O_23
REMARK    3  A    between atoms: C_14  and  O_19
REMARK    4  A    between atoms: C_15  and  O_21
REMARK    5  A    between atoms: O_23  and  C_24
REMARK    6  A    between atoms: C_25  and  C_26
REMARK                            x       y       z     vdW  Elec       q    Type
REMARK                         _______ _______ _______ _____ _____    ______ ____
ROOT
ATOM      1  F   UNL     1       3.435   7.888  71.641  0.00  0.00    +0.000 F 
ATOM      2  O   UNL     1       1.473   7.677  76.622  0.00  0.00    +0.000 OA
ATOM      3  O   UNL     1      -0.721  10.107  73.284  0.00  0.00    +0.000 OA
ATOM      4  N   UNL     1       3.227   7.219  75.170  0.00  0.00    +0.000 N 
ATOM      5  N   UNL     1       1.343   8.548  74.508  0.00  0.00    +0.000 NA
ATOM      6  N   UNL     1       1.256   9.371  72.302  0.00  0.00    +0.000 N 
ATOM      7  C   UNL     1       3.681   7.445  73.921  0.00  0.00    +0.000 C 
ATOM      8  C   UNL     1       1.984   7.810  75.512  0.00  0.00    +0.000 C 
ATOM      9  C   UNL     1       3.212   8.137  72.943  0.00  0.00    +0.000 C 
ATOM     10  C   UNL     1       1.876   8.691  73.331  0.00  0.00    +0.000 C 
ATOM     11  C   UNL     1       0.030   9.998  72.326  0.00  0.00    +0.000 C 
ATOM     12  H   UNL     1       1.718   9.409  71.405  0.00  0.00    +0.000 HD
ENDROOT
BRANCH   4  16
ATOM     13  O   UNL     1       5.413   6.576  75.988  0.00  0.00    +0.000 OA
ATOM     14  C   UNL     1       3.660   5.453  76.981  0.00  0.00    +0.000 A 
ATOM     15  C   UNL     1       4.885   4.933  77.509  0.00  0.00    +0.000 A 
ATOM     16  C   UNL     1       4.005   6.464  76.009  0.00  0.00    +0.000 A 
ATOM     17  C   UNL     1       5.964   5.652  76.890  0.00  0.00    +0.000 A 
ATOM     18  C   UNL     1       7.429   5.382  76.866  0.00  0.00    +0.000 C 
BRANCH  14  19
ATOM     19  O   UNL     1       2.558   4.648  76.925  0.00  0.00    +0.000 OA
ATOM     20  H   UNL     1       2.783   3.700  77.055  0.00  0.00    +0.000 HD
ENDBRANCH  14  19
BRANCH  15  21
ATOM     21  O   UNL     1       4.979   3.631  77.923  0.00  0.00    +0.000 OA
ATOM     22  H   UNL     1       5.717   3.181  77.470  0.00  0.00    +0.000 HD
ENDBRANCH  15  21
ENDBRANCH   4  16
BRANCH  11  23
ATOM     23  O   UNL     1      -0.219  10.506  71.082  0.00  0.00    +0.000 OA
BRANCH  23  24
ATOM     24  C   UNL     1       0.213   9.772  70.059  0.00  0.00    +0.000 C 
ATOM     25  C   UNL     1       0.709   8.925  68.883  0.00  0.00    +0.000 C 
BRANCH  25  26
ATOM     26  C   UNL     1       1.204   8.077  67.708  0.00  0.00    +0.000 C 
ATOM     27  C   UNL     1       1.706   7.229  66.536  0.00  0.00    +0.000 C 
ATOM     28  C   UNL     1       2.218   6.375  65.370  0.00  0.00    +0.000 C 
ENDBRANCH  25  26
ENDBRANCH  23  24
ENDBRANCH  11  23
TORSDOF 6
ENDMDL
MODEL 6
REMARK VINA RESULT:      -4.0      6.943      9.531
REMARK  Name = 60953_Capecitabine.pdbqt.pdb
REMARK  6 active torsions:
REMARK  status: ('A' for Active; 'I' for Inactive)
REMARK    1  A    between atoms: N_4  and  C_16
REMARK    2  A    between atoms: C_11  and  O_23
REMARK    3  A    between atoms: C_14  and  O_19
REMARK    4  A    between atoms: C_15  and  O_21
REMARK    5  A    between atoms: O_23  and  C_24
REMARK    6  A    between atoms: C_25  and  C_26
REMARK                            x       y       z     vdW  Elec       q    Type
REMARK                         _______ _______ _______ _____ _____    ______ ____
ROOT
ATOM      1  F   UNL     1      12.445  12.236  57.088  0.00  0.00    +0.000 F 
ATOM      2  O   UNL     1      15.224  12.022  61.663  0.00  0.00    +0.000 OA
ATOM      3  O   UNL     1      10.553  11.837  61.688  0.00  0.00    +0.000 OA
ATOM      4  N   UNL     1      15.223  12.389  59.369  0.00  0.00    +0.000 N 
ATOM      5  N   UNL     1      13.190  12.141  60.619  0.00  0.00    +0.000 NA
ATOM      6  N   UNL     1      11.136  12.227  59.469  0.00  0.00    +0.000 N 
ATOM      7  C   UNL     1      14.413  12.553  58.303  0.00  0.00    +0.000 C 
ATOM      8  C   UNL     1      14.591  12.180  60.622  0.00  0.00    +0.000 C 
ATOM      9  C   UNL     1      13.132  12.587  58.188  0.00  0.00    +0.000 C 
ATOM     10  C   UNL     1      12.512  12.304  59.521  0.00  0.00    +0.000 C 
ATOM     11  C   UNL     1      10.266  11.985  60.509  0.00  0.00    +0.000 C 
ATOM     12  H   UNL     1      10.682  12.331  58.572  0.00  0.00    +0.000 HD
ENDROOT
BRANCH   4  16
ATOM     13  O   UNL     1      17.235  13.707  59.095  0.00  0.00    +0.000 OA
ATOM     14  C   UNL     1      17.566  11.429  58.948  0.00  0.00    +0.000 A 
ATOM     15  C   UNL     1      18.816  12.082  58.706  0.00  0.00    +0.000 A 
ATOM     16  C   UNL     1      16.576  12.459  59.164  0.00  0.00    +0.000 A 
ATOM     17  C   UNL     1      18.594  13.498  58.814  0.00  0.00    +0.000 A 
ATOM     18  C   UNL     1      19.453  14.652  58.429  0.00  0.00    +0.000 C 
BRANCH  14  19
ATOM     19  O   UNL     1      17.324  10.210  58.381  0.00  0.00    +0.000 OA
ATOM     20  H   UNL     1      18.154   9.725  58.175  0.00  0.00    +0.000 HD
ENDBRANCH  14  19
BRANCH  15  21
ATOM     21  O   UNL     1      19.758  11.521  57.885  0.00  0.00    +0.000 OA
ATOM     22  H   UNL     1      20.560  11.292  58.392  0.00  0.00    +0.000 HD
ENDBRANCH  15  21
ENDBRANCH   4  16
BRANCH  11  23
ATOM     23  O   UNL     1       8.995  11.949  60.010  0.00  0.00    +0.000 OA
BRANCH  23  24
ATOM     24  C   UNL     1       8.301  10.844  60.272  0.00  0.00    +0.000 C 
ATOM     25  C   UNL     1       7.504   9.570  60.575  0.00  0.00    +0.000 C 
BRANCH  25  26
ATOM     26  C   UNL     1       6.709   8.297  60.877  0.00  0.00    +0.000 C 
ATOM     27  C   UNL     1       5.910   7.025  61.175  0.00  0.00    +0.000 C 
ATOM     28  C   UNL     1       5.105   5.752  61.460  0.00  0.00    +0.000 C 
ENDBRANCH  25  26
ENDBRANCH  23  24
ENDBRANCH  11  23
TORSDOF 6
ENDMDL
MODEL 7
REMARK VINA RESULT:      -4.0      2.136      2.823
REMARK  Name = 60953_Capecitabine.pdbqt.pdb
REMARK  6 active torsions:
REMARK  status: ('A' for Active; 'I' for Inactive)
REMARK    1  A    between atoms: N_4  and  C_16
REMARK    2  A    between atoms: C_11  and  O_23
REMARK    3  A    between atoms: C_14  and  O_19
REMARK    4  A    between atoms: C_15  and  O_21
REMARK    5  A    between atoms: O_23  and  C_24
REMARK    6  A    between atoms: C_25  and  C_26
REMARK                            x       y       z     vdW  Elec       q    Type
REMARK                         _______ _______ _______ _____ _____    ______ ____
ROOT
ATOM      1  F   UNL     1      15.983  11.544  60.930  0.00  0.00    +0.000 F 
ATOM      2  O   UNL     1      20.087   8.528  62.590  0.00  0.00    +0.000 OA
ATOM      3  O   UNL     1      19.225   9.099  58.031  0.00  0.00    +0.000 OA
ATOM      4  N   UNL     1      18.160   9.709  63.129  0.00  0.00    +0.000 N 
ATOM      5  N   UNL     1      18.806   9.296  60.855  0.00  0.00    +0.000 NA
ATOM      6  N   UNL     1      17.464  10.158  59.122  0.00  0.00    +0.000 N 
ATOM      7  C   UNL     1      17.096  10.340  62.592  0.00  0.00    +0.000 C 
ATOM      8  C   UNL     1      19.083   9.131  62.219  0.00  0.00    +0.000 C 
ATOM      9  C   UNL     1      16.716  10.509  61.375  0.00  0.00    +0.000 C 
ATOM     10  C   UNL     1      17.748   9.935  60.453  0.00  0.00    +0.000 C 
ATOM     11  C   UNL     1      18.200   9.764  58.027  0.00  0.00    +0.000 C 
ATOM     12  H   UNL     1      16.639  10.694  58.890  0.00  0.00    +0.000 HD
ENDROOT
BRANCH   4  16
ATOM     13  O   UNL     1      18.149   8.427  65.182  0.00  0.00    +0.000 OA
ATOM     14  C   UNL     1      18.419  10.697  65.483  0.00  0.00    +0.000 A 
ATOM     15  C   UNL     1      18.368  10.076  66.771  0.00  0.00    +0.000 A 
ATOM     16  C   UNL     1      18.254   9.657  64.495  0.00  0.00    +0.000 A 
ATOM     17  C   UNL     1      18.213   8.662  66.564  0.00  0.00    +0.000 A 
ATOM     18  C   UNL     1      17.861   7.570  67.515  0.00  0.00    +0.000 C 
BRANCH  14  19
ATOM     19  O   UNL     1      17.999  11.990  65.344  0.00  0.00    +0.000 OA
ATOM     20  H   UNL     1      18.482  12.462  64.629  0.00  0.00    +0.000 HD
ENDBRANCH  14  19
BRANCH  15  21
ATOM     21  O   UNL     1      17.869  10.743  67.858  0.00  0.00    +0.000 OA
ATOM     22  H   UNL     1      16.988  10.396  68.097  0.00  0.00    +0.000 HD
ENDBRANCH  15  21
ENDBRANCH   4  16
BRANCH  11  23
ATOM     23  O   UNL     1      17.582  10.231  56.901  0.00  0.00    +0.000 OA
BRANCH  23  24
ATOM     24  C   UNL     1      17.844   9.565  55.778  0.00  0.00    +0.000 C 
ATOM     25  C   UNL     1      18.147   8.796  54.488  0.00  0.00    +0.000 C 
BRANCH  25  26
ATOM     26  C   UNL     1      18.452   8.029  53.198  0.00  0.00    +0.000 C 
ATOM     27  C   UNL     1      18.760   7.256  51.913  0.00  0.00    +0.000 C 
ATOM     28  C   UNL     1      19.066   6.471  50.632  0.00  0.00    +0.000 C 
ENDBRANCH  25  26
ENDBRANCH  23  24
ENDBRANCH  11  23
TORSDOF 6
ENDMDL
MODEL 8
REMARK VINA RESULT:      -3.9      7.962     14.414
REMARK  Name = 60953_Capecitabine.pdbqt.pdb
REMARK  6 active torsions:
REMARK  status: ('A' for Active; 'I' for Inactive)
REMARK    1  A    between atoms: N_4  and  C_16
REMARK    2  A    between atoms: C_11  and  O_23
REMARK    3  A    between atoms: C_14  and  O_19
REMARK    4  A    between atoms: C_15  and  O_21
REMARK    5  A    between atoms: O_23  and  C_24
REMARK    6  A    between atoms: C_25  and  C_26
REMARK                            x       y       z     vdW  Elec       q    Type
REMARK                         _______ _______ _______ _____ _____    ______ ____
ROOT
ATOM      1  F   UNL     1      17.406   8.579  70.850  0.00  0.00    +0.000 F 
ATOM      2  O   UNL     1      16.489   4.843  67.122  0.00  0.00    +0.000 OA
ATOM      3  O   UNL     1      14.768   4.385  71.444  0.00  0.00    +0.000 OA
ATOM      4  N   UNL     1      17.637   6.761  67.754  0.00  0.00    +0.000 N 
ATOM      5  N   UNL     1      16.295   5.512  69.303  0.00  0.00    +0.000 NA
ATOM      6  N   UNL     1      16.104   6.290  71.518  0.00  0.00    +0.000 N 
ATOM      7  C   UNL     1      17.897   7.566  68.804  0.00  0.00    +0.000 C 
ATOM      8  C   UNL     1      16.793   5.647  68.000  0.00  0.00    +0.000 C 
ATOM      9  C   UNL     1      17.543   7.515  70.040  0.00  0.00    +0.000 C 
ATOM     10  C   UNL     1      16.609   6.361  70.236  0.00  0.00    +0.000 C 
ATOM     11  C   UNL     1      15.228   5.356  72.027  0.00  0.00    +0.000 C 
ATOM     12  H   UNL     1      16.368   7.007  72.180  0.00  0.00    +0.000 HD
ENDROOT
BRANCH   4  16
ATOM     13  O   UNL     1      18.040   8.334  65.959  0.00  0.00    +0.000 OA
ATOM     14  C   UNL     1      19.036   6.275  65.658  0.00  0.00    +0.000 A 
ATOM     15  C   UNL     1      19.301   7.077  64.503  0.00  0.00    +0.000 A 
ATOM     16  C   UNL     1      18.222   7.065  66.553  0.00  0.00    +0.000 A 
ATOM     17  C   UNL     1      18.686   8.359  64.713  0.00  0.00    +0.000 A 
ATOM     18  C   UNL     1      18.426   9.482  63.770  0.00  0.00    +0.000 C 
BRANCH  14  19
ATOM     19  O   UNL     1      18.980   4.916  65.534  0.00  0.00    +0.000 OA
ATOM     20  H   UNL     1      19.304   4.456  66.341  0.00  0.00    +0.000 HD
ENDBRANCH  14  19
BRANCH  15  21
ATOM     21  O   UNL     1      19.462   6.505  63.268  0.00  0.00    +0.000 OA
ATOM     22  H   UNL     1      18.971   5.663  63.215  0.00  0.00    +0.000 HD
ENDBRANCH  15  21
ENDBRANCH   4  16
BRANCH  11  23
ATOM     23  O   UNL     1      14.955   5.683  73.326  0.00  0.00    +0.000 OA
BRANCH  23  24
ATOM     24  C   UNL     1      13.960   5.008  73.896  0.00  0.00    +0.000 C 
ATOM     25  C   UNL     1      12.813   4.229  74.550  0.00  0.00    +0.000 C 
BRANCH  25  26
ATOM     26  C   UNL     1      11.667   3.450  75.202  0.00  0.00    +0.000 C 
ATOM     27  C   UNL     1      10.525   2.665  75.854  0.00  0.00    +0.000 C 
ATOM     28  C   UNL     1       9.391   1.871  76.511  0.00  0.00    +0.000 C 
ENDBRANCH  25  26
ENDBRANCH  23  24
ENDBRANCH  11  23
TORSDOF 6
ENDMDL
MODEL 9
REMARK VINA RESULT:      -3.9     14.752     17.608
REMARK  Name = 60953_Capecitabine.pdbqt.pdb
REMARK  6 active torsions:
REMARK  status: ('A' for Active; 'I' for Inactive)
REMARK    1  A    between atoms: N_4  and  C_16
REMARK    2  A    between atoms: C_11  and  O_23
REMARK    3  A    between atoms: C_14  and  O_19
REMARK    4  A    between atoms: C_15  and  O_21
REMARK    5  A    between atoms: O_23  and  C_24
REMARK    6  A    between atoms: C_25  and  C_26
REMARK                            x       y       z     vdW  Elec       q    Type
REMARK                         _______ _______ _______ _____ _____    ______ ____
ROOT
ATOM      1  F   UNL     1       6.730  13.079  70.037  0.00  0.00    +0.000 F 
ATOM      2  O   UNL     1       1.997  10.900  68.792  0.00  0.00    +0.000 OA
ATOM      3  O   UNL     1       3.741  14.436  66.279  0.00  0.00    +0.000 OA
ATOM      4  N   UNL     1       3.759  11.067  70.296  0.00  0.00    +0.000 N 
ATOM      5  N   UNL     1       3.553  12.535  68.410  0.00  0.00    +0.000 NA
ATOM      6  N   UNL     1       5.219  14.163  68.055  0.00  0.00    +0.000 N 
ATOM      7  C   UNL     1       4.873  11.772  70.580  0.00  0.00    +0.000 C 
ATOM      8  C   UNL     1       3.029  11.465  69.147  0.00  0.00    +0.000 C 
ATOM      9  C   UNL     1       5.417  12.791  70.014  0.00  0.00    +0.000 C 
ATOM     10  C   UNL     1       4.646  13.136  68.777  0.00  0.00    +0.000 C 
ATOM     11  C   UNL     1       4.766  14.720  66.880  0.00  0.00    +0.000 C 
ATOM     12  H   UNL     1       6.088  14.557  68.387  0.00  0.00    +0.000 HD
ENDROOT
BRANCH   4  16
ATOM     13  O   UNL     1       2.393  10.220  72.106  0.00  0.00    +0.000 OA
ATOM     14  C   UNL     1       3.941   8.712  71.301  0.00  0.00    +0.000 A 
ATOM     15  C   UNL     1       3.253   8.107  72.400  0.00  0.00    +0.000 A 
ATOM     16  C   UNL     1       3.412  10.047  71.144  0.00  0.00    +0.000 A 
ATOM     17  C   UNL     1       2.285   9.055  72.881  0.00  0.00    +0.000 A 
ATOM     18  C   UNL     1       1.473   9.072  74.130  0.00  0.00    +0.000 C 
BRANCH  14  19
ATOM     19  O   UNL     1       5.224   8.334  71.022  0.00  0.00    +0.000 OA
ATOM     20  H   UNL     1       5.462   7.482  71.451  0.00  0.00    +0.000 HD
ENDBRANCH  14  19
BRANCH  15  21
ATOM     21  O   UNL     1       3.873   7.183  73.200  0.00  0.00    +0.000 OA
ATOM     22  H   UNL     1       3.283   6.423  73.364  0.00  0.00    +0.000 HD
ENDBRANCH  15  21
ENDBRANCH   4  16
BRANCH  11  23
ATOM     23  O   UNL     1       5.657  15.678  66.484  0.00  0.00    +0.000 OA
BRANCH  23  24
ATOM     24  C   UNL     1       6.684  15.247  65.755  0.00  0.00    +0.000 C 
ATOM     25  C   UNL     1       7.865  14.750  64.914  0.00  0.00    +0.000 C 
BRANCH  25  26
ATOM     26  C   UNL     1       9.044  14.252  64.073  0.00  0.00    +0.000 C 
ATOM     27  C   UNL     1      10.220  13.758  63.226  0.00  0.00    +0.000 C 
ATOM     28  C   UNL     1      11.395  13.273  62.370  0.00  0.00    +0.000 C 
ENDBRANCH  25  26
ENDBRANCH  23  24
ENDBRANCH  11  23
TORSDOF 6
ENDMDL
