MODEL 1
REMARK VINA RESULT:      -4.0      0.000      0.000
REMARK  Name = 6223_Gliotoxin.pdbqt.pdb
REMARK  3 active torsions:
REMARK  status: ('A' for Active; 'I' for Inactive)
REMARK    1  A    between atoms: C_10  and  C_21
REMARK    2  A    between atoms: C_14  and  O_19
REMARK    3  A    between atoms: C_21  and  O_22
REMARK                            x       y       z     vdW  Elec       q    Type
REMARK                         _______ _______ _______ _____ _____    ______ ____
ROOT
ATOM      1  S   UNL     1       3.621   5.830  59.407  0.00  0.00    +0.000 S 
ATOM      2  S   UNL     1       2.933   4.789  61.051  0.00  0.00    +0.000 S 
ATOM      3  O   UNL     1       5.270   6.378  63.322  0.00  0.00    +0.000 OA
ATOM      4  O   UNL     1       6.478   3.773  58.917  0.00  0.00    +0.000 OA
ATOM      5  N   UNL     1       5.717   6.420  61.067  0.00  0.00    +0.000 N 
ATOM      6  N   UNL     1       5.479   3.713  61.045  0.00  0.00    +0.000 N 
ATOM      7  C   UNL     1       5.416   5.798  59.740  0.00  0.00    +0.000 C 
ATOM      8  C   UNL     1       6.466   7.588  60.924  0.00  0.00    +0.000 A 
ATOM      9  C   UNL     1       6.169   6.667  58.840  0.00  0.00    +0.000 C 
ATOM     10  C   UNL     1       4.535   4.451  61.948  0.00  0.00    +0.000 C 
ATOM     11  C   UNL     1       6.855   7.711  59.475  0.00  0.00    +0.000 A 
ATOM     12  C   UNL     1       5.211   5.833  62.221  0.00  0.00    +0.000 C 
ATOM     13  C   UNL     1       5.882   4.343  59.833  0.00  0.00    +0.000 C 
ATOM     14  C   UNL     1       6.550   8.767  61.818  0.00  0.00    +0.000 A 
ATOM     15  C   UNL     1       7.005   8.943  59.082  0.00  0.00    +0.000 A 
ATOM     16  C   UNL     1       6.833   9.968  61.081  0.00  0.00    +0.000 A 
ATOM     17  C   UNL     1       5.787   2.324  61.382  0.00  0.00    +0.000 C 
ATOM     18  C   UNL     1       7.033  10.228  59.924  0.00  0.00    +0.000 A 
ENDROOT
BRANCH  14  19
ATOM     19  O   UNL     1       5.926   8.824  63.031  0.00  0.00    +0.000 OA
ATOM     20  H   UNL     1       5.303   8.084  63.179  0.00  0.00    +0.000 HD
ENDBRANCH  14  19
BRANCH  10  21
ATOM     21  C   UNL     1       4.224   3.758  63.227  0.00  0.00    +0.000 C 
BRANCH  21  22
ATOM     22  O   UNL     1       3.959   3.146  64.384  0.00  0.00    +0.000 OA
ATOM     23  H   UNL     1       4.777   2.826  64.811  0.00  0.00    +0.000 HD
ENDBRANCH  21  22
ENDBRANCH  10  21
TORSDOF 3
ENDMDL
MODEL 2
REMARK VINA RESULT:      -3.9     12.942     14.609
REMARK  Name = 6223_Gliotoxin.pdbqt.pdb
REMARK  3 active torsions:
REMARK  status: ('A' for Active; 'I' for Inactive)
REMARK    1  A    between atoms: C_10  and  C_21
REMARK    2  A    between atoms: C_14  and  O_19
REMARK    3  A    between atoms: C_21  and  O_22
REMARK                            x       y       z     vdW  Elec       q    Type
REMARK                         _______ _______ _______ _____ _____    ______ ____
ROOT
ATOM      1  S   UNL     1       2.822   9.602  76.627  0.00  0.00    +0.000 S 
ATOM      2  S   UNL     1       3.903   7.988  77.324  0.00  0.00    +0.000 S 
ATOM      3  O   UNL     1       4.061   6.396  74.071  0.00  0.00    +0.000 OA
ATOM      4  O   UNL     1      -0.295   7.896  76.603  0.00  0.00    +0.000 OA
ATOM      5  N   UNL     1       2.449   7.993  74.444  0.00  0.00    +0.000 N 
ATOM      6  N   UNL     1       1.643   6.565  76.611  0.00  0.00    +0.000 N 
ATOM      7  C   UNL     1       1.684   8.751  75.482  0.00  0.00    +0.000 C 
ATOM      8  C   UNL     1       2.233   8.516  73.169  0.00  0.00    +0.000 A 
ATOM      9  C   UNL     1       0.922   9.681  74.653  0.00  0.00    +0.000 C 
ATOM     10  C   UNL     1       3.121   6.597  76.354  0.00  0.00    +0.000 C 
ATOM     11  C   UNL     1       1.157   9.563  73.276  0.00  0.00    +0.000 A 
ATOM     12  C   UNL     1       3.275   6.948  74.839  0.00  0.00    +0.000 C 
ATOM     13  C   UNL     1       0.874   7.712  76.261  0.00  0.00    +0.000 C 
ATOM     14  C   UNL     1       3.109   8.471  71.974  0.00  0.00    +0.000 A 
ATOM     15  C   UNL     1       1.261  10.506  72.385  0.00  0.00    +0.000 A 
ATOM     16  C   UNL     1       2.905   9.615  71.128  0.00  0.00    +0.000 A 
ATOM     17  C   UNL     1       1.114   5.428  77.363  0.00  0.00    +0.000 C 
ATOM     18  C   UNL     1       2.185  10.578  71.159  0.00  0.00    +0.000 A 
ENDROOT
BRANCH  14  19
ATOM     19  O   UNL     1       4.286   7.781  71.942  0.00  0.00    +0.000 OA
ATOM     20  H   UNL     1       4.687   7.662  72.827  0.00  0.00    +0.000 HD
ENDBRANCH  14  19
BRANCH  10  21
ATOM     21  C   UNL     1       3.838   5.334  76.676  0.00  0.00    +0.000 C 
BRANCH  21  22
ATOM     22  O   UNL     1       4.480   4.204  76.983  0.00  0.00    +0.000 OA
ATOM     23  H   UNL     1       4.757   4.198  77.919  0.00  0.00    +0.000 HD
ENDBRANCH  21  22
ENDBRANCH  10  21
TORSDOF 3
ENDMDL
MODEL 3
REMARK VINA RESULT:      -3.7     12.936     13.857
REMARK  Name = 6223_Gliotoxin.pdbqt.pdb
REMARK  3 active torsions:
REMARK  status: ('A' for Active; 'I' for Inactive)
REMARK    1  A    between atoms: C_10  and  C_21
REMARK    2  A    between atoms: C_14  and  O_19
REMARK    3  A    between atoms: C_21  and  O_22
REMARK                            x       y       z     vdW  Elec       q    Type
REMARK                         _______ _______ _______ _____ _____    ______ ____
ROOT
ATOM      1  S   UNL     1      19.686  11.624  57.224  0.00  0.00    +0.000 S 
ATOM      2  S   UNL     1      18.656  13.000  56.082  0.00  0.00    +0.000 S 
ATOM      3  O   UNL     1      15.716  12.899  58.201  0.00  0.00    +0.000 OA
ATOM      4  O   UNL     1      18.023   8.792  55.865  0.00  0.00    +0.000 OA
ATOM      5  N   UNL     1      17.215  11.159  58.305  0.00  0.00    +0.000 N 
ATOM      6  N   UNL     1      16.955  10.873  55.615  0.00  0.00    +0.000 N 
ATOM      7  C   UNL     1      18.337  10.457  57.608  0.00  0.00    +0.000 C 
ATOM      8  C   UNL     1      17.056  10.694  59.611  0.00  0.00    +0.000 A 
ATOM      9  C   UNL     1      18.720   9.466  58.610  0.00  0.00    +0.000 C 
ATOM     10  C   UNL     1      16.934  12.280  56.134  0.00  0.00    +0.000 C 
ATOM     11  C   UNL     1      17.972   9.514  59.794  0.00  0.00    +0.000 A 
ATOM     12  C   UNL     1      16.527  12.166  57.638  0.00  0.00    +0.000 C 
ATOM     13  C   UNL     1      17.756   9.915  56.300  0.00  0.00    +0.000 C 
ATOM     14  C   UNL     1      16.490  11.386  60.793  0.00  0.00    +0.000 A 
ATOM     15  C   UNL     1      18.380   9.361  61.021  0.00  0.00    +0.000 A 
ATOM     16  C   UNL     1      17.081  10.911  62.014  0.00  0.00    +0.000 A 
ATOM     17  C   UNL     1      16.289  10.615  54.339  0.00  0.00    +0.000 C 
ATOM     18  C   UNL     1      17.905  10.080  62.293  0.00  0.00    +0.000 A 
ENDROOT
BRANCH  14  19
ATOM     19  O   UNL     1      15.927  12.628  60.727  0.00  0.00    +0.000 OA
ATOM     20  H   UNL     1      15.528  12.914  61.574  0.00  0.00    +0.000 HD
ENDBRANCH  14  19
BRANCH  10  21
ATOM     21  C   UNL     1      16.014  13.199  55.411  0.00  0.00    +0.000 C 
BRANCH  21  22
ATOM     22  O   UNL     1      15.175  14.010  54.762  0.00  0.00    +0.000 OA
ATOM     23  H   UNL     1      14.326  14.093  55.235  0.00  0.00    +0.000 HD
ENDBRANCH  21  22
ENDBRANCH  10  21
TORSDOF 3
ENDMDL
MODEL 4
REMARK VINA RESULT:      -3.7      5.474      7.107
REMARK  Name = 6223_Gliotoxin.pdbqt.pdb
REMARK  3 active torsions:
REMARK  status: ('A' for Active; 'I' for Inactive)
REMARK    1  A    between atoms: C_10  and  C_21
REMARK    2  A    between atoms: C_14  and  O_19
REMARK    3  A    between atoms: C_21  and  O_22
REMARK                            x       y       z     vdW  Elec       q    Type
REMARK                         _______ _______ _______ _____ _____    ______ ____
ROOT
ATOM      1  S   UNL     1       6.847  13.279  60.252  0.00  0.00    +0.000 S 
ATOM      2  S   UNL     1       5.636  13.487  61.911  0.00  0.00    +0.000 S 
ATOM      3  O   UNL     1       8.358  12.959  64.246  0.00  0.00    +0.000 OA
ATOM      4  O   UNL     1       6.909   9.727  60.361  0.00  0.00    +0.000 OA
ATOM      5  N   UNL     1       8.612  12.251  62.074  0.00  0.00    +0.000 N 
ATOM      6  N   UNL     1       6.305  10.840  62.343  0.00  0.00    +0.000 N 
ATOM      7  C   UNL     1       7.906  11.899  60.803  0.00  0.00    +0.000 C 
ATOM      8  C   UNL     1       9.993  12.323  61.886  0.00  0.00    +0.000 A 
ATOM      9  C   UNL     1       9.034  11.663  59.905  0.00  0.00    +0.000 C 
ATOM     10  C   UNL     1       6.348  12.173  63.030  0.00  0.00    +0.000 C 
ATOM     11  C   UNL     1      10.294  11.844  60.491  0.00  0.00    +0.000 A 
ATOM     12  C   UNL     1       7.864  12.499  63.218  0.00  0.00    +0.000 C 
ATOM     13  C   UNL     1       7.025  10.689  61.123  0.00  0.00    +0.000 C 
ATOM     14  C   UNL     1      11.004  13.103  62.638  0.00  0.00    +0.000 A 
ATOM     15  C   UNL     1      11.360  12.386  59.976  0.00  0.00    +0.000 A 
ATOM     16  C   UNL     1      12.119  13.462  61.804  0.00  0.00    +0.000 A 
ATOM     17  C   UNL     1       5.387   9.835  62.877  0.00  0.00    +0.000 C 
ATOM     18  C   UNL     1      12.422  13.263  60.658  0.00  0.00    +0.000 A 
ENDROOT
BRANCH  14  19
ATOM     19  O   UNL     1      10.701  13.834  63.750  0.00  0.00    +0.000 OA
ATOM     20  H   UNL     1      10.218  14.661  63.548  0.00  0.00    +0.000 HD
ENDBRANCH  14  19
BRANCH  10  21
ATOM     21  C   UNL     1       5.635  12.226  64.335  0.00  0.00    +0.000 C 
BRANCH  21  22
ATOM     22  O   UNL     1       4.981  12.262  65.499  0.00  0.00    +0.000 OA
ATOM     23  H   UNL     1       5.554  12.594  66.216  0.00  0.00    +0.000 HD
ENDBRANCH  21  22
ENDBRANCH  10  21
TORSDOF 3
ENDMDL
MODEL 5
REMARK VINA RESULT:      -3.7     12.013     13.714
REMARK  Name = 6223_Gliotoxin.pdbqt.pdb
REMARK  3 active torsions:
REMARK  status: ('A' for Active; 'I' for Inactive)
REMARK    1  A    between atoms: C_10  and  C_21
REMARK    2  A    between atoms: C_14  and  O_19
REMARK    3  A    between atoms: C_21  and  O_22
REMARK                            x       y       z     vdW  Elec       q    Type
REMARK                         _______ _______ _______ _____ _____    ______ ____
ROOT
ATOM      1  S   UNL     1      18.206  13.363  58.671  0.00  0.00    +0.000 S 
ATOM      2  S   UNL     1      18.147  13.014  60.705  0.00  0.00    +0.000 S 
ATOM      3  O   UNL     1      18.404   9.418  60.327  0.00  0.00    +0.000 OA
ATOM      4  O   UNL     1      14.794  12.538  58.120  0.00  0.00    +0.000 OA
ATOM      5  N   UNL     1      17.720  10.673  58.527  0.00  0.00    +0.000 N 
ATOM      6  N   UNL     1      15.774  11.733  60.100  0.00  0.00    +0.000 N 
ATOM      7  C   UNL     1      17.160  11.988  58.083  0.00  0.00    +0.000 C 
ATOM      8  C   UNL     1      18.138   9.905  57.439  0.00  0.00    +0.000 A 
ATOM      9  C   UNL     1      17.195  11.838  56.631  0.00  0.00    +0.000 C 
ATOM     10  C   UNL     1      17.094  11.474  60.766  0.00  0.00    +0.000 C 
ATOM     11  C   UNL     1      17.710  10.613  56.182  0.00  0.00    +0.000 A 
ATOM     12  C   UNL     1      17.802  10.395  59.885  0.00  0.00    +0.000 C 
ATOM     13  C   UNL     1      15.776  12.102  58.724  0.00  0.00    +0.000 C 
ATOM     14  C   UNL     1      19.172   8.845  57.379  0.00  0.00    +0.000 A 
ATOM     15  C   UNL     1      18.490  10.383  55.166  0.00  0.00    +0.000 A 
ATOM     16  C   UNL     1      19.780   8.776  56.078  0.00  0.00    +0.000 A 
ATOM     17  C   UNL     1      14.584  11.759  60.949  0.00  0.00    +0.000 C 
ATOM     18  C   UNL     1      19.630   9.360  55.038  0.00  0.00    +0.000 A 
ENDROOT
BRANCH  14  19
ATOM     19  O   UNL     1      19.834   8.391  58.483  0.00  0.00    +0.000 OA
ATOM     20  H   UNL     1      20.527   9.007  58.797  0.00  0.00    +0.000 HD
ENDBRANCH  14  19
BRANCH  10  21
ATOM     21  C   UNL     1      17.001  11.019  62.179  0.00  0.00    +0.000 C 
BRANCH  21  22
ATOM     22  O   UNL     1      16.899  10.611  63.447  0.00  0.00    +0.000 OA
ATOM     23  H   UNL     1      16.087  10.089  63.586  0.00  0.00    +0.000 HD
ENDBRANCH  21  22
ENDBRANCH  10  21
TORSDOF 3
ENDMDL
MODEL 6
REMARK VINA RESULT:      -3.4     11.066     12.859
REMARK  Name = 6223_Gliotoxin.pdbqt.pdb
REMARK  3 active torsions:
REMARK  status: ('A' for Active; 'I' for Inactive)
REMARK    1  A    between atoms: C_10  and  C_21
REMARK    2  A    between atoms: C_14  and  O_19
REMARK    3  A    between atoms: C_21  and  O_22
REMARK                            x       y       z     vdW  Elec       q    Type
REMARK                         _______ _______ _______ _____ _____    ______ ____
ROOT
ATOM      1  S   UNL     1      16.968  14.102  59.107  0.00  0.00    +0.000 S 
ATOM      2  S   UNL     1      15.250  14.124  60.252  0.00  0.00    +0.000 S 
ATOM      3  O   UNL     1      15.416  10.576  60.977  0.00  0.00    +0.000 OA
ATOM      4  O   UNL     1      15.387  12.788  56.208  0.00  0.00    +0.000 OA
ATOM      5  N   UNL     1      16.588  11.392  59.177  0.00  0.00    +0.000 N 
ATOM      6  N   UNL     1      14.274  12.479  58.257  0.00  0.00    +0.000 N 
ATOM      7  C   UNL     1      16.734  12.528  58.214  0.00  0.00    +0.000 C 
ATOM      8  C   UNL     1      17.652  10.495  59.070  0.00  0.00    +0.000 A 
ATOM      9  C   UNL     1      17.923  12.122  57.470  0.00  0.00    +0.000 C 
ATOM     10  C   UNL     1      14.470  12.505  59.744  0.00  0.00    +0.000 C 
ATOM     11  C   UNL     1      18.486  10.908  57.887  0.00  0.00    +0.000 A 
ATOM     12  C   UNL     1      15.508  11.377  60.050  0.00  0.00    +0.000 C 
ATOM     13  C   UNL     1      15.425  12.591  57.424  0.00  0.00    +0.000 C 
ATOM     14  C   UNL     1      18.211   9.574  60.087  0.00  0.00    +0.000 A 
ATOM     15  C   UNL     1      19.743  10.592  58.004  0.00  0.00    +0.000 A 
ATOM     16  C   UNL     1      19.613   9.343  59.875  0.00  0.00    +0.000 A 
ATOM     17  C   UNL     1      12.900  12.516  57.758  0.00  0.00    +0.000 C 
ATOM     18  C   UNL     1      20.421   9.706  59.062  0.00  0.00    +0.000 A 
ENDROOT
BRANCH  14  19
ATOM     19  O   UNL     1      17.656   9.410  61.324  0.00  0.00    +0.000 OA
ATOM     20  H   UNL     1      16.909  10.018  61.494  0.00  0.00    +0.000 HD
ENDBRANCH  14  19
BRANCH  10  21
ATOM     21  C   UNL     1      13.230  12.307  60.541  0.00  0.00    +0.000 C 
BRANCH  21  22
ATOM     22  O   UNL     1      12.124  12.140  61.270  0.00  0.00    +0.000 OA
ATOM     23  H   UNL     1      11.340  12.023  60.701  0.00  0.00    +0.000 HD
ENDBRANCH  21  22
ENDBRANCH  10  21
TORSDOF 3
ENDMDL
MODEL 7
REMARK VINA RESULT:      -3.4     10.277     12.206
REMARK  Name = 6223_Gliotoxin.pdbqt.pdb
REMARK  3 active torsions:
REMARK  status: ('A' for Active; 'I' for Inactive)
REMARK    1  A    between atoms: C_10  and  C_21
REMARK    2  A    between atoms: C_14  and  O_19
REMARK    3  A    between atoms: C_21  and  O_22
REMARK                            x       y       z     vdW  Elec       q    Type
REMARK                         _______ _______ _______ _____ _____    ______ ____
ROOT
ATOM      1  S   UNL     1      15.649  14.569  57.021  0.00  0.00    +0.000 S 
ATOM      2  S   UNL     1      14.781  14.582  55.148  0.00  0.00    +0.000 S 
ATOM      3  O   UNL     1      12.002  12.491  56.171  0.00  0.00    +0.000 OA
ATOM      4  O   UNL     1      17.110  11.349  56.658  0.00  0.00    +0.000 OA
ATOM      5  N   UNL     1      13.909  12.500  57.454  0.00  0.00    +0.000 N 
ATOM      6  N   UNL     1      15.324  11.873  55.221  0.00  0.00    +0.000 N 
ATOM      7  C   UNL     1      15.369  12.827  57.488  0.00  0.00    +0.000 C 
ATOM      8  C   UNL     1      13.425  12.197  58.727  0.00  0.00    +0.000 A 
ATOM      9  C   UNL     1      15.688  12.563  58.889  0.00  0.00    +0.000 C 
ATOM     10  C   UNL     1      14.176  12.819  55.030  0.00  0.00    +0.000 C 
ATOM     11  C   UNL     1      14.601  12.138  59.665  0.00  0.00    +0.000 A 
ATOM     12  C   UNL     1      13.226  12.575  56.246  0.00  0.00    +0.000 C 
ATOM     13  C   UNL     1      16.036  11.917  56.454  0.00  0.00    +0.000 C 
ATOM     14  C   UNL     1      12.051  12.327  59.266  0.00  0.00    +0.000 A 
ATOM     15  C   UNL     1      14.302  12.458  60.891  0.00  0.00    +0.000 A 
ATOM     16  C   UNL     1      12.062  12.576  60.681  0.00  0.00    +0.000 A 
ATOM     17  C   UNL     1      15.749  11.086  54.063  0.00  0.00    +0.000 C 
ATOM     18  C   UNL     1      12.918  12.684  61.519  0.00  0.00    +0.000 A 
ENDROOT
BRANCH  14  19
ATOM     19  O   UNL     1      10.986  12.705  58.500  0.00  0.00    +0.000 OA
ATOM     20  H   UNL     1      10.278  12.030  58.467  0.00  0.00    +0.000 HD
ENDBRANCH  14  19
BRANCH  10  21
ATOM     21  C   UNL     1      13.439  12.656  53.748  0.00  0.00    +0.000 C 
BRANCH  21  22
ATOM     22  O   UNL     1      12.792  12.518  52.588  0.00  0.00    +0.000 OA
ATOM     23  H   UNL     1      13.389  12.198  51.886  0.00  0.00    +0.000 HD
ENDBRANCH  21  22
ENDBRANCH  10  21
TORSDOF 3
ENDMDL
MODEL 8
REMARK VINA RESULT:      -3.4     13.636     14.579
REMARK  Name = 6223_Gliotoxin.pdbqt.pdb
REMARK  3 active torsions:
REMARK  status: ('A' for Active; 'I' for Inactive)
REMARK    1  A    between atoms: C_10  and  C_21
REMARK    2  A    between atoms: C_14  and  O_19
REMARK    3  A    between atoms: C_21  and  O_22
REMARK                            x       y       z     vdW  Elec       q    Type
REMARK                         _______ _______ _______ _____ _____    ______ ____
ROOT
ATOM      1  S   UNL     1      19.506   3.003  68.768  0.00  0.00    +0.000 S 
ATOM      2  S   UNL     1      20.004   4.774  67.830  0.00  0.00    +0.000 S 
ATOM      3  O   UNL     1      16.582   5.969  67.768  0.00  0.00    +0.000 OA
ATOM      4  O   UNL     1      18.333   1.412  65.815  0.00  0.00    +0.000 OA
ATOM      5  N   UNL     1      16.963   3.719  68.052  0.00  0.00    +0.000 N 
ATOM      6  N   UNL     1      18.452   3.761  65.780  0.00  0.00    +0.000 N 
ATOM      7  C   UNL     1      17.953   2.609  67.895  0.00  0.00    +0.000 C 
ATOM      8  C   UNL     1      15.847   3.308  68.782  0.00  0.00    +0.000 A 
ATOM      9  C   UNL     1      17.232   1.495  68.508  0.00  0.00    +0.000 C 
ATOM     10  C   UNL     1      18.561   4.969  66.662  0.00  0.00    +0.000 C 
ATOM     11  C   UNL     1      15.963   1.824  69.005  0.00  0.00    +0.000 A 
ATOM     12  C   UNL     1      17.262   4.972  67.530  0.00  0.00    +0.000 C 
ATOM     13  C   UNL     1      18.235   2.495  66.396  0.00  0.00    +0.000 C 
ATOM     14  C   UNL     1      14.916   4.112  69.608  0.00  0.00    +0.000 A 
ATOM     15  C   UNL     1      15.389   1.418  70.100  0.00  0.00    +0.000 A 
ATOM     16  C   UNL     1      14.363   3.337  70.685  0.00  0.00    +0.000 A 
ATOM     17  C   UNL     1      18.749   3.935  64.358  0.00  0.00    +0.000 C 
ATOM     18  C   UNL     1      14.469   2.197  71.053  0.00  0.00    +0.000 A 
ENDROOT
BRANCH  14  19
ATOM     19  O   UNL     1      14.984   5.473  69.692  0.00  0.00    +0.000 OA
ATOM     20  H   UNL     1      15.307   5.894  68.869  0.00  0.00    +0.000 HD
ENDBRANCH  14  19
BRANCH  10  21
ATOM     21  C   UNL     1      18.710   6.260  65.938  0.00  0.00    +0.000 C 
BRANCH  21  22
ATOM     22  O   UNL     1      18.825   7.419  65.285  0.00  0.00    +0.000 OA
ATOM     23  H   UNL     1      17.994   7.929  65.319  0.00  0.00    +0.000 HD
ENDBRANCH  21  22
ENDBRANCH  10  21
TORSDOF 3
ENDMDL
MODEL 9
REMARK VINA RESULT:      -3.3      5.525      6.240
REMARK  Name = 6223_Gliotoxin.pdbqt.pdb
REMARK  3 active torsions:
REMARK  status: ('A' for Active; 'I' for Inactive)
REMARK    1  A    between atoms: C_10  and  C_21
REMARK    2  A    between atoms: C_14  and  O_19
REMARK    3  A    between atoms: C_21  and  O_22
REMARK                            x       y       z     vdW  Elec       q    Type
REMARK                         _______ _______ _______ _____ _____    ______ ____
ROOT
ATOM      1  S   UNL     1      -0.136   3.775  64.659  0.00  0.00    +0.000 S 
ATOM      2  S   UNL     1       0.276   2.523  66.247  0.00  0.00    +0.000 S 
ATOM      3  O   UNL     1       2.256   5.010  67.990  0.00  0.00    +0.000 OA
ATOM      4  O   UNL     1       3.010   3.306  63.074  0.00  0.00    +0.000 OA
ATOM      5  N   UNL     1       1.888   5.271  65.736  0.00  0.00    +0.000 N 
ATOM      6  N   UNL     1       2.882   2.770  65.360  0.00  0.00    +0.000 N 
ATOM      7  C   UNL     1       1.486   4.589  64.467  0.00  0.00    +0.000 C 
ATOM      8  C   UNL     1       1.951   6.655  65.572  0.00  0.00    +0.000 A 
ATOM      9  C   UNL     1       1.443   5.715  63.538  0.00  0.00    +0.000 C 
ATOM     10  C   UNL     1       2.055   2.973  66.595  0.00  0.00    +0.000 C 
ATOM     11  C   UNL     1       1.757   6.956  64.110  0.00  0.00    +0.000 A 
ATOM     12  C   UNL     1       2.095   4.508  66.879  0.00  0.00    +0.000 C 
ATOM     13  C   UNL     1       2.551   3.523  64.197  0.00  0.00    +0.000 C 
ATOM     14  C   UNL     1       1.784   7.729  66.580  0.00  0.00    +0.000 A 
ATOM     15  C   UNL     1       1.210   8.116  63.888  0.00  0.00    +0.000 A 
ATOM     16  C   UNL     1       1.253   8.927  65.989  0.00  0.00    +0.000 A 
ATOM     17  C   UNL     1       3.865   1.687  65.376  0.00  0.00    +0.000 C 
ATOM     18  C   UNL     1       0.934   9.258  64.878  0.00  0.00    +0.000 A 
ENDROOT
BRANCH  14  19
ATOM     19  O   UNL     1       1.626   7.479  67.912  0.00  0.00    +0.000 OA
ATOM     20  H   UNL     1       1.105   8.167  68.373  0.00  0.00    +0.000 HD
ENDBRANCH  14  19
BRANCH  10  21
ATOM     21  C   UNL     1       2.512   2.207  67.785  0.00  0.00    +0.000 C 
BRANCH  21  22
ATOM     22  O   UNL     1       2.911   1.529  68.865  0.00  0.00    +0.000 OA
ATOM     23  H   UNL     1       2.272   1.621  69.596  0.00  0.00    +0.000 HD
ENDBRANCH  21  22
ENDBRANCH  10  21
TORSDOF 3
ENDMDL
