MODEL 1
REMARK VINA RESULT:      -3.9      0.000      0.000
REMARK  Name = 6256_Trifluridine.pdbqt.pdb
REMARK  5 active torsions:
REMARK  status: ('A' for Active; 'I' for Inactive)
REMARK    1  A    between atoms: N_3  and  C1*_11
REMARK    2  A    between atoms: C_7  and  C_23
REMARK    3  A    between atoms: C3*_12  and  O3*_15
REMARK    4  A    between atoms: C4*_14  and  C5*_17
REMARK    5  A    between atoms: C5*_17  and  O5*_18
REMARK                            x       y       z     vdW  Elec       q    Type
REMARK                         _______ _______ _______ _____ _____    ______ ____
ROOT
ATOM      1  O   UNL     1       1.605   7.888  76.366  0.00  0.00    +0.000 OA
ATOM      2  O   UNL     1       0.919   9.861  72.280  0.00  0.00    +0.000 OA
ATOM      3  N   UNL     1       3.162   7.441  74.638  0.00  0.00    +0.000 N 
ATOM      4  N   UNL     1       1.319   8.852  74.301  0.00  0.00    +0.000 N 
ATOM      5  C   UNL     1       3.411   7.740  73.348  0.00  0.00    +0.000 A 
ATOM      6  C   UNL     1       2.015   8.027  75.219  0.00  0.00    +0.000 A 
ATOM      7  C   UNL     1       2.843   8.467  72.441  0.00  0.00    +0.000 A 
ATOM      8  C   UNL     1       1.620   9.129  72.962  0.00  0.00    +0.000 A 
ATOM      9  H   UNL     1       0.489   9.294  74.669  0.00  0.00    +0.000 HD
ENDROOT
BRANCH   3  11
ATOM     10  O4* UNL     1       5.245   7.028  75.795  0.00  0.00    +0.000 OA
ATOM     11  C1* UNL     1       4.009   6.599  75.300  0.00  0.00    +0.000 A 
ATOM     12  C3* UNL     1       4.979   4.776  76.263  0.00  0.00    +0.000 A 
ATOM     13  C2* UNL     1       3.841   5.227  75.572  0.00  0.00    +0.000 A 
ATOM     14  C4* UNL     1       5.853   5.914  76.389  0.00  0.00    +0.000 A 
BRANCH  12  15
ATOM     15  O3* UNL     1       5.482   3.509  76.168  0.00  0.00    +0.000 OA
ATOM     16  H3* UNL     1       5.711   3.293  75.247  0.00  0.00    +0.000 HD
ENDBRANCH  12  15
BRANCH  14  17
ATOM     17  C5* UNL     1       7.196   5.923  76.814  0.00  0.00    +0.000 C 
BRANCH  17  18
ATOM     18  O5* UNL     1       8.465   5.933  77.212  0.00  0.00    +0.000 OA
ATOM     19  H5* UNL     1       8.764   5.028  77.406  0.00  0.00    +0.000 HD
ENDBRANCH  17  18
ENDBRANCH  14  17
ENDBRANCH   3  11
BRANCH   7  23
ATOM     20  F   UNL     1       3.435  10.001  70.761  0.00  0.00    +0.000 F 
ATOM     21  F   UNL     1       4.367   8.039  70.713  0.00  0.00    +0.000 F 
ATOM     22  F   UNL     1       2.274   8.242  70.172  0.00  0.00    +0.000 F 
ATOM     23  C   UNL     1       3.216   8.691  71.039  0.00  0.00    +0.000 C 
ENDBRANCH   7  23
TORSDOF 5
ENDMDL
MODEL 2
REMARK VINA RESULT:      -3.4     24.504     26.055
REMARK  Name = 6256_Trifluridine.pdbqt.pdb
REMARK  5 active torsions:
REMARK  status: ('A' for Active; 'I' for Inactive)
REMARK    1  A    between atoms: N_3  and  C1*_11
REMARK    2  A    between atoms: C_7  and  C_23
REMARK    3  A    between atoms: C3*_12  and  O3*_15
REMARK    4  A    between atoms: C4*_14  and  C5*_17
REMARK    5  A    between atoms: C5*_17  and  O5*_18
REMARK                            x       y       z     vdW  Elec       q    Type
REMARK                         _______ _______ _______ _____ _____    ______ ____
ROOT
ATOM      1  O   UNL     1      15.298   2.429  50.814  0.00  0.00    +0.000 OA
ATOM      2  O   UNL     1      19.569   2.968  52.407  0.00  0.00    +0.000 OA
ATOM      3  N   UNL     1      15.985   1.083  52.638  0.00  0.00    +0.000 N 
ATOM      4  N   UNL     1      17.421   2.658  51.660  0.00  0.00    +0.000 N 
ATOM      5  C   UNL     1      17.050   0.856  53.431  0.00  0.00    +0.000 A 
ATOM      6  C   UNL     1      16.132   2.070  51.637  0.00  0.00    +0.000 A 
ATOM      7  C   UNL     1      18.249   1.330  53.526  0.00  0.00    +0.000 A 
ATOM      8  C   UNL     1      18.500   2.382  52.508  0.00  0.00    +0.000 A 
ATOM      9  H   UNL     1      17.578   3.370  50.962  0.00  0.00    +0.000 HD
ENDROOT
BRANCH   3  11
ATOM     10  O4* UNL     1      14.160  -0.250  51.777  0.00  0.00    +0.000 OA
ATOM     11  C1* UNL     1      14.844   0.359  52.834  0.00  0.00    +0.000 A 
ATOM     12  C3* UNL     1      13.026  -0.663  53.753  0.00  0.00    +0.000 A 
ATOM     13  C2* UNL     1      14.156   0.122  54.041  0.00  0.00    +0.000 A 
ATOM     14  C4* UNL     1      13.038  -0.881  52.328  0.00  0.00    +0.000 A 
BRANCH  12  15
ATOM     15  O3* UNL     1      11.849  -0.596  54.445  0.00  0.00    +0.000 OA
ATOM     16  H3* UNL     1      11.274   0.102  54.087  0.00  0.00    +0.000 HD
ENDBRANCH  12  15
BRANCH  14  17
ATOM     17  C5* UNL     1      12.009  -1.425  51.534  0.00  0.00    +0.000 C 
BRANCH  17  18
ATOM     18  O5* UNL     1      11.038  -1.942  50.787  0.00  0.00    +0.000 OA
ATOM     19  H5* UNL     1      11.074  -1.573  49.888  0.00  0.00    +0.000 HD
ENDBRANCH  17  18
ENDBRANCH  14  17
ENDBRANCH   3  11
BRANCH   7  23
ATOM     20  F   UNL     1      20.208   0.082  53.892  0.00  0.00    +0.000 F 
ATOM     21  F   UNL     1      20.083   2.055  54.792  0.00  0.00    +0.000 F 
ATOM     22  F   UNL     1      18.889   0.433  55.602  0.00  0.00    +0.000 F 
ATOM     23  C   UNL     1      19.340   0.969  54.441  0.00  0.00    +0.000 C 
ENDBRANCH   7  23
TORSDOF 5
ENDMDL
MODEL 3
REMARK VINA RESULT:      -3.4     13.105     14.770
REMARK  Name = 6256_Trifluridine.pdbqt.pdb
REMARK  5 active torsions:
REMARK  status: ('A' for Active; 'I' for Inactive)
REMARK    1  A    between atoms: N_3  and  C1*_11
REMARK    2  A    between atoms: C_7  and  C_23
REMARK    3  A    between atoms: C3*_12  and  O3*_15
REMARK    4  A    between atoms: C4*_14  and  C5*_17
REMARK    5  A    between atoms: C5*_17  and  O5*_18
REMARK                            x       y       z     vdW  Elec       q    Type
REMARK                         _______ _______ _______ _____ _____    ______ ____
ROOT
ATOM      1  O   UNL     1      18.433   5.148  70.265  0.00  0.00    +0.000 OA
ATOM      2  O   UNL     1      15.801   8.775  71.254  0.00  0.00    +0.000 OA
ATOM      3  N   UNL     1      16.783   5.788  68.691  0.00  0.00    +0.000 N 
ATOM      4  N   UNL     1      17.090   6.959  70.700  0.00  0.00    +0.000 N 
ATOM      5  C   UNL     1      15.816   6.708  68.501  0.00  0.00    +0.000 A 
ATOM      6  C   UNL     1      17.521   5.877  69.893  0.00  0.00    +0.000 A 
ATOM      7  C   UNL     1      15.353   7.714  69.168  0.00  0.00    +0.000 A 
ATOM      8  C   UNL     1      16.072   7.889  70.456  0.00  0.00    +0.000 A 
ATOM      9  H   UNL     1      17.586   7.065  71.573  0.00  0.00    +0.000 HD
ENDROOT
BRANCH   3  11
ATOM     10  O4* UNL     1      17.895   5.020  66.686  0.00  0.00    +0.000 OA
ATOM     11  C1* UNL     1      16.990   4.835  67.737  0.00  0.00    +0.000 A 
ATOM     12  C3* UNL     1      16.883   2.949  66.461  0.00  0.00    +0.000 A 
ATOM     13  C2* UNL     1      16.361   3.581  67.603  0.00  0.00    +0.000 A 
ATOM     14  C4* UNL     1      17.838   3.867  65.892  0.00  0.00    +0.000 A 
BRANCH  12  15
ATOM     15  O3* UNL     1      16.175   2.090  65.668  0.00  0.00    +0.000 OA
ATOM     16  H3* UNL     1      15.958   2.502  64.814  0.00  0.00    +0.000 HD
ENDBRANCH  12  15
BRANCH  14  17
ATOM     17  C5* UNL     1      18.466   3.783  64.634  0.00  0.00    +0.000 C 
BRANCH  17  18
ATOM     18  O5* UNL     1      19.055   3.705  63.444  0.00  0.00    +0.000 OA
ATOM     19  H5* UNL     1      19.885   4.213  63.446  0.00  0.00    +0.000 HD
ENDBRANCH  17  18
ENDBRANCH  14  17
ENDBRANCH   3  11
BRANCH   7  23
ATOM     20  F   UNL     1      14.698   9.891  68.572  0.00  0.00    +0.000 F 
ATOM     21  F   UNL     1      13.563   8.232  67.749  0.00  0.00    +0.000 F 
ATOM     22  F   UNL     1      13.350   8.735  69.850  0.00  0.00    +0.000 F 
ATOM     23  C   UNL     1      14.258   8.638  68.848  0.00  0.00    +0.000 C 
ENDBRANCH   7  23
TORSDOF 5
ENDMDL
MODEL 4
REMARK VINA RESULT:      -3.3      4.127      5.647
REMARK  Name = 6256_Trifluridine.pdbqt.pdb
REMARK  5 active torsions:
REMARK  status: ('A' for Active; 'I' for Inactive)
REMARK    1  A    between atoms: N_3  and  C1*_11
REMARK    2  A    between atoms: C_7  and  C_23
REMARK    3  A    between atoms: C3*_12  and  O3*_15
REMARK    4  A    between atoms: C4*_14  and  C5*_17
REMARK    5  A    between atoms: C5*_17  and  O5*_18
REMARK                            x       y       z     vdW  Elec       q    Type
REMARK                         _______ _______ _______ _____ _____    ______ ____
ROOT
ATOM      1  O   UNL     1       0.638  11.000  69.998  0.00  0.00    +0.000 OA
ATOM      2  O   UNL     1      -0.250   8.152  66.510  0.00  0.00    +0.000 OA
ATOM      3  N   UNL     1       1.958   9.044  69.794  0.00  0.00    +0.000 N 
ATOM      4  N   UNL     1       0.247   9.540  68.269  0.00  0.00    +0.000 N 
ATOM      5  C   UNL     1       2.106   7.955  69.013  0.00  0.00    +0.000 A 
ATOM      6  C   UNL     1       0.942   9.957  69.431  0.00  0.00    +0.000 A 
ATOM      7  C   UNL     1       1.528   7.493  67.953  0.00  0.00    +0.000 A 
ATOM      8  C   UNL     1       0.438   8.391  67.493  0.00  0.00    +0.000 A 
ATOM      9  H   UNL     1      -0.493  10.159  67.969  0.00  0.00    +0.000 HD
ENDROOT
BRANCH   3  11
ATOM     10  O4* UNL     1       3.963   9.939  70.808  0.00  0.00    +0.000 OA
ATOM     11  C1* UNL     1       2.776   9.202  70.875  0.00  0.00    +0.000 A 
ATOM     12  C3* UNL     1       3.720   9.085  72.946  0.00  0.00    +0.000 A 
ATOM     13  C2* UNL     1       2.624   8.669  72.171  0.00  0.00    +0.000 A 
ATOM     14  C4* UNL     1       4.555   9.874  72.076  0.00  0.00    +0.000 A 
BRANCH  12  15
ATOM     15  O3* UNL     1       4.260   8.353  73.966  0.00  0.00    +0.000 OA
ATOM     16  H3* UNL     1       5.176   8.629  74.146  0.00  0.00    +0.000 HD
ENDBRANCH  12  15
BRANCH  14  17
ATOM     17  C5* UNL     1       5.864  10.332  72.324  0.00  0.00    +0.000 C 
BRANCH  17  18
ATOM     18  O5* UNL     1       7.099  10.762  72.562  0.00  0.00    +0.000 OA
ATOM     19  H5* UNL     1       7.568  10.917  71.723  0.00  0.00    +0.000 HD
ENDBRANCH  17  18
ENDBRANCH  14  17
ENDBRANCH   3  11
BRANCH   7  23
ATOM     20  F   UNL     1       2.277   6.491  65.963  0.00  0.00    +0.000 F 
ATOM     21  F   UNL     1       2.689   5.462  67.830  0.00  0.00    +0.000 F 
ATOM     22  F   UNL     1       0.661   5.501  67.057  0.00  0.00    +0.000 F 
ATOM     23  C   UNL     1       1.778   6.256  67.202  0.00  0.00    +0.000 C 
ENDBRANCH   7  23
TORSDOF 5
ENDMDL
MODEL 5
REMARK VINA RESULT:      -3.2     15.460     16.837
REMARK  Name = 6256_Trifluridine.pdbqt.pdb
REMARK  5 active torsions:
REMARK  status: ('A' for Active; 'I' for Inactive)
REMARK    1  A    between atoms: N_3  and  C1*_11
REMARK    2  A    between atoms: C_7  and  C_23
REMARK    3  A    between atoms: C3*_12  and  O3*_15
REMARK    4  A    between atoms: C4*_14  and  C5*_17
REMARK    5  A    between atoms: C5*_17  and  O5*_18
REMARK                            x       y       z     vdW  Elec       q    Type
REMARK                         _______ _______ _______ _____ _____    ______ ____
ROOT
ATOM      1  O   UNL     1      15.420  -3.238  65.411  0.00  0.00    +0.000 OA
ATOM      2  O   UNL     1      11.820  -2.738  68.214  0.00  0.00    +0.000 OA
ATOM      3  N   UNL     1      13.786  -1.618  64.848  0.00  0.00    +0.000 N 
ATOM      4  N   UNL     1      13.599  -2.936  66.778  0.00  0.00    +0.000 N 
ATOM      5  C   UNL     1      12.621  -1.105  65.291  0.00  0.00    +0.000 A 
ATOM      6  C   UNL     1      14.374  -2.637  65.630  0.00  0.00    +0.000 A 
ATOM      7  C   UNL     1      11.848  -1.311  66.307  0.00  0.00    +0.000 A 
ATOM      8  C   UNL     1      12.387  -2.373  67.194  0.00  0.00    +0.000 A 
ATOM      9  H   UNL     1      13.977  -3.661  67.371  0.00  0.00    +0.000 HD
ENDROOT
BRANCH   3  11
ATOM     10  O4* UNL     1      15.425  -0.281  63.676  0.00  0.00    +0.000 OA
ATOM     11  C1* UNL     1      14.322  -1.141  63.686  0.00  0.00    +0.000 A 
ATOM     12  C3* UNL     1      14.738  -0.661  61.497  0.00  0.00    +0.000 A 
ATOM     13  C2* UNL     1      13.890  -1.371  62.365  0.00  0.00    +0.000 A 
ATOM     14  C4* UNL     1      15.691   0.024  62.334  0.00  0.00    +0.000 A 
BRANCH  12  15
ATOM     15  O3* UNL     1      14.343  -0.130  60.302  0.00  0.00    +0.000 OA
ATOM     16  H3* UNL     1      14.029  -0.825  59.698  0.00  0.00    +0.000 HD
ENDBRANCH  12  15
BRANCH  14  17
ATOM     17  C5* UNL     1      16.607   1.023  61.953  0.00  0.00    +0.000 C 
BRANCH  17  18
ATOM     18  O5* UNL     1      17.472   1.966  61.588  0.00  0.00    +0.000 OA
ATOM     19  H5* UNL     1      18.278   1.560  61.226  0.00  0.00    +0.000 HD
ENDBRANCH  17  18
ENDBRANCH  14  17
ENDBRANCH   3  11
BRANCH   7  23
ATOM     20  F   UNL     1       9.509  -1.504  66.449  0.00  0.00    +0.000 F 
ATOM     21  F   UNL     1      10.524  -0.349  67.983  0.00  0.00    +0.000 F 
ATOM     22  F   UNL     1      10.343   0.464  65.978  0.00  0.00    +0.000 F 
ATOM     23  C   UNL     1      10.569  -0.684  66.664  0.00  0.00    +0.000 C 
ENDBRANCH   7  23
TORSDOF 5
ENDMDL
MODEL 6
REMARK VINA RESULT:      -3.1     10.249     12.946
REMARK  Name = 6256_Trifluridine.pdbqt.pdb
REMARK  5 active torsions:
REMARK  status: ('A' for Active; 'I' for Inactive)
REMARK    1  A    between atoms: N_3  and  C1*_11
REMARK    2  A    between atoms: C_7  and  C_23
REMARK    3  A    between atoms: C3*_12  and  O3*_15
REMARK    4  A    between atoms: C4*_14  and  C5*_17
REMARK    5  A    between atoms: C5*_17  and  O5*_18
REMARK                            x       y       z     vdW  Elec       q    Type
REMARK                         _______ _______ _______ _____ _____    ______ ____
ROOT
ATOM      1  O   UNL     1       5.081   4.333  62.011  0.00  0.00    +0.000 OA
ATOM      2  O   UNL     1       1.860   4.905  65.231  0.00  0.00    +0.000 OA
ATOM      3  N   UNL     1       4.444   6.545  62.568  0.00  0.00    +0.000 N 
ATOM      4  N   UNL     1       3.480   4.684  63.620  0.00  0.00    +0.000 N 
ATOM      5  C   UNL     1       3.610   7.223  63.382  0.00  0.00    +0.000 A 
ATOM      6  C   UNL     1       4.414   5.135  62.655  0.00  0.00    +0.000 A 
ATOM      7  C   UNL     1       2.733   6.906  64.277  0.00  0.00    +0.000 A 
ATOM      8  C   UNL     1       2.630   5.434  64.441  0.00  0.00    +0.000 A 
ATOM      9  H   UNL     1       3.419   3.680  63.719  0.00  0.00    +0.000 HD
ENDROOT
BRANCH   3  11
ATOM     10  O4* UNL     1       5.105   7.168  60.327  0.00  0.00    +0.000 OA
ATOM     11  C1* UNL     1       5.252   7.241  61.716  0.00  0.00    +0.000 A 
ATOM     12  C3* UNL     1       6.879   8.568  60.830  0.00  0.00    +0.000 A 
ATOM     13  C2* UNL     1       6.336   8.083  62.033  0.00  0.00    +0.000 A 
ATOM     14  C4* UNL     1       6.101   7.979  59.769  0.00  0.00    +0.000 A 
BRANCH  12  15
ATOM     15  O3* UNL     1       8.200   8.867  60.650  0.00  0.00    +0.000 OA
ATOM     16  H3* UNL     1       8.419   9.729  61.046  0.00  0.00    +0.000 HD
ENDBRANCH  12  15
BRANCH  14  17
ATOM     17  C5* UNL     1       6.385   7.988  58.389  0.00  0.00    +0.000 C 
BRANCH  17  18
ATOM     18  O5* UNL     1       6.649   7.998  57.086  0.00  0.00    +0.000 OA
ATOM     19  H5* UNL     1       6.408   8.859  56.701  0.00  0.00    +0.000 HD
ENDBRANCH  17  18
ENDBRANCH  14  17
ENDBRANCH   3  11
BRANCH   7  23
ATOM     20  F   UNL     1       2.059   9.084  64.853  0.00  0.00    +0.000 F 
ATOM     21  F   UNL     1       0.543   7.529  64.830  0.00  0.00    +0.000 F 
ATOM     22  F   UNL     1       2.020   7.557  66.420  0.00  0.00    +0.000 F 
ATOM     23  C   UNL     1       1.859   7.762  65.090  0.00  0.00    +0.000 C 
ENDBRANCH   7  23
TORSDOF 5
ENDMDL
MODEL 7
REMARK VINA RESULT:      -2.9     22.311     23.803
REMARK  Name = 6256_Trifluridine.pdbqt.pdb
REMARK  5 active torsions:
REMARK  status: ('A' for Active; 'I' for Inactive)
REMARK    1  A    between atoms: N_3  and  C1*_11
REMARK    2  A    between atoms: C_7  and  C_23
REMARK    3  A    between atoms: C3*_12  and  O3*_15
REMARK    4  A    between atoms: C4*_14  and  C5*_17
REMARK    5  A    between atoms: C5*_17  and  O5*_18
REMARK                            x       y       z     vdW  Elec       q    Type
REMARK                         _______ _______ _______ _____ _____    ______ ____
ROOT
ATOM      1  O   UNL     1      17.247  11.545  51.551  0.00  0.00    +0.000 OA
ATOM      2  O   UNL     1      13.098  13.477  51.895  0.00  0.00    +0.000 OA
ATOM      3  N   UNL     1      15.984  11.129  53.511  0.00  0.00    +0.000 N 
ATOM      4  N   UNL     1      15.161  12.478  51.778  0.00  0.00    +0.000 N 
ATOM      5  C   UNL     1      14.798  11.428  54.077  0.00  0.00    +0.000 A 
ATOM      6  C   UNL     1      16.241  11.684  52.237  0.00  0.00    +0.000 A 
ATOM      7  C   UNL     1      13.767  12.134  53.745  0.00  0.00    +0.000 A 
ATOM      8  C   UNL     1      13.945  12.761  52.411  0.00  0.00    +0.000 A 
ATOM      9  H   UNL     1      15.297  12.900  50.870  0.00  0.00    +0.000 HD
ENDROOT
BRANCH   3  11
ATOM     10  O4* UNL     1      17.054  10.438  55.566  0.00  0.00    +0.000 OA
ATOM     11  C1* UNL     1      16.860  10.328  54.186  0.00  0.00    +0.000 A 
ATOM     12  C3* UNL     1      18.439   8.779  54.734  0.00  0.00    +0.000 A 
ATOM     13  C2* UNL     1      17.706   9.328  53.667  0.00  0.00    +0.000 A 
ATOM     14  C4* UNL     1      18.025   9.491  55.917  0.00  0.00    +0.000 A 
BRANCH  12  15
ATOM     15  O3* UNL     1      19.708   8.285  54.618  0.00  0.00    +0.000 OA
ATOM     16  H3* UNL     1      20.025   7.937  55.470  0.00  0.00    +0.000 HD
ENDBRANCH  12  15
BRANCH  14  17
ATOM     17  C5* UNL     1      18.619   9.454  57.194  0.00  0.00    +0.000 C 
BRANCH  17  18
ATOM     18  O5* UNL     1      19.178   9.415  58.400  0.00  0.00    +0.000 OA
ATOM     19  H5* UNL     1      19.413   8.500  58.633  0.00  0.00    +0.000 HD
ENDBRANCH  17  18
ENDBRANCH  14  17
ENDBRANCH   3  11
BRANCH   7  23
ATOM     20  F   UNL     1      12.325  13.722  54.706  0.00  0.00    +0.000 F 
ATOM     21  F   UNL     1      11.431  11.964  53.798  0.00  0.00    +0.000 F 
ATOM     22  F   UNL     1      12.489  11.772  55.684  0.00  0.00    +0.000 F 
ATOM     23  C   UNL     1      12.525  12.399  54.482  0.00  0.00    +0.000 C 
ENDBRANCH   7  23
TORSDOF 5
ENDMDL
MODEL 8
REMARK VINA RESULT:      -2.8     24.784     26.320
REMARK  Name = 6256_Trifluridine.pdbqt.pdb
REMARK  5 active torsions:
REMARK  status: ('A' for Active; 'I' for Inactive)
REMARK    1  A    between atoms: N_3  and  C1*_11
REMARK    2  A    between atoms: C_7  and  C_23
REMARK    3  A    between atoms: C3*_12  and  O3*_15
REMARK    4  A    between atoms: C4*_14  and  C5*_17
REMARK    5  A    between atoms: C5*_17  and  O5*_18
REMARK                            x       y       z     vdW  Elec       q    Type
REMARK                         _______ _______ _______ _____ _____    ______ ____
ROOT
ATOM      1  O   UNL     1      18.299   8.779  49.667  0.00  0.00    +0.000 OA
ATOM      2  O   UNL     1      16.813  11.931  52.655  0.00  0.00    +0.000 OA
ATOM      3  N   UNL     1      18.265   8.207  51.965  0.00  0.00    +0.000 N 
ATOM      4  N   UNL     1      17.559  10.311  51.210  0.00  0.00    +0.000 N 
ATOM      5  C   UNL     1      17.946   8.721  53.169  0.00  0.00    +0.000 A 
ATOM      6  C   UNL     1      18.073   9.044  50.842  0.00  0.00    +0.000 A 
ATOM      7  C   UNL     1      17.482   9.849  53.599  0.00  0.00    +0.000 A 
ATOM      8  C   UNL     1      17.246  10.800  52.484  0.00  0.00    +0.000 A 
ATOM      9  H   UNL     1      17.405  10.949  50.441  0.00  0.00    +0.000 HD
ENDROOT
BRANCH   3  11
ATOM     10  O4* UNL     1      17.930   5.836  51.622  0.00  0.00    +0.000 OA
ATOM     11  C1* UNL     1      18.754   6.934  51.894  0.00  0.00    +0.000 A 
ATOM     12  C3* UNL     1      20.102   5.097  51.938  0.00  0.00    +0.000 A 
ATOM     13  C2* UNL     1      20.076   6.493  52.098  0.00  0.00    +0.000 A 
ATOM     14  C4* UNL     1      18.748   4.699  51.647  0.00  0.00    +0.000 A 
BRANCH  12  15
ATOM     15  O3* UNL     1      20.952   4.263  52.608  0.00  0.00    +0.000 OA
ATOM     16  H3* UNL     1      20.745   4.245  53.559  0.00  0.00    +0.000 HD
ENDBRANCH  12  15
BRANCH  14  17
ATOM     17  C5* UNL     1      18.225   3.391  51.615  0.00  0.00    +0.000 C 
BRANCH  17  18
ATOM     18  O5* UNL     1      17.731   2.157  51.580  0.00  0.00    +0.000 OA
ATOM     19  H5* UNL     1      16.848   2.137  51.989  0.00  0.00    +0.000 HD
ENDBRANCH  17  18
ENDBRANCH  14  17
ENDBRANCH   3  11
BRANCH   7  23
ATOM     20  F   UNL     1      15.882  10.563  55.166  0.00  0.00    +0.000 F 
ATOM     21  F   UNL     1      17.527   9.342  55.886  0.00  0.00    +0.000 F 
ATOM     22  F   UNL     1      17.897  11.403  55.312  0.00  0.00    +0.000 F 
ATOM     23  C   UNL     1      17.197  10.293  54.969  0.00  0.00    +0.000 C 
ENDBRANCH   7  23
TORSDOF 5
ENDMDL
MODEL 9
REMARK VINA RESULT:      -2.7      9.910     12.286
REMARK  Name = 6256_Trifluridine.pdbqt.pdb
REMARK  5 active torsions:
REMARK  status: ('A' for Active; 'I' for Inactive)
REMARK    1  A    between atoms: N_3  and  C1*_11
REMARK    2  A    between atoms: C_7  and  C_23
REMARK    3  A    between atoms: C3*_12  and  O3*_15
REMARK    4  A    between atoms: C4*_14  and  C5*_17
REMARK    5  A    between atoms: C5*_17  and  O5*_18
REMARK                            x       y       z     vdW  Elec       q    Type
REMARK                         _______ _______ _______ _____ _____    ______ ____
ROOT
ATOM      1  O   UNL     1       5.492   6.253  62.669  0.00  0.00    +0.000 OA
ATOM      2  O   UNL     1       1.864   5.594  65.402  0.00  0.00    +0.000 OA
ATOM      3  N   UNL     1       4.049   8.089  63.067  0.00  0.00    +0.000 N 
ATOM      4  N   UNL     1       3.664   5.987  64.033  0.00  0.00    +0.000 N 
ATOM      5  C   UNL     1       2.927   8.414  63.738  0.00  0.00    +0.000 A 
ATOM      6  C   UNL     1       4.504   6.757  63.192  0.00  0.00    +0.000 A 
ATOM      7  C   UNL     1       2.102   7.792  64.515  0.00  0.00    +0.000 A 
ATOM      8  C   UNL     1       2.501   6.375  64.709  0.00  0.00    +0.000 A 
ATOM      9  H   UNL     1       3.946   5.025  64.155  0.00  0.00    +0.000 HD
ENDROOT
BRANCH   3  11
ATOM     10  O4* UNL     1       5.825   9.699  62.748  0.00  0.00    +0.000 OA
ATOM     11  C1* UNL     1       4.671   9.041  62.311  0.00  0.00    +0.000 A 
ATOM     12  C3* UNL     1       5.223  10.522  60.669  0.00  0.00    +0.000 A 
ATOM     13  C2* UNL     1       4.290   9.541  61.050  0.00  0.00    +0.000 A 
ATOM     14  C4* UNL     1       6.175  10.615  61.748  0.00  0.00    +0.000 A 
BRANCH  12  15
ATOM     15  O3* UNL     1       4.921  11.611  59.902  0.00  0.00    +0.000 OA
ATOM     16  H3* UNL     1       4.824  11.363  58.966  0.00  0.00    +0.000 HD
ENDBRANCH  12  15
BRANCH  14  17
ATOM     17  C5* UNL     1       7.170  11.594  61.933  0.00  0.00    +0.000 C 
BRANCH  17  18
ATOM     18  O5* UNL     1       8.110  12.518  62.112  0.00  0.00    +0.000 OA
ATOM     19  H5* UNL     1       8.117  13.139  61.363  0.00  0.00    +0.000 HD
ENDBRANCH  17  18
ENDBRANCH  14  17
ENDBRANCH   3  11
BRANCH   7  23
ATOM     20  F   UNL     1      -0.217   7.554  64.822  0.00  0.00    +0.000 F 
ATOM     21  F   UNL     1       0.970   8.177  66.530  0.00  0.00    +0.000 F 
ATOM     22  F   UNL     1       0.620   9.574  64.905  0.00  0.00    +0.000 F 
ATOM     23  C   UNL     1       0.880   8.270  65.174  0.00  0.00    +0.000 C 
ENDBRANCH   7  23
TORSDOF 5
ENDMDL
