MODEL 1
REMARK VINA RESULT:      -3.8      0.000      0.000
REMARK  Name = 6323266_Tipiracil.pdbqt.pdb
REMARK  2 active torsions:
REMARK  status: ('A' for Active; 'I' for Inactive)
REMARK    1  A    between atoms: C_6  and  C_12
REMARK    2  A    between atoms: C_12  and  N_13
REMARK                            x       y       z     vdW  Elec       q    Type
REMARK                         _______ _______ _______ _____ _____    ______ ____
ROOT
ATOM      1 CL   UNL     1       2.596   9.600  76.227  0.00  0.00    +0.000 Cl
ATOM      2  O   UNL     1       3.427   7.461  78.167  0.00  0.00    +0.000 OA
ATOM      3  O   UNL     1       4.594   4.293  75.148  0.00  0.00    +0.000 OA
ATOM      4  N   UNL     1       3.830   6.290  74.388  0.00  0.00    +0.000 N 
ATOM      5  N   UNL     1       4.017   5.889  76.652  0.00  0.00    +0.000 N 
ATOM      6  C   UNL     1       3.356   7.557  74.612  0.00  0.00    +0.000 A 
ATOM      7  C   UNL     1       3.192   8.028  75.855  0.00  0.00    +0.000 A 
ATOM      8  C   UNL     1       3.545   7.130  76.991  0.00  0.00    +0.000 A 
ATOM      9  C   UNL     1       4.174   5.420  75.381  0.00  0.00    +0.000 A 
ATOM     10  H   UNL     1       3.942   5.954  73.433  0.00  0.00    +0.000 HD
ATOM     11  H   UNL     1       4.262   5.264  77.406  0.00  0.00    +0.000 HD
ENDROOT
BRANCH   6  12
ATOM     12  C   UNL     1       3.055   8.313  73.447  0.00  0.00    +0.000 C 
BRANCH  12  13
ATOM     13  N   UNL     1       2.871   9.068  72.223  0.00  0.00    +0.000 N 
ATOM     14  N   UNL     1       4.858   8.236  71.016  0.00  0.00    +0.000 NA
ATOM     15  C   UNL     1       1.540   9.066  71.615  0.00  0.00    +0.000 C 
ATOM     16  C   UNL     1       1.290   8.810  70.133  0.00  0.00    +0.000 C 
ATOM     17  C   UNL     1       2.797   8.589  69.991  0.00  0.00    +0.000 C 
ATOM     18  C   UNL     1       3.653   8.645  71.156  0.00  0.00    +0.000 C 
ATOM     19  H   UNL     1       5.044   7.976  70.041  0.00  0.00    +0.000 HD
ENDBRANCH  12  13
ENDBRANCH   6  12
TORSDOF 2
ENDMDL
MODEL 2
REMARK VINA RESULT:      -3.6     12.637     14.950
REMARK  Name = 6323266_Tipiracil.pdbqt.pdb
REMARK  2 active torsions:
REMARK  status: ('A' for Active; 'I' for Inactive)
REMARK    1  A    between atoms: C_6  and  C_12
REMARK    2  A    between atoms: C_12  and  N_13
REMARK                            x       y       z     vdW  Elec       q    Type
REMARK                         _______ _______ _______ _____ _____    ______ ____
ROOT
ATOM      1 CL   UNL     1       5.361   6.470  62.129  0.00  0.00    +0.000 Cl
ATOM      2  O   UNL     1       5.868   9.172  63.340  0.00  0.00    +0.000 OA
ATOM      3  O   UNL     1       8.296  10.938  59.949  0.00  0.00    +0.000 OA
ATOM      4  N   UNL     1       7.524   8.814  59.742  0.00  0.00    +0.000 N 
ATOM      5  N   UNL     1       7.070  10.049  61.637  0.00  0.00    +0.000 N 
ATOM      6  C   UNL     1       6.831   7.736  60.232  0.00  0.00    +0.000 A 
ATOM      7  C   UNL     1       6.242   7.776  61.435  0.00  0.00    +0.000 A 
ATOM      8  C   UNL     1       6.363   9.034  62.226  0.00  0.00    +0.000 A 
ATOM      9  C   UNL     1       7.668   9.993  60.413  0.00  0.00    +0.000 A 
ATOM     10  H   UNL     1       7.965   8.756  58.827  0.00  0.00    +0.000 HD
ATOM     11  H   UNL     1       7.164  10.910  62.156  0.00  0.00    +0.000 HD
ENDROOT
BRANCH   6  12
ATOM     12  C   UNL     1       6.789   6.598  59.383  0.00  0.00    +0.000 C 
BRANCH  12  13
ATOM     13  N   UNL     1       6.872   5.457  58.493  0.00  0.00    +0.000 N 
ATOM     14  N   UNL     1       9.210   5.773  57.762  0.00  0.00    +0.000 NA
ATOM     15  C   UNL     1       6.384   4.169  58.988  0.00  0.00    +0.000 C 
ATOM     16  C   UNL     1       7.164   2.865  58.859  0.00  0.00    +0.000 C 
ATOM     17  C   UNL     1       8.285   3.684  58.218  0.00  0.00    +0.000 C 
ATOM     18  C   UNL     1       8.160   5.120  58.097  0.00  0.00    +0.000 C 
ATOM     19  H   UNL     1       9.990   5.134  57.571  0.00  0.00    +0.000 HD
ENDBRANCH  12  13
ENDBRANCH   6  12
TORSDOF 2
ENDMDL
MODEL 3
REMARK VINA RESULT:      -3.6     11.417     13.086
REMARK  Name = 6323266_Tipiracil.pdbqt.pdb
REMARK  2 active torsions:
REMARK  status: ('A' for Active; 'I' for Inactive)
REMARK    1  A    between atoms: C_6  and  C_12
REMARK    2  A    between atoms: C_12  and  N_13
REMARK                            x       y       z     vdW  Elec       q    Type
REMARK                         _______ _______ _______ _____ _____    ______ ____
ROOT
ATOM      1 CL   UNL     1      17.454   8.960  71.187  0.00  0.00    +0.000 Cl
ATOM      2  O   UNL     1      17.596   9.668  68.271  0.00  0.00    +0.000 OA
ATOM      3  O   UNL     1      13.407   8.396  67.109  0.00  0.00    +0.000 OA
ATOM      4  N   UNL     1      14.059   8.149  69.269  0.00  0.00    +0.000 N 
ATOM      5  N   UNL     1      15.499   9.040  67.702  0.00  0.00    +0.000 N 
ATOM      6  C   UNL     1      14.999   8.273  70.260  0.00  0.00    +0.000 A 
ATOM      7  C   UNL     1      16.214   8.776  70.007  0.00  0.00    +0.000 A 
ATOM      8  C   UNL     1      16.513   9.201  68.610  0.00  0.00    +0.000 A 
ATOM      9  C   UNL     1      14.268   8.521  67.973  0.00  0.00    +0.000 A 
ATOM     10  H   UNL     1      13.144   7.759  69.486  0.00  0.00    +0.000 HD
ATOM     11  H   UNL     1      15.681   9.321  66.750  0.00  0.00    +0.000 HD
ENDROOT
BRANCH   6  12
ATOM     12  C   UNL     1      14.592   7.832  71.548  0.00  0.00    +0.000 C 
BRANCH  12  13
ATOM     13  N   UNL     1      14.300   7.391  72.898  0.00  0.00    +0.000 N 
ATOM     14  N   UNL     1      11.949   8.139  72.992  0.00  0.00    +0.000 NA
ATOM     15  C   UNL     1      14.694   6.032  73.271  0.00  0.00    +0.000 C 
ATOM     16  C   UNL     1      13.771   5.051  73.985  0.00  0.00    +0.000 C 
ATOM     17  C   UNL     1      12.685   6.125  73.901  0.00  0.00    +0.000 C 
ATOM     18  C   UNL     1      12.950   7.377  73.226  0.00  0.00    +0.000 C 
ATOM     19  H   UNL     1      11.089   7.744  73.391  0.00  0.00    +0.000 HD
ENDBRANCH  12  13
ENDBRANCH   6  12
TORSDOF 2
ENDMDL
MODEL 4
REMARK VINA RESULT:      -3.5     19.628     21.522
REMARK  Name = 6323266_Tipiracil.pdbqt.pdb
REMARK  2 active torsions:
REMARK  status: ('A' for Active; 'I' for Inactive)
REMARK    1  A    between atoms: C_6  and  C_12
REMARK    2  A    between atoms: C_12  and  N_13
REMARK                            x       y       z     vdW  Elec       q    Type
REMARK                         _______ _______ _______ _____ _____    ______ ____
ROOT
ATOM      1 CL   UNL     1      20.338   9.013  59.976  0.00  0.00    +0.000 Cl
ATOM      2  O   UNL     1      18.976   9.405  62.625  0.00  0.00    +0.000 OA
ATOM      3  O   UNL     1      14.966  10.823  61.067  0.00  0.00    +0.000 OA
ATOM      4  N   UNL     1      16.593  10.308  59.571  0.00  0.00    +0.000 N 
ATOM      5  N   UNL     1      16.973  10.103  61.838  0.00  0.00    +0.000 N 
ATOM      6  C   UNL     1      17.862   9.878  59.280  0.00  0.00    +0.000 A 
ATOM      7  C   UNL     1      18.726   9.553  60.251  0.00  0.00    +0.000 A 
ATOM      8  C   UNL     1      18.262   9.671  61.663  0.00  0.00    +0.000 A 
ATOM      9  C   UNL     1      16.106  10.435  60.839  0.00  0.00    +0.000 A 
ATOM     10  H   UNL     1      15.957  10.552  58.816  0.00  0.00    +0.000 HD
ATOM     11  H   UNL     1      16.639  10.190  62.786  0.00  0.00    +0.000 HD
ENDROOT
BRANCH   6  12
ATOM     12  C   UNL     1      18.183   9.809  57.898  0.00  0.00    +0.000 C 
BRANCH  12  13
ATOM     13  N   UNL     1      18.625   9.789  56.517  0.00  0.00    +0.000 N 
ATOM     14  N   UNL     1      16.401   9.913  55.453  0.00  0.00    +0.000 NA
ATOM     15  C   UNL     1      19.715  10.688  56.137  0.00  0.00    +0.000 C 
ATOM     16  C   UNL     1      19.679  11.585  54.905  0.00  0.00    +0.000 C 
ATOM     17  C   UNL     1      18.264  11.061  54.655  0.00  0.00    +0.000 C 
ATOM     18  C   UNL     1      17.653  10.140  55.590  0.00  0.00    +0.000 C 
ATOM     19  H   UNL     1      16.030  10.399  54.628  0.00  0.00    +0.000 HD
ENDBRANCH  12  13
ENDBRANCH   6  12
TORSDOF 2
ENDMDL
MODEL 5
REMARK VINA RESULT:      -3.2     12.703     14.926
REMARK  Name = 6323266_Tipiracil.pdbqt.pdb
REMARK  2 active torsions:
REMARK  status: ('A' for Active; 'I' for Inactive)
REMARK    1  A    between atoms: C_6  and  C_12
REMARK    2  A    between atoms: C_12  and  N_13
REMARK                            x       y       z     vdW  Elec       q    Type
REMARK                         _______ _______ _______ _____ _____    ______ ____
ROOT
ATOM      1 CL   UNL     1       6.579  11.002  62.715  0.00  0.00    +0.000 Cl
ATOM      2  O   UNL     1       5.364   8.266  62.971  0.00  0.00    +0.000 OA
ATOM      3  O   UNL     1       6.974   6.500  59.124  0.00  0.00    +0.000 OA
ATOM      4  N   UNL     1       7.500   8.646  59.638  0.00  0.00    +0.000 N 
ATOM      5  N   UNL     1       6.181   7.389  61.053  0.00  0.00    +0.000 N 
ATOM      6  C   UNL     1       7.427   9.732  60.473  0.00  0.00    +0.000 A 
ATOM      7  C   UNL     1       6.729   9.686  61.615  0.00  0.00    +0.000 A 
ATOM      8  C   UNL     1       6.034   8.412  61.954  0.00  0.00    +0.000 A 
ATOM      9  C   UNL     1       6.891   7.452  59.891  0.00  0.00    +0.000 A 
ATOM     10  H   UNL     1       8.034   8.709  58.774  0.00  0.00    +0.000 HD
ATOM     11  H   UNL     1       5.718   6.517  61.263  0.00  0.00    +0.000 HD
ENDROOT
BRANCH   6  12
ATOM     12  C   UNL     1       8.133  10.887  60.038  0.00  0.00    +0.000 C 
BRANCH  12  13
ATOM     13  N   UNL     1       8.763  12.135  59.655  0.00  0.00    +0.000 N 
ATOM     14  N   UNL     1      10.893  11.817  60.865  0.00  0.00    +0.000 NA
ATOM     15  C   UNL     1       8.726  12.512  58.242  0.00  0.00    +0.000 C 
ATOM     16  C   UNL     1       9.946  12.992  57.464  0.00  0.00    +0.000 C 
ATOM     17  C   UNL     1      10.760  12.755  58.736  0.00  0.00    +0.000 C 
ATOM     18  C   UNL     1      10.127  12.201  59.913  0.00  0.00    +0.000 C 
ATOM     19  H   UNL     1      11.874  12.028  60.649  0.00  0.00    +0.000 HD
ENDBRANCH  12  13
ENDBRANCH   6  12
TORSDOF 2
ENDMDL
MODEL 6
REMARK VINA RESULT:      -3.1     12.237     14.326
REMARK  Name = 6323266_Tipiracil.pdbqt.pdb
REMARK  2 active torsions:
REMARK  status: ('A' for Active; 'I' for Inactive)
REMARK    1  A    between atoms: C_6  and  C_12
REMARK    2  A    between atoms: C_12  and  N_13
REMARK                            x       y       z     vdW  Elec       q    Type
REMARK                         _______ _______ _______ _____ _____    ______ ____
ROOT
ATOM      1 CL   UNL     1       5.485   7.055  62.304  0.00  0.00    +0.000 Cl
ATOM      2  O   UNL     1       5.942   5.281  59.923  0.00  0.00    +0.000 OA
ATOM      3  O   UNL     1       6.383   8.526  56.795  0.00  0.00    +0.000 OA
ATOM      4  N   UNL     1       5.998   9.136  58.946  0.00  0.00    +0.000 N 
ATOM      5  N   UNL     1       6.171   6.909  58.369  0.00  0.00    +0.000 N 
ATOM      6  C   UNL     1       5.785   8.817  60.263  0.00  0.00    +0.000 A 
ATOM      7  C   UNL     1       5.753   7.543  60.675  0.00  0.00    +0.000 A 
ATOM      8  C   UNL     1       5.959   6.478  59.653  0.00  0.00    +0.000 A 
ATOM      9  C   UNL     1       6.196   8.210  57.964  0.00  0.00    +0.000 A 
ATOM     10  H   UNL     1       6.014  10.112  58.659  0.00  0.00    +0.000 HD
ATOM     11  H   UNL     1       6.313   6.203  57.661  0.00  0.00    +0.000 HD
ENDROOT
BRANCH   6  12
ATOM     12  C   UNL     1       5.602   9.923  61.138  0.00  0.00    +0.000 C 
BRANCH  12  13
ATOM     13  N   UNL     1       5.454  10.973  62.126  0.00  0.00    +0.000 N 
ATOM     14  N   UNL     1       6.733   9.901  63.946  0.00  0.00    +0.000 NA
ATOM     15  C   UNL     1       5.718  12.348  61.703  0.00  0.00    +0.000 C 
ATOM     16  C   UNL     1       6.592  13.320  62.487  0.00  0.00    +0.000 C 
ATOM     17  C   UNL     1       6.856  12.177  63.468  0.00  0.00    +0.000 C 
ATOM     18  C   UNL     1       6.301  10.864  63.222  0.00  0.00    +0.000 C 
ATOM     19  H   UNL     1       7.391  10.245  64.655  0.00  0.00    +0.000 HD
ENDBRANCH  12  13
ENDBRANCH   6  12
TORSDOF 2
ENDMDL
MODEL 7
REMARK VINA RESULT:      -3.1     11.261     12.705
REMARK  Name = 6323266_Tipiracil.pdbqt.pdb
REMARK  2 active torsions:
REMARK  status: ('A' for Active; 'I' for Inactive)
REMARK    1  A    between atoms: C_6  and  C_12
REMARK    2  A    between atoms: C_12  and  N_13
REMARK                            x       y       z     vdW  Elec       q    Type
REMARK                         _______ _______ _______ _____ _____    ______ ____
ROOT
ATOM      1 CL   UNL     1      17.052   8.544  71.712  0.00  0.00    +0.000 Cl
ATOM      2  O   UNL     1      17.700   8.714  68.783  0.00  0.00    +0.000 OA
ATOM      3  O   UNL     1      13.471   8.423  67.185  0.00  0.00    +0.000 OA
ATOM      4  N   UNL     1      13.792   8.361  69.431  0.00  0.00    +0.000 N 
ATOM      5  N   UNL     1      15.584   8.578  67.995  0.00  0.00    +0.000 N 
ATOM      6  C   UNL     1      14.617   8.390  70.526  0.00  0.00    +0.000 A 
ATOM      7  C   UNL     1      15.945   8.508  70.394  0.00  0.00    +0.000 A 
ATOM      8  C   UNL     1      16.499   8.610  69.014  0.00  0.00    +0.000 A 
ATOM      9  C   UNL     1      14.234   8.453  68.144  0.00  0.00    +0.000 A 
ATOM     10  H   UNL     1      12.786   8.267  69.558  0.00  0.00    +0.000 HD
ATOM     11  H   UNL     1      15.938   8.646  67.052  0.00  0.00    +0.000 HD
ENDROOT
BRANCH   6  12
ATOM     12  C   UNL     1      13.966   8.284  71.785  0.00  0.00    +0.000 C 
BRANCH  12  13
ATOM     13  N   UNL     1      13.235   8.078  73.020  0.00  0.00    +0.000 N 
ATOM     14  N   UNL     1      15.088   8.541  74.585  0.00  0.00    +0.000 NA
ATOM     15  C   UNL     1      11.929   8.724  73.155  0.00  0.00    +0.000 C 
ATOM     16  C   UNL     1      11.503   9.518  74.385  0.00  0.00    +0.000 C 
ATOM     17  C   UNL     1      12.900   9.254  74.949  0.00  0.00    +0.000 C 
ATOM     18  C   UNL     1      13.880   8.537  74.161  0.00  0.00    +0.000 C 
ATOM     19  H   UNL     1      15.155   9.026  75.487  0.00  0.00    +0.000 HD
ENDBRANCH  12  13
ENDBRANCH   6  12
TORSDOF 2
ENDMDL
MODEL 8
REMARK VINA RESULT:      -3.1     20.226     22.496
REMARK  Name = 6323266_Tipiracil.pdbqt.pdb
REMARK  2 active torsions:
REMARK  status: ('A' for Active; 'I' for Inactive)
REMARK    1  A    between atoms: C_6  and  C_12
REMARK    2  A    between atoms: C_12  and  N_13
REMARK                            x       y       z     vdW  Elec       q    Type
REMARK                         _______ _______ _______ _____ _____    ______ ____
ROOT
ATOM      1 CL   UNL     1      18.451  14.017  56.474  0.00  0.00    +0.000 Cl
ATOM      2  O   UNL     1      19.287  12.543  53.994  0.00  0.00    +0.000 OA
ATOM      3  O   UNL     1      17.788   8.433  55.169  0.00  0.00    +0.000 OA
ATOM      4  N   UNL     1      17.495  10.153  56.620  0.00  0.00    +0.000 N 
ATOM      5  N   UNL     1      18.526  10.496  54.585  0.00  0.00    +0.000 N 
ATOM      6  C   UNL     1      17.636  11.475  56.957  0.00  0.00    +0.000 A 
ATOM      7  C   UNL     1      18.226  12.346  56.128  0.00  0.00    +0.000 A 
ATOM      8  C   UNL     1      18.726  11.832  54.822  0.00  0.00    +0.000 A 
ATOM      9  C   UNL     1      17.927   9.620  55.441  0.00  0.00    +0.000 A 
ATOM     10  H   UNL     1      17.046   9.512  57.270  0.00  0.00    +0.000 HD
ATOM     11  H   UNL     1      18.857  10.127  53.705  0.00  0.00    +0.000 HD
ENDROOT
BRANCH   6  12
ATOM     12  C   UNL     1      17.119  11.840  58.230  0.00  0.00    +0.000 C 
BRANCH  12  13
ATOM     13  N   UNL     1      16.623  12.094  59.569  0.00  0.00    +0.000 N 
ATOM     14  N   UNL     1      14.213  11.885  59.077  0.00  0.00    +0.000 NA
ATOM     15  C   UNL     1      17.252  11.374  60.676  0.00  0.00    +0.000 C 
ATOM     16  C   UNL     1      16.468  10.654  61.768  0.00  0.00    +0.000 C 
ATOM     17  C   UNL     1      15.197  11.056  61.019  0.00  0.00    +0.000 C 
ATOM     18  C   UNL     1      15.286  11.772  59.765  0.00  0.00    +0.000 C 
ATOM     19  H   UNL     1      13.415  11.479  59.579  0.00  0.00    +0.000 HD
ENDBRANCH  12  13
ENDBRANCH   6  12
TORSDOF 2
ENDMDL
MODEL 9
REMARK VINA RESULT:      -3.0     14.320     15.967
REMARK  Name = 6323266_Tipiracil.pdbqt.pdb
REMARK  2 active torsions:
REMARK  status: ('A' for Active; 'I' for Inactive)
REMARK    1  A    between atoms: C_6  and  C_12
REMARK    2  A    between atoms: C_12  and  N_13
REMARK                            x       y       z     vdW  Elec       q    Type
REMARK                         _______ _______ _______ _____ _____    ______ ____
ROOT
ATOM      1 CL   UNL     1       4.821   5.289  58.885  0.00  0.00    +0.000 Cl
ATOM      2  O   UNL     1       6.639   3.061  58.013  0.00  0.00    +0.000 OA
ATOM      3  O   UNL     1      10.514   5.404  57.937  0.00  0.00    +0.000 OA
ATOM      4  N   UNL     1       8.607   6.478  58.534  0.00  0.00    +0.000 N 
ATOM      5  N   UNL     1       8.571   4.237  57.988  0.00  0.00    +0.000 N 
ATOM      6  C   UNL     1       7.255   6.481  58.769  0.00  0.00    +0.000 A 
ATOM      7  C   UNL     1       6.520   5.372  58.618  0.00  0.00    +0.000 A 
ATOM      8  C   UNL     1       7.219   4.128  58.187  0.00  0.00    +0.000 A 
ATOM      9  C   UNL     1       9.306   5.375  58.141  0.00  0.00    +0.000 A 
ATOM     10  H   UNL     1       9.142   7.335  58.652  0.00  0.00    +0.000 HD
ATOM     11  H   UNL     1       9.064   3.406  57.695  0.00  0.00    +0.000 HD
ENDROOT
BRANCH   6  12
ATOM     12  C   UNL     1       6.708   7.729  59.175  0.00  0.00    +0.000 C 
BRANCH  12  13
ATOM     13  N   UNL     1       6.263   9.054  59.556  0.00  0.00    +0.000 N 
ATOM     14  N   UNL     1       6.839   8.922  61.954  0.00  0.00    +0.000 NA
ATOM     15  C   UNL     1       6.682  10.180  58.722  0.00  0.00    +0.000 C 
ATOM     16  C   UNL     1       7.266  11.473  59.280  0.00  0.00    +0.000 C 
ATOM     17  C   UNL     1       7.163  10.836  60.666  0.00  0.00    +0.000 C 
ATOM     18  C   UNL     1       6.694   9.475  60.808  0.00  0.00    +0.000 C 
ATOM     19  H   UNL     1       7.231   9.586  62.631  0.00  0.00    +0.000 HD
ENDBRANCH  12  13
ENDBRANCH   6  12
TORSDOF 2
ENDMDL
