MODEL 1
REMARK VINA RESULT:      -4.6      0.000      0.000
REMARK  Name = 6325056_Deoxyelephantopin.pdbqt.pdb
REMARK  3 active torsions:
REMARK  status: ('A' for Active; 'I' for Inactive)
REMARK    1  A    between atoms: C_6  and  O_20
REMARK    2  A    between atoms: O_20  and  C_22
REMARK    3  A    between atoms: C_22  and  C_23
REMARK                            x       y       z     vdW  Elec       q    Type
REMARK                         _______ _______ _______ _____ _____    ______ ____
ROOT
ATOM      1  O   UNL     1      13.216  13.625  55.999  0.00  0.00    +0.000 OA
ATOM      2  O   UNL     1      15.586  10.482  61.198  0.00  0.00    +0.000 OA
ATOM      3  O   UNL     1      13.545  14.583  53.937  0.00  0.00    +0.000 OA
ATOM      4  O   UNL     1      17.214   9.386  59.958  0.00  0.00    +0.000 OA
ATOM      5  C   UNL     1      15.369  12.729  56.366  0.00  0.00    +0.000 C 
ATOM      6  C   UNL     1      16.487  11.984  56.946  0.00  0.00    +0.000 C 
ATOM      7  C   UNL     1      14.025  12.904  56.887  0.00  0.00    +0.000 C 
ATOM      8  C   UNL     1      16.757  11.938  58.339  0.00  0.00    +0.000 C 
ATOM      9  C   UNL     1      15.340  13.407  55.087  0.00  0.00    +0.000 C 
ATOM     10  C   UNL     1      16.892  11.781  59.755  0.00  0.00    +0.000 C 
ATOM     11  C   UNL     1      13.489  12.531  58.142  0.00  0.00    +0.000 C 
ATOM     12  C   UNL     1      15.143  11.820  61.138  0.00  0.00    +0.000 C 
ATOM     13  C   UNL     1      13.876  11.994  60.504  0.00  0.00    +0.000 C 
ATOM     14  C   UNL     1      12.979  12.227  59.438  0.00  0.00    +0.000 C 
ATOM     15  C   UNL     1      16.180  12.623  60.622  0.00  0.00    +0.000 C 
ATOM     16  C   UNL     1      13.969  13.949  54.888  0.00  0.00    +0.000 C 
ATOM     17  C   UNL     1      16.647  10.406  60.307  0.00  0.00    +0.000 C 
ATOM     18  C   UNL     1      16.371  13.592  54.255  0.00  0.00    +0.000 C 
ATOM     19  C   UNL     1      11.523  12.417  59.720  0.00  0.00    +0.000 C 
ENDROOT
BRANCH   6  20
ATOM     20  O   UNL     1      17.502  11.484  56.113  0.00  0.00    +0.000 OA
BRANCH  20  22
ATOM     21  O   UNL     1      16.236   9.918  54.999  0.00  0.00    +0.000 OA
ATOM     22  C   UNL     1      17.268  10.234  55.585  0.00  0.00    +0.000 C 
BRANCH  22  23
ATOM     23  C   UNL     1      18.458   9.340  55.830  0.00  0.00    +0.000 C 
ATOM     24  C   UNL     1      19.090   9.156  57.200  0.00  0.00    +0.000 C 
ATOM     25  C   UNL     1      18.998   8.598  54.855  0.00  0.00    +0.000 C 
ENDBRANCH  22  23
ENDBRANCH  20  22
ENDBRANCH   6  20
TORSDOF 3
ENDMDL
MODEL 2
REMARK VINA RESULT:      -4.6     11.732     13.759
REMARK  Name = 6325056_Deoxyelephantopin.pdbqt.pdb
REMARK  3 active torsions:
REMARK  status: ('A' for Active; 'I' for Inactive)
REMARK    1  A    between atoms: C_6  and  O_20
REMARK    2  A    between atoms: O_20  and  C_22
REMARK    3  A    between atoms: C_22  and  C_23
REMARK                            x       y       z     vdW  Elec       q    Type
REMARK                         _______ _______ _______ _____ _____    ______ ____
ROOT
ATOM      1  O   UNL     1      16.136  -0.975  54.232  0.00  0.00    +0.000 OA
ATOM      2  O   UNL     1      20.884   0.370  58.496  0.00  0.00    +0.000 OA
ATOM      3  O   UNL     1      14.222  -2.123  53.687  0.00  0.00    +0.000 OA
ATOM      4  O   UNL     1      19.517  -0.004  60.335  0.00  0.00    +0.000 OA
ATOM      5  C   UNL     1      16.393  -1.675  56.471  0.00  0.00    +0.000 C 
ATOM      6  C   UNL     1      16.875  -1.788  57.848  0.00  0.00    +0.000 C 
ATOM      7  C   UNL     1      16.925  -0.872  55.385  0.00  0.00    +0.000 C 
ATOM      8  C   UNL     1      18.250  -1.786  58.198  0.00  0.00    +0.000 C 
ATOM      9  C   UNL     1      15.215  -2.297  55.903  0.00  0.00    +0.000 C 
ATOM     10  C   UNL     1      19.633  -1.608  58.520  0.00  0.00    +0.000 C 
ATOM     11  C   UNL     1      18.116  -0.111  55.326  0.00  0.00    +0.000 C 
ATOM     12  C   UNL     1      21.000  -0.349  57.287  0.00  0.00    +0.000 C 
ATOM     13  C   UNL     1      20.388   0.284  56.164  0.00  0.00    +0.000 C 
ATOM     14  C   UNL     1      19.357   0.586  55.245  0.00  0.00    +0.000 C 
ATOM     15  C   UNL     1      20.602  -1.682  57.507  0.00  0.00    +0.000 C 
ATOM     16  C   UNL     1      15.083  -1.826  54.498  0.00  0.00    +0.000 C 
ATOM     17  C   UNL     1      19.996  -0.361  59.273  0.00  0.00    +0.000 C 
ATOM     18  C   UNL     1      14.421  -3.197  56.493  0.00  0.00    +0.000 C 
ATOM     19  C   UNL     1      19.654   1.425  54.045  0.00  0.00    +0.000 C 
ENDROOT
BRANCH   6  20
ATOM     20  O   UNL     1      15.988  -2.166  58.871  0.00  0.00    +0.000 OA
BRANCH  20  22
ATOM     21  O   UNL     1      14.391  -0.520  59.069  0.00  0.00    +0.000 OA
ATOM     22  C   UNL     1      15.361  -1.125  59.520  0.00  0.00    +0.000 C 
BRANCH  22  23
ATOM     23  C   UNL     1      16.034  -0.862  60.843  0.00  0.00    +0.000 C 
ATOM     24  C   UNL     1      16.079   0.512  61.493  0.00  0.00    +0.000 C 
ATOM     25  C   UNL     1      16.585  -1.846  61.564  0.00  0.00    +0.000 C 
ENDBRANCH  22  23
ENDBRANCH  20  22
ENDBRANCH   6  20
TORSDOF 3
ENDMDL
MODEL 3
REMARK VINA RESULT:      -4.5     11.355     14.050
REMARK  Name = 6325056_Deoxyelephantopin.pdbqt.pdb
REMARK  3 active torsions:
REMARK  status: ('A' for Active; 'I' for Inactive)
REMARK    1  A    between atoms: C_6  and  O_20
REMARK    2  A    between atoms: O_20  and  C_22
REMARK    3  A    between atoms: C_22  and  C_23
REMARK                            x       y       z     vdW  Elec       q    Type
REMARK                         _______ _______ _______ _____ _____    ______ ____
ROOT
ATOM      1  O   UNL     1      19.943   0.110  56.713  0.00  0.00    +0.000 OA
ATOM      2  O   UNL     1      17.012   1.389  51.030  0.00  0.00    +0.000 OA
ATOM      3  O   UNL     1      19.961  -0.972  58.740  0.00  0.00    +0.000 OA
ATOM      4  O   UNL     1      15.999  -0.698  50.933  0.00  0.00    +0.000 OA
ATOM      5  C   UNL     1      17.989  -0.829  55.781  0.00  0.00    +0.000 C 
ATOM      6  C   UNL     1      16.931  -1.190  54.836  0.00  0.00    +0.000 C 
ATOM      7  C   UNL     1      19.096   0.092  55.598  0.00  0.00    +0.000 C 
ATOM      8  C   UNL     1      16.334  -0.265  53.940  0.00  0.00    +0.000 C 
ATOM      9  C   UNL     1      18.204  -1.377  57.104  0.00  0.00    +0.000 C 
ATOM     10  C   UNL     1      15.881   0.655  52.943  0.00  0.00    +0.000 C 
ATOM     11  C   UNL     1      19.362   0.980  54.530  0.00  0.00    +0.000 C 
ATOM     12  C   UNL     1      17.182   2.269  52.120  0.00  0.00    +0.000 C 
ATOM     13  C   UNL     1      18.507   2.303  52.648  0.00  0.00    +0.000 C 
ATOM     14  C   UNL     1      19.580   1.932  53.491  0.00  0.00    +0.000 C 
ATOM     15  C   UNL     1      16.171   2.022  53.070  0.00  0.00    +0.000 C 
ATOM     16  C   UNL     1      19.445  -0.769  57.653  0.00  0.00    +0.000 C 
ATOM     17  C   UNL     1      16.246   0.341  51.520  0.00  0.00    +0.000 C 
ATOM     18  C   UNL     1      17.400  -2.219  57.763  0.00  0.00    +0.000 C 
ATOM     19  C   UNL     1      20.850   2.720  53.467  0.00  0.00    +0.000 C 
ENDROOT
BRANCH   6  20
ATOM     20  O   UNL     1      16.277  -2.428  54.958  0.00  0.00    +0.000 OA
BRANCH  20  22
ATOM     21  O   UNL     1      15.309  -3.431  53.126  0.00  0.00    +0.000 OA
ATOM     22  C   UNL     1      16.294  -3.216  53.827  0.00  0.00    +0.000 C 
BRANCH  22  23
ATOM     23  C   UNL     1      17.685  -3.749  53.592  0.00  0.00    +0.000 C 
ATOM     24  C   UNL     1      18.464  -4.527  54.639  0.00  0.00    +0.000 C 
ATOM     25  C   UNL     1      18.299  -3.623  52.409  0.00  0.00    +0.000 C 
ENDBRANCH  22  23
ENDBRANCH  20  22
ENDBRANCH   6  20
TORSDOF 3
ENDMDL
MODEL 4
REMARK VINA RESULT:      -4.2     10.008     12.409
REMARK  Name = 6325056_Deoxyelephantopin.pdbqt.pdb
REMARK  3 active torsions:
REMARK  status: ('A' for Active; 'I' for Inactive)
REMARK    1  A    between atoms: C_6  and  O_20
REMARK    2  A    between atoms: O_20  and  C_22
REMARK    3  A    between atoms: C_22  and  C_23
REMARK                            x       y       z     vdW  Elec       q    Type
REMARK                         _______ _______ _______ _____ _____    ______ ____
ROOT
ATOM      1  O   UNL     1      18.135  -0.382  55.576  0.00  0.00    +0.000 OA
ATOM      2  O   UNL     1      16.082   3.299  50.599  0.00  0.00    +0.000 OA
ATOM      3  O   UNL     1      19.841  -1.140  56.914  0.00  0.00    +0.000 OA
ATOM      4  O   UNL     1      17.729   4.900  50.933  0.00  0.00    +0.000 OA
ATOM      5  C   UNL     1      19.323   1.185  54.270  0.00  0.00    +0.000 C 
ATOM      6  C   UNL     1      19.636   2.256  53.324  0.00  0.00    +0.000 C 
ATOM      7  C   UNL     1      18.042   0.557  54.540  0.00  0.00    +0.000 C 
ATOM      8  C   UNL     1      19.035   2.369  52.043  0.00  0.00    +0.000 C 
ATOM      9  C   UNL     1      20.226   0.557  55.211  0.00  0.00    +0.000 C 
ATOM     10  C   UNL     1      18.283   2.541  50.838  0.00  0.00    +0.000 C 
ATOM     11  C   UNL     1      16.806   0.707  53.870  0.00  0.00    +0.000 C 
ATOM     12  C   UNL     1      16.159   1.890  50.645  0.00  0.00    +0.000 C 
ATOM     13  C   UNL     1      15.598   1.307  51.820  0.00  0.00    +0.000 C 
ATOM     14  C   UNL     1      15.585   0.800  53.139  0.00  0.00    +0.000 C 
ATOM     15  C   UNL     1      17.481   1.495  50.359  0.00  0.00    +0.000 C 
ATOM     16  C   UNL     1      19.441  -0.414  56.019  0.00  0.00    +0.000 C 
ATOM     17  C   UNL     1      17.386   3.743  50.768  0.00  0.00    +0.000 C 
ATOM     18  C   UNL     1      21.548   0.745  55.301  0.00  0.00    +0.000 C 
ATOM     19  C   UNL     1      14.359   0.123  53.662  0.00  0.00    +0.000 C 
ENDROOT
BRANCH   6  20
ATOM     20  O   UNL     1      20.751   3.083  53.547  0.00  0.00    +0.000 OA
BRANCH  20  22
ATOM     21  O   UNL     1      22.359   2.386  52.055  0.00  0.00    +0.000 OA
ATOM     22  C   UNL     1      21.587   3.249  52.464  0.00  0.00    +0.000 C 
BRANCH  22  23
ATOM     23  C   UNL     1      21.397   4.623  51.873  0.00  0.00    +0.000 C 
ATOM     24  C   UNL     1      21.233   5.875  52.719  0.00  0.00    +0.000 C 
ATOM     25  C   UNL     1      21.424   4.834  50.551  0.00  0.00    +0.000 C 
ENDBRANCH  22  23
ENDBRANCH  20  22
ENDBRANCH   6  20
TORSDOF 3
ENDMDL
MODEL 5
REMARK VINA RESULT:      -4.2     10.051     12.839
REMARK  Name = 6325056_Deoxyelephantopin.pdbqt.pdb
REMARK  3 active torsions:
REMARK  status: ('A' for Active; 'I' for Inactive)
REMARK    1  A    between atoms: C_6  and  O_20
REMARK    2  A    between atoms: O_20  and  C_22
REMARK    3  A    between atoms: C_22  and  C_23
REMARK                            x       y       z     vdW  Elec       q    Type
REMARK                         _______ _______ _______ _____ _____    ______ ____
ROOT
ATOM      1  O   UNL     1      19.789   0.945  55.115  0.00  0.00    +0.000 OA
ATOM      2  O   UNL     1      20.046   5.030  50.038  0.00  0.00    +0.000 OA
ATOM      3  O   UNL     1      18.651  -0.627  56.343  0.00  0.00    +0.000 OA
ATOM      4  O   UNL     1      18.684   3.688  48.721  0.00  0.00    +0.000 OA
ATOM      5  C   UNL     1      18.267   1.234  53.335  0.00  0.00    +0.000 C 
ATOM      6  C   UNL     1      17.671   1.655  52.066  0.00  0.00    +0.000 C 
ATOM      7  C   UNL     1      19.537   1.627  53.918  0.00  0.00    +0.000 C 
ATOM      8  C   UNL     1      17.777   2.974  51.552  0.00  0.00    +0.000 C 
ATOM      9  C   UNL     1      17.740   0.260  54.267  0.00  0.00    +0.000 C 
ATOM     10  C   UNL     1      18.052   4.261  50.992  0.00  0.00    +0.000 C 
ATOM     11  C   UNL     1      20.455   2.616  53.494  0.00  0.00    +0.000 C 
ATOM     12  C   UNL     1      19.943   5.370  51.404  0.00  0.00    +0.000 C 
ATOM     13  C   UNL     1      20.868   4.691  52.252  0.00  0.00    +0.000 C 
ATOM     14  C   UNL     1      21.335   3.669  53.109  0.00  0.00    +0.000 C 
ATOM     15  C   UNL     1      18.594   5.274  51.799  0.00  0.00    +0.000 C 
ATOM     16  C   UNL     1      18.728   0.099  55.367  0.00  0.00    +0.000 C 
ATOM     17  C   UNL     1      18.906   4.291  49.756  0.00  0.00    +0.000 C 
ATOM     18  C   UNL     1      16.545  -0.340  54.210  0.00  0.00    +0.000 C 
ATOM     19  C   UNL     1      22.643   3.832  53.814  0.00  0.00    +0.000 C 
ENDROOT
BRANCH   6  20
ATOM     20  O   UNL     1      16.740   0.824  51.420  0.00  0.00    +0.000 OA
BRANCH  20  22
ATOM     21  O   UNL     1      17.222   0.618  49.179  0.00  0.00    +0.000 OA
ATOM     22  C   UNL     1      17.217   0.153  50.316  0.00  0.00    +0.000 C 
BRANCH  22  23
ATOM     23  C   UNL     1      17.726  -1.207  50.720  0.00  0.00    +0.000 C 
ATOM     24  C   UNL     1      19.201  -1.515  50.920  0.00  0.00    +0.000 C 
ATOM     25  C   UNL     1      16.896  -2.222  50.992  0.00  0.00    +0.000 C 
ENDBRANCH  22  23
ENDBRANCH  20  22
ENDBRANCH   6  20
TORSDOF 3
ENDMDL
MODEL 6
REMARK VINA RESULT:      -4.1      9.436     12.316
REMARK  Name = 6325056_Deoxyelephantopin.pdbqt.pdb
REMARK  3 active torsions:
REMARK  status: ('A' for Active; 'I' for Inactive)
REMARK    1  A    between atoms: C_6  and  O_20
REMARK    2  A    between atoms: O_20  and  C_22
REMARK    3  A    between atoms: C_22  and  C_23
REMARK                            x       y       z     vdW  Elec       q    Type
REMARK                         _______ _______ _______ _____ _____    ______ ____
ROOT
ATOM      1  O   UNL     1       7.497   5.252  57.187  0.00  0.00    +0.000 OA
ATOM      2  O   UNL     1       4.722   3.747  62.893  0.00  0.00    +0.000 OA
ATOM      3  O   UNL     1       7.804   6.731  55.456  0.00  0.00    +0.000 OA
ATOM      4  O   UNL     1       4.650   5.960  63.591  0.00  0.00    +0.000 OA
ATOM      5  C   UNL     1       6.164   6.581  58.611  0.00  0.00    +0.000 C 
ATOM      6  C   UNL     1       5.416   7.056  59.775  0.00  0.00    +0.000 C 
ATOM      7  C   UNL     1       6.814   5.299  58.408  0.00  0.00    +0.000 C 
ATOM      8  C   UNL     1       4.561   6.226  60.547  0.00  0.00    +0.000 C 
ATOM      9  C   UNL     1       6.486   7.329  57.414  0.00  0.00    +0.000 C 
ATOM     10  C   UNL     1       3.849   5.319  61.394  0.00  0.00    +0.000 C 
ATOM     11  C   UNL     1       6.774   4.132  59.208  0.00  0.00    +0.000 C 
ATOM     12  C   UNL     1       4.441   3.181  61.631  0.00  0.00    +0.000 C 
ATOM     13  C   UNL     1       5.596   2.790  60.890  0.00  0.00    +0.000 C 
ATOM     14  C   UNL     1       6.663   2.935  59.974  0.00  0.00    +0.000 C 
ATOM     15  C   UNL     1       3.550   4.026  60.939  0.00  0.00    +0.000 C 
ATOM     16  C   UNL     1       7.331   6.464  56.548  0.00  0.00    +0.000 C 
ATOM     17  C   UNL     1       4.412   5.095  62.768  0.00  0.00    +0.000 C 
ATOM     18  C   UNL     1       6.046   8.551  57.089  0.00  0.00    +0.000 C 
ATOM     19  C   UNL     1       7.503   1.751  59.619  0.00  0.00    +0.000 C 
ENDROOT
BRANCH   6  20
ATOM     20  O   UNL     1       5.312   8.435  60.026  0.00  0.00    +0.000 OA
BRANCH  20  22
ATOM     21  O   UNL     1       6.530   8.471  61.979  0.00  0.00    +0.000 OA
ATOM     22  C   UNL     1       6.263   8.950  60.880  0.00  0.00    +0.000 C 
BRANCH  22  23
ATOM     23  C   UNL     1       6.913  10.160  60.257  0.00  0.00    +0.000 C 
ATOM     24  C   UNL     1       6.122  11.303  59.643  0.00  0.00    +0.000 C 
ATOM     25  C   UNL     1       8.241  10.331  60.263  0.00  0.00    +0.000 C 
ENDBRANCH  22  23
ENDBRANCH  20  22
ENDBRANCH   6  20
TORSDOF 3
ENDMDL
MODEL 7
REMARK VINA RESULT:      -4.1     19.370     22.386
REMARK  Name = 6325056_Deoxyelephantopin.pdbqt.pdb
REMARK  3 active torsions:
REMARK  status: ('A' for Active; 'I' for Inactive)
REMARK    1  A    between atoms: C_6  and  O_20
REMARK    2  A    between atoms: O_20  and  C_22
REMARK    3  A    between atoms: C_22  and  C_23
REMARK                            x       y       z     vdW  Elec       q    Type
REMARK                         _______ _______ _______ _____ _____    ______ ____
ROOT
ATOM      1  O   UNL     1      11.094   1.576  74.945  0.00  0.00    +0.000 OA
ATOM      2  O   UNL     1       6.294   3.719  78.804  0.00  0.00    +0.000 OA
ATOM      3  O   UNL     1      13.041   1.970  73.792  0.00  0.00    +0.000 OA
ATOM      4  O   UNL     1       7.662   5.261  79.872  0.00  0.00    +0.000 OA
ATOM      5  C   UNL     1      10.848   3.658  76.029  0.00  0.00    +0.000 C 
ATOM      6  C   UNL     1      10.363   4.720  76.912  0.00  0.00    +0.000 C 
ATOM      7  C   UNL     1      10.298   2.332  75.815  0.00  0.00    +0.000 C 
ATOM      8  C   UNL     1       8.987   4.989  77.130  0.00  0.00    +0.000 C 
ATOM      9  C   UNL     1      12.045   3.677  75.214  0.00  0.00    +0.000 C 
ATOM     10  C   UNL     1       7.598   5.114  77.452  0.00  0.00    +0.000 C 
ATOM     11  C   UNL     1       9.087   1.772  76.285  0.00  0.00    +0.000 C 
ATOM     12  C   UNL     1       6.202   3.374  77.439  0.00  0.00    +0.000 C 
ATOM     13  C   UNL     1       6.801   2.123  77.106  0.00  0.00    +0.000 C 
ATOM     14  C   UNL     1       7.827   1.243  76.692  0.00  0.00    +0.000 C 
ATOM     15  C   UNL     1       6.637   4.466  76.661  0.00  0.00    +0.000 C 
ATOM     16  C   UNL     1      12.169   2.349  74.556  0.00  0.00    +0.000 C 
ATOM     17  C   UNL     1       7.198   4.770  78.858  0.00  0.00    +0.000 C 
ATOM     18  C   UNL     1      12.861   4.717  75.013  0.00  0.00    +0.000 C 
ATOM     19  C   UNL     1       7.512  -0.194  76.429  0.00  0.00    +0.000 C 
ENDROOT
BRANCH   6  20
ATOM     20  O   UNL     1      11.256   5.695  77.389  0.00  0.00    +0.000 OA
BRANCH  20  22
ATOM     21  O   UNL     1      10.948   6.125  79.629  0.00  0.00    +0.000 OA
ATOM     22  C   UNL     1      11.584   5.592  78.723  0.00  0.00    +0.000 C 
BRANCH  22  23
ATOM     23  C   UNL     1      12.812   4.733  78.886  0.00  0.00    +0.000 C 
ATOM     24  C   UNL     1      14.198   5.174  78.446  0.00  0.00    +0.000 C 
ATOM     25  C   UNL     1      12.765   3.540  79.494  0.00  0.00    +0.000 C 
ENDBRANCH  22  23
ENDBRANCH  20  22
ENDBRANCH   6  20
TORSDOF 3
ENDMDL
MODEL 8
REMARK VINA RESULT:      -4.1     11.384     14.139
REMARK  Name = 6325056_Deoxyelephantopin.pdbqt.pdb
REMARK  3 active torsions:
REMARK  status: ('A' for Active; 'I' for Inactive)
REMARK    1  A    between atoms: C_6  and  O_20
REMARK    2  A    between atoms: O_20  and  C_22
REMARK    3  A    between atoms: C_22  and  C_23
REMARK                            x       y       z     vdW  Elec       q    Type
REMARK                         _______ _______ _______ _____ _____    ______ ____
ROOT
ATOM      1  O   UNL     1      18.420  -0.968  57.011  0.00  0.00    +0.000 OA
ATOM      2  O   UNL     1      17.241   1.532  51.104  0.00  0.00    +0.000 OA
ATOM      3  O   UNL     1      17.738  -2.227  58.807  0.00  0.00    +0.000 OA
ATOM      4  O   UNL     1      15.878  -0.241  50.481  0.00  0.00    +0.000 OA
ATOM      5  C   UNL     1      16.594  -1.328  55.560  0.00  0.00    +0.000 C 
ATOM      6  C   UNL     1      15.740  -1.334  54.371  0.00  0.00    +0.000 C 
ATOM      7  C   UNL     1      17.876  -0.675  55.754  0.00  0.00    +0.000 C 
ATOM      8  C   UNL     1      15.571  -0.209  53.522  0.00  0.00    +0.000 C 
ATOM      9  C   UNL     1      16.374  -2.043  56.799  0.00  0.00    +0.000 C 
ATOM     10  C   UNL     1      15.564   0.888  52.604  0.00  0.00    +0.000 C 
ATOM     11  C   UNL     1      18.562   0.232  54.913  0.00  0.00    +0.000 C 
ATOM     12  C   UNL     1      17.323   2.232  52.327  0.00  0.00    +0.000 C 
ATOM     13  C   UNL     1      18.464   1.903  53.119  0.00  0.00    +0.000 C 
ATOM     14  C   UNL     1      19.208   1.209  54.100  0.00  0.00    +0.000 C 
ATOM     15  C   UNL     1      16.087   2.130  52.996  0.00  0.00    +0.000 C 
ATOM     16  C   UNL     1      17.546  -1.800  57.681  0.00  0.00    +0.000 C 
ATOM     17  C   UNL     1      16.185   0.646  51.258  0.00  0.00    +0.000 C 
ATOM     18  C   UNL     1      15.283  -2.739  57.140  0.00  0.00    +0.000 C 
ATOM     19  C   UNL     1      20.580   1.679  54.461  0.00  0.00    +0.000 C 
ENDROOT
BRANCH   6  20
ATOM     20  O   UNL     1      14.839  -2.393  54.163  0.00  0.00    +0.000 OA
BRANCH  20  22
ATOM     21  O   UNL     1      12.786  -1.584  54.819  0.00  0.00    +0.000 OA
ATOM     22  C   UNL     1      13.531  -2.018  53.944  0.00  0.00    +0.000 C 
BRANCH  22  23
ATOM     23  C   UNL     1      13.175  -2.214  52.492  0.00  0.00    +0.000 C 
ATOM     24  C   UNL     1      12.441  -1.168  51.669  0.00  0.00    +0.000 C 
ATOM     25  C   UNL     1      13.544  -3.309  51.815  0.00  0.00    +0.000 C 
ENDBRANCH  22  23
ENDBRANCH  20  22
ENDBRANCH   6  20
TORSDOF 3
ENDMDL
MODEL 9
REMARK VINA RESULT:      -4.1     11.066     12.500
REMARK  Name = 6325056_Deoxyelephantopin.pdbqt.pdb
REMARK  3 active torsions:
REMARK  status: ('A' for Active; 'I' for Inactive)
REMARK    1  A    between atoms: C_6  and  O_20
REMARK    2  A    between atoms: O_20  and  C_22
REMARK    3  A    between atoms: C_22  and  C_23
REMARK                            x       y       z     vdW  Elec       q    Type
REMARK                         _______ _______ _______ _____ _____    ______ ____
ROOT
ATOM      1  O   UNL     1      20.760   2.420  53.962  0.00  0.00    +0.000 OA
ATOM      2  O   UNL     1      15.488  -1.295  54.925  0.00  0.00    +0.000 OA
ATOM      3  O   UNL     1      21.897   3.965  52.698  0.00  0.00    +0.000 OA
ATOM      4  O   UNL     1      14.069   0.217  53.881  0.00  0.00    +0.000 OA
ATOM      5  C   UNL     1      18.726   2.352  52.767  0.00  0.00    +0.000 C 
ATOM      6  C   UNL     1      17.343   2.060  52.387  0.00  0.00    +0.000 C 
ATOM      7  C   UNL     1      19.486   1.843  53.894  0.00  0.00    +0.000 C 
ATOM      8  C   UNL     1      16.749   0.778  52.522  0.00  0.00    +0.000 C 
ATOM      9  C   UNL     1      19.629   3.286  52.129  0.00  0.00    +0.000 C 
ATOM     10  C   UNL     1      16.141  -0.480  52.832  0.00  0.00    +0.000 C 
ATOM     11  C   UNL     1      19.148   0.834  54.826  0.00  0.00    +0.000 C 
ATOM     12  C   UNL     1      16.783  -1.727  54.566  0.00  0.00    +0.000 C 
ATOM     13  C   UNL     1      17.831  -1.168  55.356  0.00  0.00    +0.000 C 
ATOM     14  C   UNL     1      18.836  -0.240  55.711  0.00  0.00    +0.000 C 
ATOM     15  C   UNL     1      16.944  -1.578  53.174  0.00  0.00    +0.000 C 
ATOM     16  C   UNL     1      20.893   3.307  52.913  0.00  0.00    +0.000 C 
ATOM     17  C   UNL     1      15.074  -0.471  53.888  0.00  0.00    +0.000 C 
ATOM     18  C   UNL     1      19.416   3.959  50.992  0.00  0.00    +0.000 C 
ATOM     19  C   UNL     1      19.741  -0.531  56.865  0.00  0.00    +0.000 C 
ENDROOT
BRANCH   6  20
ATOM     20  O   UNL     1      16.616   2.990  51.624  0.00  0.00    +0.000 OA
BRANCH  20  22
ATOM     21  O   UNL     1      14.720   2.061  50.707  0.00  0.00    +0.000 OA
ATOM     22  C   UNL     1      15.878   2.455  50.591  0.00  0.00    +0.000 C 
BRANCH  22  23
ATOM     23  C   UNL     1      16.698   2.440  49.326  0.00  0.00    +0.000 C 
ATOM     24  C   UNL     1      16.866   3.657  48.431  0.00  0.00    +0.000 C 
ATOM     25  C   UNL     1      17.388   1.359  48.943  0.00  0.00    +0.000 C 
ENDBRANCH  22  23
ENDBRANCH  20  22
ENDBRANCH   6  20
TORSDOF 3
ENDMDL
