MODEL 1
REMARK VINA RESULT:      -4.2      0.000      0.000
REMARK  Name = 641785_Cardamonin.pdbqt.pdb
REMARK  6 active torsions:
REMARK  status: ('A' for Active; 'I' for Inactive)
REMARK    1  A    between atoms: C_1  and  C_14
REMARK    2  A    between atoms: C_2  and  O_7
REMARK    3  A    between atoms: C_3  and  O_9
REMARK    4  A    between atoms: C_6  and  O_11
REMARK    5  A    between atoms: C_14  and  C_15
REMARK    6  A    between atoms: C_16  and  C_17
REMARK                            x       y       z     vdW  Elec       q    Type
REMARK                         _______ _______ _______ _____ _____    ______ ____
ROOT
ATOM      1  C   UNL     1       7.789   4.207  58.375  0.00  0.00    +0.000 A 
ATOM      2  C   UNL     1       8.925   3.436  58.690  0.00  0.00    +0.000 A 
ATOM      3  C   UNL     1       7.969   5.458  57.750  0.00  0.00    +0.000 A 
ATOM      4  C   UNL     1      10.200   3.943  58.397  0.00  0.00    +0.000 A 
ATOM      5  C   UNL     1       9.244   5.950  57.475  0.00  0.00    +0.000 A 
ATOM      6  C   UNL     1      10.353   5.191  57.807  0.00  0.00    +0.000 A 
ENDROOT
BRANCH   2   7
ATOM      7  O   UNL     1       8.753   2.172  59.205  0.00  0.00    +0.000 OA
ATOM      8  C   UNL     1       9.110   1.112  58.365  0.00  0.00    +0.000 C 
ENDBRANCH   2   7
BRANCH   3   9
ATOM      9  O   UNL     1       6.932   6.273  57.372  0.00  0.00    +0.000 OA
ATOM     10  H   UNL     1       7.240   7.206  57.339  0.00  0.00    +0.000 HD
ENDBRANCH   3   9
BRANCH   6  11
ATOM     11  O   UNL     1      11.593   5.685  57.535  0.00  0.00    +0.000 OA
ATOM     12  H   UNL     1      12.183   4.945  57.305  0.00  0.00    +0.000 HD
ENDBRANCH   6  11
BRANCH   1  14
ATOM     13  O   UNL     1       5.808   3.031  57.886  0.00  0.00    +0.000 OA
ATOM     14  C   UNL     1       6.399   3.772  58.664  0.00  0.00    +0.000 C 
BRANCH  14  15
ATOM     15  C   UNL     1       5.698   4.274  59.820  0.00  0.00    +0.000 C 
ATOM     16  C   UNL     1       5.130   4.703  60.789  0.00  0.00    +0.000 C 
BRANCH  16  17
ATOM     17  C   UNL     1       4.451   5.206  61.937  0.00  0.00    +0.000 A 
ATOM     18  C   UNL     1       4.611   6.540  62.310  0.00  0.00    +0.000 A 
ATOM     19  C   UNL     1       3.631   4.365  62.685  0.00  0.00    +0.000 A 
ATOM     20  C   UNL     1       3.950   7.032  63.432  0.00  0.00    +0.000 A 
ATOM     21  C   UNL     1       2.969   4.858  63.808  0.00  0.00    +0.000 A 
ATOM     22  C   UNL     1       3.129   6.191  64.180  0.00  0.00    +0.000 A 
ENDBRANCH  16  17
ENDBRANCH  14  15
ENDBRANCH   1  14
TORSDOF 6
ENDMDL
MODEL 2
REMARK VINA RESULT:      -4.0      8.270     10.842
REMARK  Name = 641785_Cardamonin.pdbqt.pdb
REMARK  6 active torsions:
REMARK  status: ('A' for Active; 'I' for Inactive)
REMARK    1  A    between atoms: C_1  and  C_14
REMARK    2  A    between atoms: C_2  and  O_7
REMARK    3  A    between atoms: C_3  and  O_9
REMARK    4  A    between atoms: C_6  and  O_11
REMARK    5  A    between atoms: C_14  and  C_15
REMARK    6  A    between atoms: C_16  and  C_17
REMARK                            x       y       z     vdW  Elec       q    Type
REMARK                         _______ _______ _______ _____ _____    ______ ____
ROOT
ATOM      1  C   UNL     1       4.155   0.215  67.172  0.00  0.00    +0.000 A 
ATOM      2  C   UNL     1       4.287   0.834  65.915  0.00  0.00    +0.000 A 
ATOM      3  C   UNL     1       3.295   0.794  68.128  0.00  0.00    +0.000 A 
ATOM      4  C   UNL     1       3.582   2.020  65.658  0.00  0.00    +0.000 A 
ATOM      5  C   UNL     1       2.611   1.978  67.860  0.00  0.00    +0.000 A 
ATOM      6  C   UNL     1       2.765   2.588  66.626  0.00  0.00    +0.000 A 
ENDROOT
BRANCH   2   7
ATOM      7  O   UNL     1       5.042   0.220  64.943  0.00  0.00    +0.000 OA
ATOM      8  C   UNL     1       5.457   1.033  63.882  0.00  0.00    +0.000 C 
ENDBRANCH   2   7
BRANCH   3   9
ATOM      9  O   UNL     1       3.070   0.255  69.370  0.00  0.00    +0.000 OA
ATOM     10  H   UNL     1       3.920   0.180  69.857  0.00  0.00    +0.000 HD
ENDBRANCH   3   9
BRANCH   6  11
ATOM     11  O   UNL     1       2.091   3.745  66.378  0.00  0.00    +0.000 OA
ATOM     12  H   UNL     1       1.168   3.531  66.154  0.00  0.00    +0.000 HD
ENDBRANCH   6  11
BRANCH   1  14
ATOM     13  O   UNL     1       4.268  -2.092  67.634  0.00  0.00    +0.000 OA
ATOM     14  C   UNL     1       4.873  -1.029  67.552  0.00  0.00    +0.000 C 
BRANCH  14  15
ATOM     15  C   UNL     1       6.272  -0.990  67.902  0.00  0.00    +0.000 C 
ATOM     16  C   UNL     1       7.438  -0.939  68.189  0.00  0.00    +0.000 C 
BRANCH  16  17
ATOM     17  C   UNL     1       8.822  -0.886  68.529  0.00  0.00    +0.000 A 
ATOM     18  C   UNL     1       9.787  -1.047  67.537  0.00  0.00    +0.000 A 
ATOM     19  C   UNL     1       9.205  -0.677  69.852  0.00  0.00    +0.000 A 
ATOM     20  C   UNL     1      11.139  -0.997  67.869  0.00  0.00    +0.000 A 
ATOM     21  C   UNL     1      10.558  -0.627  70.183  0.00  0.00    +0.000 A 
ATOM     22  C   UNL     1      11.523  -0.787  69.192  0.00  0.00    +0.000 A 
ENDBRANCH  16  17
ENDBRANCH  14  15
ENDBRANCH   1  14
TORSDOF 6
ENDMDL
MODEL 3
REMARK VINA RESULT:      -3.9      9.265     11.323
REMARK  Name = 641785_Cardamonin.pdbqt.pdb
REMARK  6 active torsions:
REMARK  status: ('A' for Active; 'I' for Inactive)
REMARK    1  A    between atoms: C_1  and  C_14
REMARK    2  A    between atoms: C_2  and  O_7
REMARK    3  A    between atoms: C_3  and  O_9
REMARK    4  A    between atoms: C_6  and  O_11
REMARK    5  A    between atoms: C_14  and  C_15
REMARK    6  A    between atoms: C_16  and  C_17
REMARK                            x       y       z     vdW  Elec       q    Type
REMARK                         _______ _______ _______ _____ _____    ______ ____
ROOT
ATOM      1  C   UNL     1      16.751  11.349  60.662  0.00  0.00    +0.000 A 
ATOM      2  C   UNL     1      17.077  11.191  62.022  0.00  0.00    +0.000 A 
ATOM      3  C   UNL     1      17.268  10.429  59.727  0.00  0.00    +0.000 A 
ATOM      4  C   UNL     1      17.924  10.141  62.407  0.00  0.00    +0.000 A 
ATOM      5  C   UNL     1      18.117   9.397  60.126  0.00  0.00    +0.000 A 
ATOM      6  C   UNL     1      18.445   9.264  61.464  0.00  0.00    +0.000 A 
ENDROOT
BRANCH   2   7
ATOM      7  O   UNL     1      16.494  12.022  62.950  0.00  0.00    +0.000 OA
ATOM      8  C   UNL     1      17.306  13.044  63.456  0.00  0.00    +0.000 C 
ENDBRANCH   2   7
BRANCH   3   9
ATOM      9  O   UNL     1      16.988  10.472  58.385  0.00  0.00    +0.000 OA
ATOM     10  H   UNL     1      17.346   9.669  57.946  0.00  0.00    +0.000 HD
ENDBRANCH   3   9
BRANCH   6  11
ATOM     11  O   UNL     1      19.277   8.252  61.839  0.00  0.00    +0.000 OA
ATOM     12  H   UNL     1      20.017   8.626  62.350  0.00  0.00    +0.000 HD
ENDBRANCH   6  11
BRANCH   1  14
ATOM     13  O   UNL     1      16.364  13.362  59.502  0.00  0.00    +0.000 OA
ATOM     14  C   UNL     1      15.882  12.440  60.149  0.00  0.00    +0.000 C 
BRANCH  14  15
ATOM     15  C   UNL     1      14.476  12.468  60.467  0.00  0.00    +0.000 C 
ATOM     16  C   UNL     1      13.302  12.509  60.726  0.00  0.00    +0.000 C 
BRANCH  16  17
ATOM     17  C   UNL     1      11.911  12.552  61.037  0.00  0.00    +0.000 A 
ATOM     18  C   UNL     1      10.977  12.106  60.103  0.00  0.00    +0.000 A 
ATOM     19  C   UNL     1      11.488  13.041  62.270  0.00  0.00    +0.000 A 
ATOM     20  C   UNL     1       9.618  12.150  60.405  0.00  0.00    +0.000 A 
ATOM     21  C   UNL     1      10.129  13.084  62.571  0.00  0.00    +0.000 A 
ATOM     22  C   UNL     1       9.195  12.639  61.638  0.00  0.00    +0.000 A 
ENDBRANCH  16  17
ENDBRANCH  14  15
ENDBRANCH   1  14
TORSDOF 6
ENDMDL
MODEL 4
REMARK VINA RESULT:      -3.9      5.451      9.608
REMARK  Name = 641785_Cardamonin.pdbqt.pdb
REMARK  6 active torsions:
REMARK  status: ('A' for Active; 'I' for Inactive)
REMARK    1  A    between atoms: C_1  and  C_14
REMARK    2  A    between atoms: C_2  and  O_7
REMARK    3  A    between atoms: C_3  and  O_9
REMARK    4  A    between atoms: C_6  and  O_11
REMARK    5  A    between atoms: C_14  and  C_15
REMARK    6  A    between atoms: C_16  and  C_17
REMARK                            x       y       z     vdW  Elec       q    Type
REMARK                         _______ _______ _______ _____ _____    ______ ____
ROOT
ATOM      1  C   UNL     1       2.012   6.909  66.090  0.00  0.00    +0.000 A 
ATOM      2  C   UNL     1       1.604   8.250  65.957  0.00  0.00    +0.000 A 
ATOM      3  C   UNL     1       2.217   6.387  67.384  0.00  0.00    +0.000 A 
ATOM      4  C   UNL     1       1.438   9.034  67.108  0.00  0.00    +0.000 A 
ATOM      5  C   UNL     1       2.057   7.184  68.517  0.00  0.00    +0.000 A 
ATOM      6  C   UNL     1       1.674   8.506  68.370  0.00  0.00    +0.000 A 
ENDROOT
BRANCH   2   7
ATOM      7  O   UNL     1       1.304   8.735  64.705  0.00  0.00    +0.000 OA
ATOM      8  C   UNL     1       1.789  10.015  64.409  0.00  0.00    +0.000 C 
ENDBRANCH   2   7
BRANCH   3   9
ATOM      9  O   UNL     1       2.583   5.087  67.628  0.00  0.00    +0.000 OA
ATOM     10  H   UNL     1       1.873   4.480  67.323  0.00  0.00    +0.000 HD
ENDBRANCH   3   9
BRANCH   6  11
ATOM     11  O   UNL     1       1.523   9.273  69.486  0.00  0.00    +0.000 OA
ATOM     12  H   UNL     1       2.203   9.970  69.483  0.00  0.00    +0.000 HD
ENDBRANCH   6  11
BRANCH   1  14
ATOM     13  O   UNL     1       1.630   4.941  64.855  0.00  0.00    +0.000 OA
ATOM     14  C   UNL     1       2.238   6.002  64.936  0.00  0.00    +0.000 C 
BRANCH  14  15
ATOM     15  C   UNL     1       3.227   6.321  63.935  0.00  0.00    +0.000 C 
ATOM     16  C   UNL     1       4.039   6.600  63.094  0.00  0.00    +0.000 C 
BRANCH  16  17
ATOM     17  C   UNL     1       5.006   6.924  62.097  0.00  0.00    +0.000 A 
ATOM     18  C   UNL     1       5.813   8.049  62.254  0.00  0.00    +0.000 A 
ATOM     19  C   UNL     1       5.141   6.118  60.969  0.00  0.00    +0.000 A 
ATOM     20  C   UNL     1       6.757   8.368  61.280  0.00  0.00    +0.000 A 
ATOM     21  C   UNL     1       6.085   6.437  59.996  0.00  0.00    +0.000 A 
ATOM     22  C   UNL     1       6.892   7.562  60.152  0.00  0.00    +0.000 A 
ENDBRANCH  16  17
ENDBRANCH  14  15
ENDBRANCH   1  14
TORSDOF 6
ENDMDL
MODEL 5
REMARK VINA RESULT:      -3.9     12.917     14.437
REMARK  Name = 641785_Cardamonin.pdbqt.pdb
REMARK  6 active torsions:
REMARK  status: ('A' for Active; 'I' for Inactive)
REMARK    1  A    between atoms: C_1  and  C_14
REMARK    2  A    between atoms: C_2  and  O_7
REMARK    3  A    between atoms: C_3  and  O_9
REMARK    4  A    between atoms: C_6  and  O_11
REMARK    5  A    between atoms: C_14  and  C_15
REMARK    6  A    between atoms: C_16  and  C_17
REMARK                            x       y       z     vdW  Elec       q    Type
REMARK                         _______ _______ _______ _____ _____    ______ ____
ROOT
ATOM      1  C   UNL     1      18.380   2.897  52.146  0.00  0.00    +0.000 A 
ATOM      2  C   UNL     1      17.061   2.430  52.308  0.00  0.00    +0.000 A 
ATOM      3  C   UNL     1      19.408   2.308  52.911  0.00  0.00    +0.000 A 
ATOM      4  C   UNL     1      16.803   1.415  53.241  0.00  0.00    +0.000 A 
ATOM      5  C   UNL     1      19.132   1.307  53.841  0.00  0.00    +0.000 A 
ATOM      6  C   UNL     1      17.828   0.871  54.005  0.00  0.00    +0.000 A 
ENDROOT
BRANCH   2   7
ATOM      7  O   UNL     1      16.071   2.927  51.493  0.00  0.00    +0.000 OA
ATOM      8  C   UNL     1      15.559   2.041  50.538  0.00  0.00    +0.000 C 
ENDBRANCH   2   7
BRANCH   3   9
ATOM      9  O   UNL     1      20.729   2.665  52.808  0.00  0.00    +0.000 OA
ATOM     10  H   UNL     1      21.238   1.932  52.398  0.00  0.00    +0.000 HD
ENDBRANCH   3   9
BRANCH   6  11
ATOM     11  O   UNL     1      17.573  -0.107  54.918  0.00  0.00    +0.000 OA
ATOM     12  H   UNL     1      17.828  -0.967  54.538  0.00  0.00    +0.000 HD
ENDBRANCH   6  11
BRANCH   1  14
ATOM     13  O   UNL     1      19.277   3.713  50.127  0.00  0.00    +0.000 OA
ATOM     14  C   UNL     1      18.754   3.982  51.203  0.00  0.00    +0.000 C 
BRANCH  14  15
ATOM     15  C   UNL     1      18.579   5.365  51.570  0.00  0.00    +0.000 C 
ATOM     16  C   UNL     1      18.445   6.524  51.862  0.00  0.00    +0.000 C 
BRANCH  16  17
ATOM     17  C   UNL     1      18.283   7.896  52.215  0.00  0.00    +0.000 A 
ATOM     18  C   UNL     1      18.150   8.858  51.216  0.00  0.00    +0.000 A 
ATOM     19  C   UNL     1      18.261   8.272  53.556  0.00  0.00    +0.000 A 
ATOM     20  C   UNL     1      17.993  10.199  51.560  0.00  0.00    +0.000 A 
ATOM     21  C   UNL     1      18.104   9.613  53.899  0.00  0.00    +0.000 A 
ATOM     22  C   UNL     1      17.971  10.575  52.900  0.00  0.00    +0.000 A 
ENDBRANCH  16  17
ENDBRANCH  14  15
ENDBRANCH   1  14
TORSDOF 6
ENDMDL
MODEL 6
REMARK VINA RESULT:      -3.9     10.353     14.494
REMARK  Name = 641785_Cardamonin.pdbqt.pdb
REMARK  6 active torsions:
REMARK  status: ('A' for Active; 'I' for Inactive)
REMARK    1  A    between atoms: C_1  and  C_14
REMARK    2  A    between atoms: C_2  and  O_7
REMARK    3  A    between atoms: C_3  and  O_9
REMARK    4  A    between atoms: C_6  and  O_11
REMARK    5  A    between atoms: C_14  and  C_15
REMARK    6  A    between atoms: C_16  and  C_17
REMARK                            x       y       z     vdW  Elec       q    Type
REMARK                         _______ _______ _______ _____ _____    ______ ____
ROOT
ATOM      1  C   UNL     1       3.337   8.934  72.901  0.00  0.00    +0.000 A 
ATOM      2  C   UNL     1       2.679  10.124  73.267  0.00  0.00    +0.000 A 
ATOM      3  C   UNL     1       3.373   7.867  73.822  0.00  0.00    +0.000 A 
ATOM      4  C   UNL     1       2.102  10.224  74.542  0.00  0.00    +0.000 A 
ATOM      5  C   UNL     1       2.804   7.988  75.089  0.00  0.00    +0.000 A 
ATOM      6  C   UNL     1       2.177   9.170  75.443  0.00  0.00    +0.000 A 
ENDROOT
BRANCH   2   7
ATOM      7  O   UNL     1       2.550  11.130  72.337  0.00  0.00    +0.000 OA
ATOM      8  C   UNL     1       1.402  11.923  72.445  0.00  0.00    +0.000 C 
ENDBRANCH   2   7
BRANCH   3   9
ATOM      9  O   UNL     1       3.960   6.655  73.555  0.00  0.00    +0.000 OA
ATOM     10  H   UNL     1       4.275   6.250  74.393  0.00  0.00    +0.000 HD
ENDBRANCH   3   9
BRANCH   6  11
ATOM     11  O   UNL     1       1.626   9.275  76.684  0.00  0.00    +0.000 OA
ATOM     12  H   UNL     1       2.061   8.635  77.276  0.00  0.00    +0.000 HD
ENDBRANCH   6  11
BRANCH   1  14
ATOM     13  O   UNL     1       5.175   9.043  71.432  0.00  0.00    +0.000 OA
ATOM     14  C   UNL     1       3.998   8.735  71.586  0.00  0.00    +0.000 C 
BRANCH  14  15
ATOM     15  C   UNL     1       3.248   8.250  70.454  0.00  0.00    +0.000 C 
ATOM     16  C   UNL     1       2.625   7.827  69.516  0.00  0.00    +0.000 C 
BRANCH  16  17
ATOM     17  C   UNL     1       1.887   7.332  68.402  0.00  0.00    +0.000 A 
ATOM     18  C   UNL     1       2.322   6.189  67.733  0.00  0.00    +0.000 A 
ATOM     19  C   UNL     1       0.734   7.992  67.982  0.00  0.00    +0.000 A 
ATOM     20  C   UNL     1       1.602   5.706  66.643  0.00  0.00    +0.000 A 
ATOM     21  C   UNL     1       0.015   7.507  66.891  0.00  0.00    +0.000 A 
ATOM     22  C   UNL     1       0.450   6.366  66.223  0.00  0.00    +0.000 A 
ENDBRANCH  16  17
ENDBRANCH  14  15
ENDBRANCH   1  14
TORSDOF 6
ENDMDL
MODEL 7
REMARK VINA RESULT:      -3.7     11.427     14.068
REMARK  Name = 641785_Cardamonin.pdbqt.pdb
REMARK  6 active torsions:
REMARK  status: ('A' for Active; 'I' for Inactive)
REMARK    1  A    between atoms: C_1  and  C_14
REMARK    2  A    between atoms: C_2  and  O_7
REMARK    3  A    between atoms: C_3  and  O_9
REMARK    4  A    between atoms: C_6  and  O_11
REMARK    5  A    between atoms: C_14  and  C_15
REMARK    6  A    between atoms: C_16  and  C_17
REMARK                            x       y       z     vdW  Elec       q    Type
REMARK                         _______ _______ _______ _____ _____    ______ ____
ROOT
ATOM      1  C   UNL     1      15.326   0.707  51.208  0.00  0.00    +0.000 A 
ATOM      2  C   UNL     1      14.436  -0.033  52.009  0.00  0.00    +0.000 A 
ATOM      3  C   UNL     1      15.432   0.390  49.838  0.00  0.00    +0.000 A 
ATOM      4  C   UNL     1      13.699  -1.077  51.431  0.00  0.00    +0.000 A 
ATOM      5  C   UNL     1      14.700  -0.658  49.282  0.00  0.00    +0.000 A 
ATOM      6  C   UNL     1      13.842  -1.390  50.085  0.00  0.00    +0.000 A 
ENDROOT
BRANCH   2   7
ATOM      7  O   UNL     1      14.252   0.337  53.321  0.00  0.00    +0.000 OA
ATOM      8  C   UNL     1      14.446  -0.668  54.276  0.00  0.00    +0.000 C 
ENDBRANCH   2   7
BRANCH   3   9
ATOM      9  O   UNL     1      16.244   1.067  48.963  0.00  0.00    +0.000 OA
ATOM     10  H   UNL     1      17.179   0.803  49.108  0.00  0.00    +0.000 HD
ENDBRANCH   3   9
BRANCH   6  11
ATOM     11  O   UNL     1      13.134  -2.412  49.528  0.00  0.00    +0.000 OA
ATOM     12  H   UNL     1      12.846  -2.146  48.637  0.00  0.00    +0.000 HD
ENDBRANCH   6  11
BRANCH   1  14
ATOM     13  O   UNL     1      16.024   2.955  51.298  0.00  0.00    +0.000 OA
ATOM     14  C   UNL     1      16.168   1.815  51.728  0.00  0.00    +0.000 C 
BRANCH  14  15
ATOM     15  C   UNL     1      17.213   1.555  52.687  0.00  0.00    +0.000 C 
ATOM     16  C   UNL     1      18.092   1.356  53.482  0.00  0.00    +0.000 C 
BRANCH  16  17
ATOM     17  C   UNL     1      19.132   1.112  54.426  0.00  0.00    +0.000 A 
ATOM     18  C   UNL     1      20.325   1.828  54.345  0.00  0.00    +0.000 A 
ATOM     19  C   UNL     1      18.956   0.159  55.426  0.00  0.00    +0.000 A 
ATOM     20  C   UNL     1      21.343   1.589  55.265  0.00  0.00    +0.000 A 
ATOM     21  C   UNL     1      19.974  -0.079  56.347  0.00  0.00    +0.000 A 
ATOM     22  C   UNL     1      21.167   0.636  56.265  0.00  0.00    +0.000 A 
ENDBRANCH  16  17
ENDBRANCH  14  15
ENDBRANCH   1  14
TORSDOF 6
ENDMDL
MODEL 8
REMARK VINA RESULT:      -3.6     10.129     12.180
REMARK  Name = 641785_Cardamonin.pdbqt.pdb
REMARK  6 active torsions:
REMARK  status: ('A' for Active; 'I' for Inactive)
REMARK    1  A    between atoms: C_1  and  C_14
REMARK    2  A    between atoms: C_2  and  O_7
REMARK    3  A    between atoms: C_3  and  O_9
REMARK    4  A    between atoms: C_6  and  O_11
REMARK    5  A    between atoms: C_14  and  C_15
REMARK    6  A    between atoms: C_16  and  C_17
REMARK                            x       y       z     vdW  Elec       q    Type
REMARK                         _______ _______ _______ _____ _____    ______ ____
ROOT
ATOM      1  C   UNL     1      17.926  11.059  56.539  0.00  0.00    +0.000 A 
ATOM      2  C   UNL     1      17.818   9.777  55.968  0.00  0.00    +0.000 A 
ATOM      3  C   UNL     1      18.896  11.278  57.538  0.00  0.00    +0.000 A 
ATOM      4  C   UNL     1      18.657   8.750  56.425  0.00  0.00    +0.000 A 
ATOM      5  C   UNL     1      19.715  10.244  57.988  0.00  0.00    +0.000 A 
ATOM      6  C   UNL     1      19.585   8.982  57.431  0.00  0.00    +0.000 A 
ENDROOT
BRANCH   2   7
ATOM      7  O   UNL     1      16.945   9.583  54.922  0.00  0.00    +0.000 OA
ATOM      8  C   UNL     1      17.508   9.605  53.640  0.00  0.00    +0.000 C 
ENDBRANCH   2   7
BRANCH   3   9
ATOM      9  O   UNL     1      19.106  12.495  58.138  0.00  0.00    +0.000 OA
ATOM     10  H   UNL     1      18.248  12.869  58.436  0.00  0.00    +0.000 HD
ENDBRANCH   3   9
BRANCH   6  11
ATOM     11  O   UNL     1      20.391   7.981  57.881  0.00  0.00    +0.000 OA
ATOM     12  H   UNL     1      20.446   8.033  58.852  0.00  0.00    +0.000 HD
ENDBRANCH   6  11
BRANCH   1  14
ATOM     13  O   UNL     1      17.517  13.091  55.420  0.00  0.00    +0.000 OA
ATOM     14  C   UNL     1      17.070  12.207  56.143  0.00  0.00    +0.000 C 
BRANCH  14  15
ATOM     15  C   UNL     1      15.731  12.337  56.661  0.00  0.00    +0.000 C 
ATOM     16  C   UNL     1      14.615  12.427  57.100  0.00  0.00    +0.000 C 
BRANCH  16  17
ATOM     17  C   UNL     1      13.291  12.540  57.616  0.00  0.00    +0.000 A 
ATOM     18  C   UNL     1      13.058  12.353  58.977  0.00  0.00    +0.000 A 
ATOM     19  C   UNL     1      12.232  12.834  56.759  0.00  0.00    +0.000 A 
ATOM     20  C   UNL     1      11.764  12.462  59.482  0.00  0.00    +0.000 A 
ATOM     21  C   UNL     1      10.939  12.943  57.265  0.00  0.00    +0.000 A 
ATOM     22  C   UNL     1      10.706  12.756  58.626  0.00  0.00    +0.000 A 
ENDBRANCH  16  17
ENDBRANCH  14  15
ENDBRANCH   1  14
TORSDOF 6
ENDMDL
MODEL 9
REMARK VINA RESULT:      -3.6     13.343     15.733
REMARK  Name = 641785_Cardamonin.pdbqt.pdb
REMARK  6 active torsions:
REMARK  status: ('A' for Active; 'I' for Inactive)
REMARK    1  A    between atoms: C_1  and  C_14
REMARK    2  A    between atoms: C_2  and  O_7
REMARK    3  A    between atoms: C_3  and  O_9
REMARK    4  A    between atoms: C_6  and  O_11
REMARK    5  A    between atoms: C_14  and  C_15
REMARK    6  A    between atoms: C_16  and  C_17
REMARK                            x       y       z     vdW  Elec       q    Type
REMARK                         _______ _______ _______ _____ _____    ______ ____
ROOT
ATOM      1  C   UNL     1       9.322  -0.206  75.032  0.00  0.00    +0.000 A 
ATOM      2  C   UNL     1      10.288   0.814  75.132  0.00  0.00    +0.000 A 
ATOM      3  C   UNL     1       8.141  -0.101  75.794  0.00  0.00    +0.000 A 
ATOM      4  C   UNL     1      10.061   1.889  76.004  0.00  0.00    +0.000 A 
ATOM      5  C   UNL     1       7.937   0.969  76.664  0.00  0.00    +0.000 A 
ATOM      6  C   UNL     1       8.903   1.956  76.768  0.00  0.00    +0.000 A 
ENDROOT
BRANCH   2   7
ATOM      7  O   UNL     1      11.394   0.770  74.315  0.00  0.00    +0.000 OA
ATOM      8  C   UNL     1      12.256   1.870  74.389  0.00  0.00    +0.000 C 
ENDBRANCH   2   7
BRANCH   3   9
ATOM      9  O   UNL     1       7.124  -1.021  75.748  0.00  0.00    +0.000 OA
ATOM     10  H   UNL     1       7.480  -1.894  75.473  0.00  0.00    +0.000 HD
ENDBRANCH   3   9
BRANCH   6  11
ATOM     11  O   UNL     1       8.691   2.995  77.623  0.00  0.00    +0.000 OA
ATOM     12  H   UNL     1       9.536   3.453  77.777  0.00  0.00    +0.000 HD
ENDBRANCH   6  11
BRANCH   1  14
ATOM     13  O   UNL     1       9.879  -2.457  74.620  0.00  0.00    +0.000 OA
ATOM     14  C   UNL     1       9.476  -1.396  74.156  0.00  0.00    +0.000 C 
BRANCH  14  15
ATOM     15  C   UNL     1       9.226  -1.301  72.739  0.00  0.00    +0.000 C 
ATOM     16  C   UNL     1       9.002  -1.214  71.561  0.00  0.00    +0.000 C 
BRANCH  16  17
ATOM     17  C   UNL     1       8.741  -1.114  70.163  0.00  0.00    +0.000 A 
ATOM     18  C   UNL     1       7.527  -1.568  69.649  0.00  0.00    +0.000 A 
ATOM     19  C   UNL     1       9.698  -0.566  69.313  0.00  0.00    +0.000 A 
ATOM     20  C   UNL     1       7.272  -1.473  68.283  0.00  0.00    +0.000 A 
ATOM     21  C   UNL     1       9.442  -0.471  67.947  0.00  0.00    +0.000 A 
ATOM     22  C   UNL     1       8.230  -0.925  67.433  0.00  0.00    +0.000 A 
ENDBRANCH  16  17
ENDBRANCH  14  15
ENDBRANCH   1  14
TORSDOF 6
ENDMDL
