MODEL 1
REMARK VINA RESULT:      -3.8      0.000      0.000
REMARK  Name = 6440856_Goniothalamin.pdbqt.pdb
REMARK  2 active torsions:
REMARK  status: ('A' for Active; 'I' for Inactive)
REMARK    1  A    between atoms: C_1  and  C_5
REMARK    2  A    between atoms: C_2  and  C_10
REMARK                            x       y       z     vdW  Elec       q    Type
REMARK                         _______ _______ _______ _____ _____    ______ ____
ROOT
ATOM      1  C   UNL     1      18.168   9.564  58.641  0.00  0.00    +0.000 C 
ATOM      2  C   UNL     1      18.651   9.261  57.584  0.00  0.00    +0.000 C 
ENDROOT
BRANCH   1   5
ATOM      3  O   UNL     1      16.260  10.442  59.909  0.00  0.00    +0.000 OA
ATOM      4  O   UNL     1      14.586  11.242  61.300  0.00  0.00    +0.000 OA
ATOM      5  C   UNL     1      17.601   9.918  59.887  0.00  0.00    +0.000 A 
ATOM      6  C   UNL     1      18.234   9.809  61.155  0.00  0.00    +0.000 A 
ATOM      7  C   UNL     1      17.702  10.162  62.524  0.00  0.00    +0.000 A 
ATOM      8  C   UNL     1      16.602  10.563  62.270  0.00  0.00    +0.000 A 
ATOM      9  C   UNL     1      15.710  10.789  61.149  0.00  0.00    +0.000 A 
ENDBRANCH   1   5
BRANCH   2  10
ATOM     10  C   UNL     1      19.226   8.901  56.329  0.00  0.00    +0.000 A 
ATOM     11  C   UNL     1      20.593   8.654  56.235  0.00  0.00    +0.000 A 
ATOM     12  C   UNL     1      18.417   8.796  55.199  0.00  0.00    +0.000 A 
ATOM     13  C   UNL     1      21.154   8.303  55.009  0.00  0.00    +0.000 A 
ATOM     14  C   UNL     1      18.978   8.444  53.974  0.00  0.00    +0.000 A 
ATOM     15  C   UNL     1      20.346   8.197  53.880  0.00  0.00    +0.000 A 
ENDBRANCH   2  10
TORSDOF 2
ENDMDL
MODEL 2
REMARK VINA RESULT:      -3.8      2.340      6.831
REMARK  Name = 6440856_Goniothalamin.pdbqt.pdb
REMARK  2 active torsions:
REMARK  status: ('A' for Active; 'I' for Inactive)
REMARK    1  A    between atoms: C_1  and  C_5
REMARK    2  A    between atoms: C_2  and  C_10
REMARK                            x       y       z     vdW  Elec       q    Type
REMARK                         _______ _______ _______ _____ _____    ______ ____
ROOT
ATOM      1  C   UNL     1      18.620   9.235  57.790  0.00  0.00    +0.000 C 
ATOM      2  C   UNL     1      18.239   9.490  58.900  0.00  0.00    +0.000 C 
ENDROOT
BRANCH   1   5
ATOM      3  O   UNL     1      18.102   8.865  55.420  0.00  0.00    +0.000 OA
ATOM      4  O   UNL     1      17.839   8.477  53.149  0.00  0.00    +0.000 OA
ATOM      5  C   UNL     1      19.070   8.930  56.484  0.00  0.00    +0.000 A 
ATOM      6  C   UNL     1      20.414   8.675  56.100  0.00  0.00    +0.000 A 
ATOM      7  C   UNL     1      20.975   8.345  54.737  0.00  0.00    +0.000 A 
ATOM      8  C   UNL     1      19.992   8.352  54.053  0.00  0.00    +0.000 A 
ATOM      9  C   UNL     1      18.559   8.562  54.132  0.00  0.00    +0.000 A 
ENDBRANCH   1   5
BRANCH   2  10
ATOM     10  C   UNL     1      17.786   9.793  60.218  0.00  0.00    +0.000 A 
ATOM     11  C   UNL     1      18.647   9.639  61.302  0.00  0.00    +0.000 A 
ATOM     12  C   UNL     1      16.483  10.243  60.419  0.00  0.00    +0.000 A 
ATOM     13  C   UNL     1      18.204   9.934  62.589  0.00  0.00    +0.000 A 
ATOM     14  C   UNL     1      16.041  10.539  61.706  0.00  0.00    +0.000 A 
ATOM     15  C   UNL     1      16.902  10.385  62.790  0.00  0.00    +0.000 A 
ENDBRANCH   2  10
TORSDOF 2
ENDMDL
MODEL 3
REMARK VINA RESULT:      -3.7      9.901     11.498
REMARK  Name = 6440856_Goniothalamin.pdbqt.pdb
REMARK  2 active torsions:
REMARK  status: ('A' for Active; 'I' for Inactive)
REMARK    1  A    between atoms: C_1  and  C_5
REMARK    2  A    between atoms: C_2  and  C_10
REMARK                            x       y       z     vdW  Elec       q    Type
REMARK                         _______ _______ _______ _____ _____    ______ ____
ROOT
ATOM      1  C   UNL     1      16.567   0.235  53.720  0.00  0.00    +0.000 C 
ATOM      2  C   UNL     1      17.675   0.594  54.011  0.00  0.00    +0.000 C 
ENDROOT
BRANCH   1   5
ATOM      3  O   UNL     1      14.957  -0.423  51.988  0.00  0.00    +0.000 OA
ATOM      4  O   UNL     1      13.281  -1.074  50.524  0.00  0.00    +0.000 OA
ATOM      5  C   UNL     1      15.263  -0.192  53.376  0.00  0.00    +0.000 A 
ATOM      6  C   UNL     1      14.193  -0.423  54.283  0.00  0.00    +0.000 A 
ATOM      7  C   UNL     1      12.780  -0.878  54.000  0.00  0.00    +0.000 A 
ATOM      8  C   UNL     1      12.788  -0.994  52.808  0.00  0.00    +0.000 A 
ATOM      9  C   UNL     1      13.663  -0.845  51.662  0.00  0.00    +0.000 A 
ENDBRANCH   1   5
BRANCH   2  10
ATOM     10  C   UNL     1      18.991   1.020  54.358  0.00  0.00    +0.000 A 
ATOM     11  C   UNL     1      19.613   0.505  55.493  0.00  0.00    +0.000 A 
ATOM     12  C   UNL     1      19.653   1.952  53.561  0.00  0.00    +0.000 A 
ATOM     13  C   UNL     1      20.898   0.922  55.831  0.00  0.00    +0.000 A 
ATOM     14  C   UNL     1      20.938   2.369  53.900  0.00  0.00    +0.000 A 
ATOM     15  C   UNL     1      21.560   1.853  55.034  0.00  0.00    +0.000 A 
ENDBRANCH   2  10
TORSDOF 2
ENDMDL
MODEL 4
REMARK VINA RESULT:      -3.7      1.444      2.219
REMARK  Name = 6440856_Goniothalamin.pdbqt.pdb
REMARK  2 active torsions:
REMARK  status: ('A' for Active; 'I' for Inactive)
REMARK    1  A    between atoms: C_1  and  C_5
REMARK    2  A    between atoms: C_2  and  C_10
REMARK                            x       y       z     vdW  Elec       q    Type
REMARK                         _______ _______ _______ _____ _____    ______ ____
ROOT
ATOM      1  C   UNL     1      18.350   9.430  58.699  0.00  0.00    +0.000 C 
ATOM      2  C   UNL     1      18.761   9.166  57.602  0.00  0.00    +0.000 C 
ENDROOT
BRANCH   1   5
ATOM      3  O   UNL     1      18.747   9.569  61.117  0.00  0.00    +0.000 OA
ATOM      4  O   UNL     1      18.903   9.779  63.421  0.00  0.00    +0.000 OA
ATOM      5  C   UNL     1      17.867   9.744  59.990  0.00  0.00    +0.000 A 
ATOM      6  C   UNL     1      16.568  10.228  60.302  0.00  0.00    +0.000 A 
ATOM      7  C   UNL     1      15.976  10.586  61.646  0.00  0.00    +0.000 A 
ATOM      8  C   UNL     1      16.886  10.356  62.390  0.00  0.00    +0.000 A 
ATOM      9  C   UNL     1      18.257   9.884  62.390  0.00  0.00    +0.000 A 
ENDBRANCH   1   5
BRANCH   2  10
ATOM     10  C   UNL     1      19.249   8.854  56.299  0.00  0.00    +0.000 A 
ATOM     11  C   UNL     1      18.364   8.775  55.226  0.00  0.00    +0.000 A 
ATOM     12  C   UNL     1      20.609   8.628  56.101  0.00  0.00    +0.000 A 
ATOM     13  C   UNL     1      18.841   8.468  53.953  0.00  0.00    +0.000 A 
ATOM     14  C   UNL     1      21.085   8.322  54.828  0.00  0.00    +0.000 A 
ATOM     15  C   UNL     1      20.201   8.243  53.755  0.00  0.00    +0.000 A 
ENDBRANCH   2  10
TORSDOF 2
ENDMDL
MODEL 5
REMARK VINA RESULT:      -3.7      1.590      2.327
REMARK  Name = 6440856_Goniothalamin.pdbqt.pdb
REMARK  2 active torsions:
REMARK  status: ('A' for Active; 'I' for Inactive)
REMARK    1  A    between atoms: C_1  and  C_5
REMARK    2  A    between atoms: C_2  and  C_10
REMARK                            x       y       z     vdW  Elec       q    Type
REMARK                         _______ _______ _______ _____ _____    ______ ____
ROOT
ATOM      1  C   UNL     1      18.550   9.556  58.542  0.00  0.00    +0.000 C 
ATOM      2  C   UNL     1      19.450   9.066  57.917  0.00  0.00    +0.000 C 
ENDROOT
BRANCH   1   5
ATOM      3  O   UNL     1      16.925  11.375  58.817  0.00  0.00    +0.000 OA
ATOM      4  O   UNL     1      15.315  12.981  59.266  0.00  0.00    +0.000 OA
ATOM      5  C   UNL     1      17.486  10.130  59.275  0.00  0.00    +0.000 A 
ATOM      6  C   UNL     1      16.895   9.593  60.452  0.00  0.00    +0.000 A 
ATOM      7  C   UNL     1      15.764  10.140  61.290  0.00  0.00    +0.000 A 
ATOM      8  C   UNL     1      15.487  11.150  60.710  0.00  0.00    +0.000 A 
ATOM      9  C   UNL     1      15.873  11.933  59.552  0.00  0.00    +0.000 A 
ENDBRANCH   1   5
BRANCH   2  10
ATOM     10  C   UNL     1      20.520   8.484  57.175  0.00  0.00    +0.000 A 
ATOM     11  C   UNL     1      20.568   8.631  55.790  0.00  0.00    +0.000 A 
ATOM     12  C   UNL     1      21.516   7.768  57.836  0.00  0.00    +0.000 A 
ATOM     13  C   UNL     1      21.613   8.061  55.066  0.00  0.00    +0.000 A 
ATOM     14  C   UNL     1      22.561   7.199  57.111  0.00  0.00    +0.000 A 
ATOM     15  C   UNL     1      22.609   7.347  55.727  0.00  0.00    +0.000 A 
ENDBRANCH   2  10
TORSDOF 2
ENDMDL
MODEL 6
REMARK VINA RESULT:      -3.6     18.681     20.183
REMARK  Name = 6440856_Goniothalamin.pdbqt.pdb
REMARK  2 active torsions:
REMARK  status: ('A' for Active; 'I' for Inactive)
REMARK    1  A    between atoms: C_1  and  C_5
REMARK    2  A    between atoms: C_2  and  C_10
REMARK                            x       y       z     vdW  Elec       q    Type
REMARK                         _______ _______ _______ _____ _____    ______ ____
ROOT
ATOM      1  C   UNL     1       2.623   7.376  69.095  0.00  0.00    +0.000 C 
ATOM      2  C   UNL     1       2.941   7.966  70.092  0.00  0.00    +0.000 C 
ENDROOT
BRANCH   1   5
ATOM      3  O   UNL     1       2.353   5.241  67.915  0.00  0.00    +0.000 OA
ATOM      4  O   UNL     1       2.023   3.349  66.617  0.00  0.00    +0.000 OA
ATOM      5  C   UNL     1       2.252   6.678  67.923  0.00  0.00    +0.000 A 
ATOM      6  C   UNL     1       1.776   7.261  66.717  0.00  0.00    +0.000 A 
ATOM      7  C   UNL     1       1.360   6.592  65.428  0.00  0.00    +0.000 A 
ATOM      8  C   UNL     1       1.535   5.434  65.679  0.00  0.00    +0.000 A 
ATOM      9  C   UNL     1       1.982   4.562  66.748  0.00  0.00    +0.000 A 
ENDBRANCH   1   5
BRANCH   2  10
ATOM     10  C   UNL     1       3.318   8.666  71.275  0.00  0.00    +0.000 A 
ATOM     11  C   UNL     1       4.533   9.345  71.325  0.00  0.00    +0.000 A 
ATOM     12  C   UNL     1       2.469   8.671  72.380  0.00  0.00    +0.000 A 
ATOM     13  C   UNL     1       4.901  10.028  72.482  0.00  0.00    +0.000 A 
ATOM     14  C   UNL     1       2.837   9.355  73.537  0.00  0.00    +0.000 A 
ATOM     15  C   UNL     1       4.052  10.034  73.587  0.00  0.00    +0.000 A 
ENDBRANCH   2  10
TORSDOF 2
ENDMDL
MODEL 7
REMARK VINA RESULT:      -3.5     20.453     22.953
REMARK  Name = 6440856_Goniothalamin.pdbqt.pdb
REMARK  2 active torsions:
REMARK  status: ('A' for Active; 'I' for Inactive)
REMARK    1  A    between atoms: C_1  and  C_5
REMARK    2  A    between atoms: C_2  and  C_10
REMARK                            x       y       z     vdW  Elec       q    Type
REMARK                         _______ _______ _______ _____ _____    ______ ____
ROOT
ATOM      1  C   UNL     1       3.766   6.452  75.109  0.00  0.00    +0.000 C 
ATOM      2  C   UNL     1       4.243   5.670  75.884  0.00  0.00    +0.000 C 
ENDROOT
BRANCH   1   5
ATOM      3  O   UNL     1       3.789   7.481  72.881  0.00  0.00    +0.000 OA
ATOM      4  O   UNL     1       3.628   8.581  70.846  0.00  0.00    +0.000 OA
ATOM      5  C   UNL     1       3.207   7.375  74.194  0.00  0.00    +0.000 A 
ATOM      6  C   UNL     1       2.101   8.232  74.441  0.00  0.00    +0.000 A 
ATOM      7  C   UNL     1       1.446   9.240  73.524  0.00  0.00    +0.000 A 
ATOM      8  C   UNL     1       2.101   9.134  72.527  0.00  0.00    +0.000 A 
ATOM      9  C   UNL     1       3.227   8.398  71.985  0.00  0.00    +0.000 A 
ENDBRANCH   1   5
BRANCH   2  10
ATOM     10  C   UNL     1       4.810   4.739  76.804  0.00  0.00    +0.000 A 
ATOM     11  C   UNL     1       5.907   3.968  76.427  0.00  0.00    +0.000 A 
ATOM     12  C   UNL     1       4.266   4.603  78.079  0.00  0.00    +0.000 A 
ATOM     13  C   UNL     1       6.460   3.059  77.326  0.00  0.00    +0.000 A 
ATOM     14  C   UNL     1       4.819   3.694  78.978  0.00  0.00    +0.000 A 
ATOM     15  C   UNL     1       5.917   2.923  78.601  0.00  0.00    +0.000 A 
ENDBRANCH   2  10
TORSDOF 2
ENDMDL
MODEL 8
REMARK VINA RESULT:      -3.5     10.606     11.755
REMARK  Name = 6440856_Goniothalamin.pdbqt.pdb
REMARK  2 active torsions:
REMARK  status: ('A' for Active; 'I' for Inactive)
REMARK    1  A    between atoms: C_1  and  C_5
REMARK    2  A    between atoms: C_2  and  C_10
REMARK                            x       y       z     vdW  Elec       q    Type
REMARK                         _______ _______ _______ _____ _____    ______ ____
ROOT
ATOM      1  C   UNL     1      16.336  -1.270  55.320  0.00  0.00    +0.000 C 
ATOM      2  C   UNL     1      17.288  -0.571  55.107  0.00  0.00    +0.000 C 
ENDROOT
BRANCH   1   5
ATOM      3  O   UNL     1      13.917  -1.476  55.679  0.00  0.00    +0.000 OA
ATOM      4  O   UNL     1      11.666  -1.900  56.042  0.00  0.00    +0.000 OA
ATOM      5  C   UNL     1      15.214  -2.093  55.575  0.00  0.00    +0.000 A 
ATOM      6  C   UNL     1      15.233  -3.504  55.744  0.00  0.00    +0.000 A 
ATOM      7  C   UNL     1      14.087  -4.451  56.017  0.00  0.00    +0.000 A 
ATOM      8  C   UNL     1      13.150  -3.706  56.057  0.00  0.00    +0.000 A 
ATOM      9  C   UNL     1      12.815  -2.301  55.932  0.00  0.00    +0.000 A 
ENDBRANCH   1   5
BRANCH   2  10
ATOM     10  C   UNL     1      18.419   0.260  54.853  0.00  0.00    +0.000 A 
ATOM     11  C   UNL     1      19.509   0.235  55.721  0.00  0.00    +0.000 A 
ATOM     12  C   UNL     1      18.433   1.095  53.738  0.00  0.00    +0.000 A 
ATOM     13  C   UNL     1      20.613   1.047  55.473  0.00  0.00    +0.000 A 
ATOM     14  C   UNL     1      19.538   1.907  53.491  0.00  0.00    +0.000 A 
ATOM     15  C   UNL     1      20.627   1.882  54.358  0.00  0.00    +0.000 A 
ENDBRANCH   2  10
TORSDOF 2
ENDMDL
MODEL 9
REMARK VINA RESULT:      -3.5      9.703     11.497
REMARK  Name = 6440856_Goniothalamin.pdbqt.pdb
REMARK  2 active torsions:
REMARK  status: ('A' for Active; 'I' for Inactive)
REMARK    1  A    between atoms: C_1  and  C_5
REMARK    2  A    between atoms: C_2  and  C_10
REMARK                            x       y       z     vdW  Elec       q    Type
REMARK                         _______ _______ _______ _____ _____    ______ ____
ROOT
ATOM      1  C   UNL     1      16.188   2.412  51.080  0.00  0.00    +0.000 C 
ATOM      2  C   UNL     1      17.026   2.140  51.897  0.00  0.00    +0.000 C 
ENDROOT
BRANCH   1   5
ATOM      3  O   UNL     1      14.788   4.101  49.982  0.00  0.00    +0.000 OA
ATOM      4  O   UNL     1      13.376   5.524  48.816  0.00  0.00    +0.000 OA
ATOM      5  C   UNL     1      15.201   2.729  50.119  0.00  0.00    +0.000 A 
ATOM      6  C   UNL     1      14.555   1.809  49.249  0.00  0.00    +0.000 A 
ATOM      7  C   UNL     1      13.497   2.064  48.200  0.00  0.00    +0.000 A 
ATOM      8  C   UNL     1      13.337   3.247  48.288  0.00  0.00    +0.000 A 
ATOM      9  C   UNL     1      13.809   4.402  49.027  0.00  0.00    +0.000 A 
ENDBRANCH   1   5
BRANCH   2  10
ATOM     10  C   UNL     1      18.020   1.817  52.867  0.00  0.00    +0.000 A 
ATOM     11  C   UNL     1      17.737   0.896  53.873  0.00  0.00    +0.000 A 
ATOM     12  C   UNL     1      19.273   2.422  52.806  0.00  0.00    +0.000 A 
ATOM     13  C   UNL     1      18.708   0.581  54.821  0.00  0.00    +0.000 A 
ATOM     14  C   UNL     1      20.244   2.107  53.754  0.00  0.00    +0.000 A 
ATOM     15  C   UNL     1      19.961   1.186  54.760  0.00  0.00    +0.000 A 
ENDBRANCH   2  10
TORSDOF 2
ENDMDL
