MODEL 1
REMARK VINA RESULT:      -2.9      0.000      0.000
REMARK  Name = 649_Dihydrouracil.pdb
REMARK  0 active torsions:
REMARK  status: ('A' for Active; 'I' for Inactive)
REMARK                            x       y       z     vdW  Elec       q    Type
REMARK                         _______ _______ _______ _____ _____    ______ ____
ROOT
ATOM      1  O   UNL     1      15.645   5.487  67.853  0.00  0.00    +0.000 OA
ATOM      2  O   UNL     1      13.440   9.539  67.971  0.00  0.00    +0.000 OA
ATOM      3  N   UNL     1      14.315   8.747  69.937  0.00  0.00    +0.000 N 
ATOM      4  N   UNL     1      14.542   7.522  67.934  0.00  0.00    +0.000 N 
ATOM      5  C   UNL     1      14.986   7.799  70.605  0.00  0.00    +0.000 A 
ATOM      6  C   UNL     1      15.495   6.588  69.894  0.00  0.00    +0.000 A 
ATOM      7  C   UNL     1      15.253   6.456  68.484  0.00  0.00    +0.000 A 
ATOM      8  C   UNL     1      14.055   8.667  68.574  0.00  0.00    +0.000 A 
ATOM      9  H   UNL     1      13.975   9.564  70.428  0.00  0.00    +0.000 HD
ATOM     10  H   UNL     1      14.356   7.461  66.945  0.00  0.00    +0.000 HD
ENDROOT
TORSDOF 0
ENDMDL
MODEL 2
REMARK VINA RESULT:      -2.9     12.184     12.954
REMARK  Name = 649_Dihydrouracil.pdb
REMARK  0 active torsions:
REMARK  status: ('A' for Active; 'I' for Inactive)
REMARK                            x       y       z     vdW  Elec       q    Type
REMARK                         _______ _______ _______ _____ _____    ______ ____
ROOT
ATOM      1  O   UNL     1       6.531   5.175  57.973  0.00  0.00    +0.000 OA
ATOM      2  O   UNL     1       9.739   1.948  58.742  0.00  0.00    +0.000 OA
ATOM      3  N   UNL     1      10.452   4.107  58.448  0.00  0.00    +0.000 N 
ATOM      4  N   UNL     1       8.158   3.570  58.358  0.00  0.00    +0.000 N 
ATOM      5  C   UNL     1      10.171   5.396  58.218  0.00  0.00    +0.000 A 
ATOM      6  C   UNL     1       8.756   5.842  58.037  0.00  0.00    +0.000 A 
ATOM      7  C   UNL     1       7.705   4.867  58.114  0.00  0.00    +0.000 A 
ATOM      8  C   UNL     1       9.473   3.125  58.531  0.00  0.00    +0.000 A 
ATOM      9  H   UNL     1      11.414   3.816  58.570  0.00  0.00    +0.000 HD
ATOM     10  H   UNL     1       7.444   2.861  58.417  0.00  0.00    +0.000 HD
ENDROOT
TORSDOF 0
ENDMDL
MODEL 3
REMARK VINA RESULT:      -2.7      1.725      2.587
REMARK  Name = 649_Dihydrouracil.pdb
REMARK  0 active torsions:
REMARK  status: ('A' for Active; 'I' for Inactive)
REMARK                            x       y       z     vdW  Elec       q    Type
REMARK                         _______ _______ _______ _____ _____    ______ ____
ROOT
ATOM      1  O   UNL     1      14.246   8.371  71.933  0.00  0.00    +0.000 OA
ATOM      2  O   UNL     1      13.605   8.330  67.364  0.00  0.00    +0.000 OA
ATOM      3  N   UNL     1      15.472   7.282  68.185  0.00  0.00    +0.000 N 
ATOM      4  N   UNL     1      13.943   8.338  69.637  0.00  0.00    +0.000 N 
ATOM      5  C   UNL     1      16.232   6.923  69.229  0.00  0.00    +0.000 A 
ATOM      6  C   UNL     1      15.831   7.293  70.620  0.00  0.00    +0.000 A 
ATOM      7  C   UNL     1      14.621   8.040  70.819  0.00  0.00    +0.000 A 
ATOM      8  C   UNL     1      14.293   8.005  68.324  0.00  0.00    +0.000 A 
ATOM      9  H   UNL     1      15.752   7.026  67.247  0.00  0.00    +0.000 HD
ATOM     10  H   UNL     1      13.089   8.863  69.742  0.00  0.00    +0.000 HD
ENDROOT
TORSDOF 0
ENDMDL
MODEL 4
REMARK VINA RESULT:      -2.4     12.187     12.645
REMARK  Name = 649_Dihydrouracil.pdb
REMARK  0 active torsions:
REMARK  status: ('A' for Active; 'I' for Inactive)
REMARK                            x       y       z     vdW  Elec       q    Type
REMARK                         _______ _______ _______ _____ _____    ______ ____
ROOT
ATOM      1  O   UNL     1      11.197   5.725  57.850  0.00  0.00    +0.000 OA
ATOM      2  O   UNL     1       6.597   5.926  58.155  0.00  0.00    +0.000 OA
ATOM      3  N   UNL     1       7.601   3.901  58.541  0.00  0.00    +0.000 N 
ATOM      4  N   UNL     1       8.887   5.804  58.008  0.00  0.00    +0.000 N 
ATOM      5  C   UNL     1       8.713   3.159  58.625  0.00  0.00    +0.000 A 
ATOM      6  C   UNL     1      10.053   3.774  58.383  0.00  0.00    +0.000 A 
ATOM      7  C   UNL     1      10.129   5.171  58.059  0.00  0.00    +0.000 A 
ATOM      8  C   UNL     1       7.619   5.255  58.230  0.00  0.00    +0.000 A 
ATOM      9  H   UNL     1       6.698   3.474  58.707  0.00  0.00    +0.000 HD
ATOM     10  H   UNL     1       8.905   6.786  57.783  0.00  0.00    +0.000 HD
ENDROOT
TORSDOF 0
ENDMDL
MODEL 5
REMARK VINA RESULT:      -2.4     12.173     13.178
REMARK  Name = 649_Dihydrouracil.pdb
REMARK  0 active torsions:
REMARK  status: ('A' for Active; 'I' for Inactive)
REMARK                            x       y       z     vdW  Elec       q    Type
REMARK                         _______ _______ _______ _____ _____    ______ ____
ROOT
ATOM      1  O   UNL     1       0.226   9.838  72.290  0.00  0.00    +0.000 OA
ATOM      2  O   UNL     1       3.947   7.645  73.914  0.00  0.00    +0.000 OA
ATOM      3  N   UNL     1       3.780   7.916  71.643  0.00  0.00    +0.000 N 
ATOM      4  N   UNL     1       2.102   8.735  73.084  0.00  0.00    +0.000 N 
ATOM      5  C   UNL     1       3.105   8.374  70.580  0.00  0.00    +0.000 A 
ATOM      6  C   UNL     1       1.803   9.084  70.758  0.00  0.00    +0.000 A 
ATOM      7  C   UNL     1       1.286   9.267  72.085  0.00  0.00    +0.000 A 
ATOM      8  C   UNL     1       3.324   8.067  72.947  0.00  0.00    +0.000 A 
ATOM      9  H   UNL     1       4.662   7.437  71.511  0.00  0.00    +0.000 HD
ATOM     10  H   UNL     1       1.767   8.846  74.028  0.00  0.00    +0.000 HD
ENDROOT
TORSDOF 0
ENDMDL
MODEL 6
REMARK VINA RESULT:      -2.3     11.885     12.138
REMARK  Name = 649_Dihydrouracil.pdb
REMARK  0 active torsions:
REMARK  status: ('A' for Active; 'I' for Inactive)
REMARK                            x       y       z     vdW  Elec       q    Type
REMARK                         _______ _______ _______ _____ _____    ______ ____
ROOT
ATOM      1  O   UNL     1       6.908   2.373  77.023  0.00  0.00    +0.000 OA
ATOM      2  O   UNL     1       3.599   5.016  75.191  0.00  0.00    +0.000 OA
ATOM      3  N   UNL     1       5.393   6.072  76.152  0.00  0.00    +0.000 N 
ATOM      4  N   UNL     1       5.259   3.718  76.109  0.00  0.00    +0.000 N 
ATOM      5  C   UNL     1       6.569   6.004  76.791  0.00  0.00    +0.000 A 
ATOM      6  C   UNL     1       7.169   4.680  77.134  0.00  0.00    +0.000 A 
ATOM      7  C   UNL     1       6.466   3.482  76.768  0.00  0.00    +0.000 A 
ATOM      8  C   UNL     1       4.674   4.945  75.776  0.00  0.00    +0.000 A 
ATOM      9  H   UNL     1       4.996   6.975  75.924  0.00  0.00    +0.000 HD
ATOM     10  H   UNL     1       4.740   2.898  75.839  0.00  0.00    +0.000 HD
ENDROOT
TORSDOF 0
ENDMDL
MODEL 7
REMARK VINA RESULT:      -2.3     10.856     11.709
REMARK  Name = 649_Dihydrouracil.pdb
REMARK  0 active torsions:
REMARK  status: ('A' for Active; 'I' for Inactive)
REMARK                            x       y       z     vdW  Elec       q    Type
REMARK                         _______ _______ _______ _____ _____    ______ ____
ROOT
ATOM      1  O   UNL     1       3.704   7.592  72.885  0.00  0.00    +0.000 OA
ATOM      2  O   UNL     1       5.415  11.383  70.888  0.00  0.00    +0.000 OA
ATOM      3  N   UNL     1       3.274  10.770  70.344  0.00  0.00    +0.000 N 
ATOM      4  N   UNL     1       4.544   9.498  71.871  0.00  0.00    +0.000 N 
ATOM      5  C   UNL     1       2.242   9.927  70.484  0.00  0.00    +0.000 A 
ATOM      6  C   UNL     1       2.343   8.750  71.399  0.00  0.00    +0.000 A 
ATOM      7  C   UNL     1       3.564   8.537  72.124  0.00  0.00    +0.000 A 
ATOM      8  C   UNL     1       4.476  10.608  71.022  0.00  0.00    +0.000 A 
ATOM      9  H   UNL     1       3.194  11.564  69.722  0.00  0.00    +0.000 HD
ATOM     10  H   UNL     1       5.414   9.377  72.365  0.00  0.00    +0.000 HD
ENDROOT
TORSDOF 0
ENDMDL
MODEL 8
REMARK VINA RESULT:      -2.2     10.981     11.426
REMARK  Name = 649_Dihydrouracil.pdb
REMARK  0 active torsions:
REMARK  status: ('A' for Active; 'I' for Inactive)
REMARK                            x       y       z     vdW  Elec       q    Type
REMARK                         _______ _______ _______ _____ _____    ______ ____
ROOT
ATOM      1  O   UNL     1       7.095  11.962  61.767  0.00  0.00    +0.000 OA
ATOM      2  O   UNL     1       5.692   7.691  62.808  0.00  0.00    +0.000 OA
ATOM      3  N   UNL     1       7.005   7.955  60.947  0.00  0.00    +0.000 N 
ATOM      4  N   UNL     1       6.401   9.810  62.272  0.00  0.00    +0.000 N 
ATOM      5  C   UNL     1       7.697   8.754  60.124  0.00  0.00    +0.000 A 
ATOM      6  C   UNL     1       7.764  10.225  60.376  0.00  0.00    +0.000 A 
ATOM      7  C   UNL     1       7.075  10.768  61.513  0.00  0.00    +0.000 A 
ATOM      8  C   UNL     1       6.322   8.429  62.060  0.00  0.00    +0.000 A 
ATOM      9  H   UNL     1       6.967   6.959  60.768  0.00  0.00    +0.000 HD
ATOM     10  H   UNL     1       5.907  10.158  63.078  0.00  0.00    +0.000 HD
ENDROOT
TORSDOF 0
ENDMDL
MODEL 9
REMARK VINA RESULT:      -2.2     11.928     12.559
REMARK  Name = 649_Dihydrouracil.pdb
REMARK  0 active torsions:
REMARK  status: ('A' for Active; 'I' for Inactive)
REMARK                            x       y       z     vdW  Elec       q    Type
REMARK                         _______ _______ _______ _____ _____    ______ ____
ROOT
ATOM      1  O   UNL     1       6.140   7.989  76.704  0.00  0.00    +0.000 OA
ATOM      2  O   UNL     1       2.818   5.075  75.375  0.00  0.00    +0.000 OA
ATOM      3  N   UNL     1       4.774   4.171  76.159  0.00  0.00    +0.000 N 
ATOM      4  N   UNL     1       4.485   6.509  76.043  0.00  0.00    +0.000 N 
ATOM      5  C   UNL     1       6.008   4.337  76.652  0.00  0.00    +0.000 A 
ATOM      6  C   UNL     1       6.558   5.709  76.873  0.00  0.00    +0.000 A 
ATOM      7  C   UNL     1       5.742   6.845  76.546  0.00  0.00    +0.000 A 
ATOM      8  C   UNL     1       3.946   5.236  75.827  0.00  0.00    +0.000 A 
ATOM      9  H   UNL     1       4.412   3.237  76.014  0.00  0.00    +0.000 HD
ATOM     10  H   UNL     1       3.888   7.284  75.803  0.00  0.00    +0.000 HD
ENDROOT
TORSDOF 0
ENDMDL
