MODEL 1
REMARK VINA RESULT:      -5.9      0.000      0.000
REMARK  Name = 6509753_ManzamineA.pdbqt.pdb
REMARK  2 active torsions:
REMARK  status: ('A' for Active; 'I' for Inactive)
REMARK    1  A    between atoms: C_7  and  O_42
REMARK    2  A    between atoms: C_11  and  C_30
REMARK                            x       y       z     vdW  Elec       q    Type
REMARK                         _______ _______ _______ _____ _____    ______ ____
ROOT
ATOM      1  N   UNL     1      14.331  11.702  59.822  0.00  0.00    +0.000 N 
ATOM      2  N   UNL     1      17.705  15.260  58.930  0.00  0.00    +0.000 N 
ATOM      3  C   UNL     1      16.445  12.677  58.828  0.00  0.00    +0.000 C 
ATOM      4  C   UNL     1      15.801  11.837  59.979  0.00  0.00    +0.000 C 
ATOM      5  C   UNL     1      17.675  12.074  58.030  0.00  0.00    +0.000 C 
ATOM      6  C   UNL     1      15.256  12.736  57.982  0.00  0.00    +0.000 C 
ATOM      7  C   UNL     1      16.571  10.639  60.543  0.00  0.00    +0.000 C 
ATOM      8  C   UNL     1      16.843  14.071  59.232  0.00  0.00    +0.000 C 
ATOM      9  C   UNL     1      14.015  12.403  58.557  0.00  0.00    +0.000 C 
ATOM     10  C   UNL     1      18.588  13.081  57.552  0.00  0.00    +0.000 C 
ATOM     11  C   UNL     1      18.199  10.791  58.478  0.00  0.00    +0.000 C 
ATOM     12  C   UNL     1      17.607  10.393  59.560  0.00  0.00    +0.000 C 
ATOM     13  C   UNL     1      18.606  14.540  58.018  0.00  0.00    +0.000 C 
ATOM     14  C   UNL     1      13.602  12.240  60.973  0.00  0.00    +0.000 C 
ATOM     15  C   UNL     1      17.065  10.936  61.883  0.00  0.00    +0.000 C 
ATOM     16  C   UNL     1      12.801  13.134  58.391  0.00  0.00    +0.000 C 
ATOM     17  C   UNL     1      18.446  15.589  60.137  0.00  0.00    +0.000 C 
ATOM     18  C   UNL     1      12.507  12.998  61.747  0.00  0.00    +0.000 C 
ATOM     19  C   UNL     1      17.680  11.384  63.211  0.00  0.00    +0.000 C 
ATOM     20  C   UNL     1      11.816  13.737  58.721  0.00  0.00    +0.000 C 
ATOM     21  C   UNL     1      11.311  13.864  61.357  0.00  0.00    +0.000 C 
ATOM     22  C   UNL     1      19.127  15.800  61.492  0.00  0.00    +0.000 C 
ATOM     23  C   UNL     1      10.973  14.203  59.909  0.00  0.00    +0.000 C 
ATOM     24  C   UNL     1      18.424  12.228  64.242  0.00  0.00    +0.000 C 
ATOM     25  C   UNL     1      19.559  15.539  62.932  0.00  0.00    +0.000 C 
ATOM     26  C   UNL     1      19.539  14.601  64.127  0.00  0.00    +0.000 C 
ATOM     27  C   UNL     1      19.010  13.233  64.525  0.00  0.00    +0.000 C 
ENDROOT
BRANCH  11  30
ATOM     28  N   UNL     1      20.488  10.016  58.681  0.00  0.00    +0.000 NA
ATOM     29  N   UNL     1      18.327   9.453  55.731  0.00  0.00    +0.000 N 
ATOM     30  C   UNL     1      19.360  10.097  57.941  0.00  0.00    +0.000 A 
ATOM     31  C   UNL     1      19.330   9.526  56.670  0.00  0.00    +0.000 A 
ATOM     32  C   UNL     1      20.440   8.871  56.135  0.00  0.00    +0.000 A 
ATOM     33  C   UNL     1      21.559   9.380  58.156  0.00  0.00    +0.000 A 
ATOM     34  C   UNL     1      21.613   8.790  56.901  0.00  0.00    +0.000 A 
ATOM     35  C   UNL     1      20.078   8.406  54.833  0.00  0.00    +0.000 A 
ATOM     36  C   UNL     1      18.756   8.784  54.609  0.00  0.00    +0.000 A 
ATOM     37  C   UNL     1      20.758   7.695  53.827  0.00  0.00    +0.000 A 
ATOM     38  C   UNL     1      18.069   8.487  53.428  0.00  0.00    +0.000 A 
ATOM     39  C   UNL     1      20.089   7.389  52.639  0.00  0.00    +0.000 A 
ATOM     40  C   UNL     1      18.768   7.780  52.448  0.00  0.00    +0.000 A 
ATOM     41  H   UNL     1      17.397   9.831  55.849  0.00  0.00    +0.000 HD
ENDBRANCH  11  30
BRANCH   7  42
ATOM     42  O   UNL     1      15.743   9.487  60.598  0.00  0.00    +0.000 OA
ATOM     43  H   UNL     1      15.954   9.044  61.437  0.00  0.00    +0.000 HD
ENDBRANCH   7  42
TORSDOF 2
ENDMDL
MODEL 2
REMARK VINA RESULT:      -5.6      2.688      4.238
REMARK  Name = 6509753_ManzamineA.pdbqt.pdb
REMARK  2 active torsions:
REMARK  status: ('A' for Active; 'I' for Inactive)
REMARK    1  A    between atoms: C_7  and  O_42
REMARK    2  A    between atoms: C_11  and  C_30
REMARK                            x       y       z     vdW  Elec       q    Type
REMARK                         _______ _______ _______ _____ _____    ______ ____
ROOT
ATOM      1  N   UNL     1      12.778  14.829  60.822  0.00  0.00    +0.000 N 
ATOM      2  N   UNL     1      17.464  15.935  59.532  0.00  0.00    +0.000 N 
ATOM      3  C   UNL     1      14.736  15.074  59.235  0.00  0.00    +0.000 C 
ATOM      4  C   UNL     1      13.890  14.119  60.139  0.00  0.00    +0.000 C 
ATOM      5  C   UNL     1      14.994  14.675  57.724  0.00  0.00    +0.000 C 
ATOM      6  C   UNL     1      13.839  16.222  59.324  0.00  0.00    +0.000 C 
ATOM      7  C   UNL     1      13.636  12.684  59.669  0.00  0.00    +0.000 C 
ATOM      8  C   UNL     1      16.077  15.439  59.813  0.00  0.00    +0.000 C 
ATOM      9  C   UNL     1      12.861  16.225  60.337  0.00  0.00    +0.000 C 
ATOM     10  C   UNL     1      16.254  15.157  57.217  0.00  0.00    +0.000 C 
ATOM     11  C   UNL     1      14.495  13.381  57.279  0.00  0.00    +0.000 C 
ATOM     12  C   UNL     1      13.990  12.707  58.264  0.00  0.00    +0.000 C 
ATOM     13  C   UNL     1      17.396  15.697  58.083  0.00  0.00    +0.000 C 
ATOM     14  C   UNL     1      12.870  14.722  62.280  0.00  0.00    +0.000 C 
ATOM     15  C   UNL     1      14.407  11.740  60.473  0.00  0.00    +0.000 C 
ATOM     16  C   UNL     1      12.545  17.330  61.182  0.00  0.00    +0.000 C 
ATOM     17  C   UNL     1      18.400  14.985  60.108  0.00  0.00    +0.000 C 
ATOM     18  C   UNL     1      12.810  15.165  63.754  0.00  0.00    +0.000 C 
ATOM     19  C   UNL     1      15.365  10.838  61.254  0.00  0.00    +0.000 C 
ATOM     20  C   UNL     1      12.373  17.924  62.212  0.00  0.00    +0.000 C 
ATOM     21  C   UNL     1      12.567  16.490  64.475  0.00  0.00    +0.000 C 
ATOM     22  C   UNL     1      19.237  13.894  60.783  0.00  0.00    +0.000 C 
ATOM     23  C   UNL     1      12.343  17.805  63.737  0.00  0.00    +0.000 C 
ATOM     24  C   UNL     1      16.646  10.304  61.888  0.00  0.00    +0.000 C 
ATOM     25  C   UNL     1      19.579  12.586  61.491  0.00  0.00    +0.000 C 
ATOM     26  C   UNL     1      19.088  11.253  62.032  0.00  0.00    +0.000 C 
ATOM     27  C   UNL     1      17.813  10.434  62.126  0.00  0.00    +0.000 C 
ENDROOT
BRANCH  11  30
ATOM     28  N   UNL     1      13.889  13.174  54.939  0.00  0.00    +0.000 NA
ATOM     29  N   UNL     1      16.595  11.266  56.592  0.00  0.00    +0.000 N 
ATOM     30  C   UNL     1      14.684  12.788  55.963  0.00  0.00    +0.000 A 
ATOM     31  C   UNL     1      15.661  11.820  55.745  0.00  0.00    +0.000 A 
ATOM     32  C   UNL     1      15.845  11.231  54.493  0.00  0.00    +0.000 A 
ATOM     33  C   UNL     1      14.073  12.600  53.730  0.00  0.00    +0.000 A 
ATOM     34  C   UNL     1      15.018  11.628  53.431  0.00  0.00    +0.000 A 
ATOM     35  C   UNL     1      16.916  10.293  54.612  0.00  0.00    +0.000 A 
ATOM     36  C   UNL     1      17.364  10.338  55.931  0.00  0.00    +0.000 A 
ATOM     37  C   UNL     1      17.547   9.413  53.713  0.00  0.00    +0.000 A 
ATOM     38  C   UNL     1      18.415   9.547  56.405  0.00  0.00    +0.000 A 
ATOM     39  C   UNL     1      18.598   8.614  54.168  0.00  0.00    +0.000 A 
ATOM     40  C   UNL     1      19.022   8.683  55.490  0.00  0.00    +0.000 A 
ATOM     41  H   UNL     1      16.710  11.513  57.565  0.00  0.00    +0.000 HD
ENDBRANCH  11  30
BRANCH   7  42
ATOM     42  O   UNL     1      12.258  12.357  59.764  0.00  0.00    +0.000 OA
ATOM     43  H   UNL     1      11.958  12.702  60.622  0.00  0.00    +0.000 HD
ENDBRANCH   7  42
TORSDOF 2
ENDMDL
MODEL 3
REMARK VINA RESULT:      -5.5     11.342     14.241
REMARK  Name = 6509753_ManzamineA.pdbqt.pdb
REMARK  2 active torsions:
REMARK  status: ('A' for Active; 'I' for Inactive)
REMARK    1  A    between atoms: C_7  and  O_42
REMARK    2  A    between atoms: C_11  and  C_30
REMARK                            x       y       z     vdW  Elec       q    Type
REMARK                         _______ _______ _______ _____ _____    ______ ____
ROOT
ATOM      1  N   UNL     1      14.487   0.972  51.215  0.00  0.00    +0.000 N 
ATOM      2  N   UNL     1      18.465  -1.674  49.793  0.00  0.00    +0.000 N 
ATOM      3  C   UNL     1      16.516  -0.504  51.555  0.00  0.00    +0.000 C 
ATOM      4  C   UNL     1      15.930   0.945  51.569  0.00  0.00    +0.000 C 
ATOM      5  C   UNL     1      17.305  -1.027  52.826  0.00  0.00    +0.000 C 
ATOM      6  C   UNL     1      15.238  -1.197  51.415  0.00  0.00    +0.000 C 
ATOM      7  C   UNL     1      16.421   1.934  52.630  0.00  0.00    +0.000 C 
ATOM      8  C   UNL     1      17.383  -0.805  50.363  0.00  0.00    +0.000 C 
ATOM      9  C   UNL     1      14.116  -0.447  51.017  0.00  0.00    +0.000 C 
ATOM     10  C   UNL     1      18.341  -1.974  52.499  0.00  0.00    +0.000 C 
ATOM     11  C   UNL     1      17.518  -0.085  53.916  0.00  0.00    +0.000 C 
ATOM     12  C   UNL     1      17.093   1.099  53.604  0.00  0.00    +0.000 C 
ATOM     13  C   UNL     1      18.888  -2.223  51.090  0.00  0.00    +0.000 C 
ATOM     14  C   UNL     1      14.225   1.803  50.038  0.00  0.00    +0.000 C 
ATOM     15  C   UNL     1      17.268   2.956  52.021  0.00  0.00    +0.000 C 
ATOM     16  C   UNL     1      13.163  -0.839  50.030  0.00  0.00    +0.000 C 
ATOM     17  C   UNL     1      19.519  -0.804  49.300  0.00  0.00    +0.000 C 
ATOM     18  C   UNL     1      13.601   2.226  48.694  0.00  0.00    +0.000 C 
ATOM     19  C   UNL     1      18.267   3.888  51.333  0.00  0.00    +0.000 C 
ATOM     20  C   UNL     1      12.496  -0.748  49.035  0.00  0.00    +0.000 C 
ATOM     21  C   UNL     1      12.654   1.572  47.690  0.00  0.00    +0.000 C 
ATOM     22  C   UNL     1      20.518   0.256  48.825  0.00  0.00    +0.000 C 
ATOM     23  C   UNL     1      12.115   0.156  47.861  0.00  0.00    +0.000 C 
ATOM     24  C   UNL     1      19.437   4.369  50.479  0.00  0.00    +0.000 C 
ATOM     25  C   UNL     1      21.166   1.623  48.625  0.00  0.00    +0.000 C 
ATOM     26  C   UNL     1      21.140   3.112  48.928  0.00  0.00    +0.000 C 
ATOM     27  C   UNL     1      20.338   4.123  49.730  0.00  0.00    +0.000 C 
ENDROOT
BRANCH  11  30
ATOM     28  N   UNL     1      17.816  -1.233  56.032  0.00  0.00    +0.000 NA
ATOM     29  N   UNL     1      20.140   1.300  54.664  0.00  0.00    +0.000 N 
ATOM     30  C   UNL     1      18.274  -0.332  55.135  0.00  0.00    +0.000 A 
ATOM     31  C   UNL     1      19.456   0.358  55.398  0.00  0.00    +0.000 A 
ATOM     32  C   UNL     1      20.185   0.144  56.569  0.00  0.00    +0.000 A 
ATOM     33  C   UNL     1      18.526  -1.435  57.163  0.00  0.00    +0.000 A 
ATOM     34  C   UNL     1      19.707  -0.790  57.502  0.00  0.00    +0.000 A 
ATOM     35  C   UNL     1      21.330   0.998  56.524  0.00  0.00    +0.000 A 
ATOM     36  C   UNL     1      21.275   1.706  55.326  0.00  0.00    +0.000 A 
ATOM     37  C   UNL     1      22.410   1.228  57.397  0.00  0.00    +0.000 A 
ATOM     38  C   UNL     1      22.246   2.637  54.946  0.00  0.00    +0.000 A 
ATOM     39  C   UNL     1      23.390   2.155  57.036  0.00  0.00    +0.000 A 
ATOM     40  C   UNL     1      23.306   2.844  55.832  0.00  0.00    +0.000 A 
ATOM     41  H   UNL     1      19.855   1.644  53.757  0.00  0.00    +0.000 HD
ENDBRANCH  11  30
BRANCH   7  42
ATOM     42  O   UNL     1      15.327   2.565  53.279  0.00  0.00    +0.000 OA
ATOM     43  H   UNL     1      15.716   3.176  53.927  0.00  0.00    +0.000 HD
ENDBRANCH   7  42
TORSDOF 2
ENDMDL
MODEL 4
REMARK VINA RESULT:      -5.5      9.227     12.411
REMARK  Name = 6509753_ManzamineA.pdbqt.pdb
REMARK  2 active torsions:
REMARK  status: ('A' for Active; 'I' for Inactive)
REMARK    1  A    between atoms: C_7  and  O_42
REMARK    2  A    between atoms: C_11  and  C_30
REMARK                            x       y       z     vdW  Elec       q    Type
REMARK                         _______ _______ _______ _____ _____    ______ ____
ROOT
ATOM      1  N   UNL     1      19.439   7.756  48.980  0.00  0.00    +0.000 N 
ATOM      2  N   UNL     1      22.561   3.874  49.153  0.00  0.00    +0.000 N 
ATOM      3  C   UNL     1      20.081   5.326  49.283  0.00  0.00    +0.000 C 
ATOM      4  C   UNL     1      19.764   6.695  49.968  0.00  0.00    +0.000 C 
ATOM      5  C   UNL     1      19.311   4.028  49.765  0.00  0.00    +0.000 C 
ATOM      6  C   UNL     1      19.659   5.712  47.940  0.00  0.00    +0.000 C 
ATOM      7  C   UNL     1      19.004   6.702  51.297  0.00  0.00    +0.000 C 
ATOM      8  C   UNL     1      21.543   4.970  49.267  0.00  0.00    +0.000 C 
ATOM      9  C   UNL     1      19.493   7.082  47.664  0.00  0.00    +0.000 C 
ATOM     10  C   UNL     1      20.092   2.824  49.636  0.00  0.00    +0.000 C 
ATOM     11  C   UNL     1      18.401   4.170  50.893  0.00  0.00    +0.000 C 
ATOM     12  C   UNL     1      18.456   5.364  51.394  0.00  0.00    +0.000 C 
ATOM     13  C   UNL     1      21.604   2.784  49.394  0.00  0.00    +0.000 C 
ATOM     14  C   UNL     1      20.351   8.898  49.079  0.00  0.00    +0.000 C 
ATOM     15  C   UNL     1      19.895   7.072  52.392  0.00  0.00    +0.000 C 
ATOM     16  C   UNL     1      19.965   7.757  46.498  0.00  0.00    +0.000 C 
ATOM     17  C   UNL     1      23.445   3.969  50.302  0.00  0.00    +0.000 C 
ATOM     18  C   UNL     1      21.263  10.046  48.606  0.00  0.00    +0.000 C 
ATOM     19  C   UNL     1      20.927   7.311  53.496  0.00  0.00    +0.000 C 
ATOM     20  C   UNL     1      20.557   8.585  45.859  0.00  0.00    +0.000 C 
ATOM     21  C   UNL     1      21.761  10.542  47.250  0.00  0.00    +0.000 C 
ATOM     22  C   UNL     1      24.282   4.223  51.559  0.00  0.00    +0.000 C 
ATOM     23  C   UNL     1      21.410   9.852  45.937  0.00  0.00    +0.000 C 
ATOM     24  C   UNL     1      22.198   7.187  54.332  0.00  0.00    +0.000 C 
ATOM     25  C   UNL     1      24.709   4.820  52.897  0.00  0.00    +0.000 C 
ATOM     26  C   UNL     1      24.381   5.759  54.046  0.00  0.00    +0.000 C 
ATOM     27  C   UNL     1      23.276   6.696  54.504  0.00  0.00    +0.000 C 
ENDROOT
BRANCH  11  30
ATOM     28  N   UNL     1      16.403   2.815  51.118  0.00  0.00    +0.000 NA
ATOM     29  N   UNL     1      19.437   2.455  53.205  0.00  0.00    +0.000 N 
ATOM     30  C   UNL     1      17.654   3.101  51.541  0.00  0.00    +0.000 A 
ATOM     31  C   UNL     1      18.204   2.379  52.597  0.00  0.00    +0.000 A 
ATOM     32  C   UNL     1      17.495   1.362  53.238  0.00  0.00    +0.000 A 
ATOM     33  C   UNL     1      15.722   1.829  51.743  0.00  0.00    +0.000 A 
ATOM     34  C   UNL     1      16.194   1.066  52.803  0.00  0.00    +0.000 A 
ATOM     35  C   UNL     1      18.337   0.830  54.262  0.00  0.00    +0.000 A 
ATOM     36  C   UNL     1      19.541   1.530  54.217  0.00  0.00    +0.000 A 
ATOM     37  C   UNL     1      18.183  -0.188  55.221  0.00  0.00    +0.000 A 
ATOM     38  C   UNL     1      20.607   1.268  55.082  0.00  0.00    +0.000 A 
ATOM     39  C   UNL     1      19.237  -0.465  56.096  0.00  0.00    +0.000 A 
ATOM     40  C   UNL     1      20.426   0.252  56.023  0.00  0.00    +0.000 A 
ATOM     41  H   UNL     1      20.173   3.095  52.939  0.00  0.00    +0.000 HD
ENDBRANCH  11  30
BRANCH   7  42
ATOM     42  O   UNL     1      17.917   7.614  51.253  0.00  0.00    +0.000 OA
ATOM     43  H   UNL     1      18.177   8.312  50.627  0.00  0.00    +0.000 HD
ENDBRANCH   7  42
TORSDOF 2
ENDMDL
MODEL 5
REMARK VINA RESULT:      -5.5     17.114     21.586
REMARK  Name = 6509753_ManzamineA.pdbqt.pdb
REMARK  2 active torsions:
REMARK  status: ('A' for Active; 'I' for Inactive)
REMARK    1  A    between atoms: C_7  and  O_42
REMARK    2  A    between atoms: C_11  and  C_30
REMARK                            x       y       z     vdW  Elec       q    Type
REMARK                         _______ _______ _______ _____ _____    ______ ____
ROOT
ATOM      1  N   UNL     1       4.794  11.361  71.286  0.00  0.00    +0.000 N 
ATOM      2  N   UNL     1       0.411  11.928  73.592  0.00  0.00    +0.000 N 
ATOM      3  C   UNL     1       3.065  10.940  73.087  0.00  0.00    +0.000 C 
ATOM      4  C   UNL     1       3.709  10.457  71.747  0.00  0.00    +0.000 C 
ATOM      5  C   UNL     1       2.950   9.923  74.297  0.00  0.00    +0.000 C 
ATOM      6  C   UNL     1       4.047  11.981  73.376  0.00  0.00    +0.000 C 
ATOM      7  C   UNL     1       3.883   8.955  71.507  0.00  0.00    +0.000 C 
ATOM      8  C   UNL     1       1.705  11.564  72.926  0.00  0.00    +0.000 C 
ATOM      9  C   UNL     1       4.896  12.400  72.335  0.00  0.00    +0.000 C 
ATOM     10  C   UNL     1       1.807  10.171  75.139  0.00  0.00    +0.000 C 
ATOM     11  C   UNL     1       3.376   8.551  74.059  0.00  0.00    +0.000 C 
ATOM     12  C   UNL     1       3.699   8.366  72.818  0.00  0.00    +0.000 C 
ATOM     13  C   UNL     1       0.625  11.072  74.769  0.00  0.00    +0.000 C 
ATOM     14  C   UNL     1       4.523  11.912  69.956  0.00  0.00    +0.000 C 
ATOM     15  C   UNL     1       2.941   8.487  70.495  0.00  0.00    +0.000 C 
ATOM     16  C   UNL     1       5.211  13.755  72.015  0.00  0.00    +0.000 C 
ATOM     17  C   UNL     1      -0.669  11.359  72.804  0.00  0.00    +0.000 C 
ATOM     18  C   UNL     1       4.451  12.958  68.828  0.00  0.00    +0.000 C 
ATOM     19  C   UNL     1       1.819   8.053  69.549  0.00  0.00    +0.000 C 
ATOM     20  C   UNL     1       5.316  14.738  71.332  0.00  0.00    +0.000 C 
ATOM     21  C   UNL     1       4.729  14.457  68.725  0.00  0.00    +0.000 C 
ATOM     22  C   UNL     1      -1.675  10.705  71.852  0.00  0.00    +0.000 C 
ATOM     23  C   UNL     1       5.157  15.303  69.919  0.00  0.00    +0.000 C 
ATOM     24  C   UNL     1       0.429   7.894  68.939  0.00  0.00    +0.000 C 
ATOM     25  C   UNL     1      -2.216   9.856  70.706  0.00  0.00    +0.000 C 
ATOM     26  C   UNL     1      -1.916   8.885  69.576  0.00  0.00    +0.000 C 
ATOM     27  C   UNL     1      -0.740   8.152  68.953  0.00  0.00    +0.000 C 
ENDROOT
BRANCH  11  30
ATOM     28  N   UNL     1       2.148   6.722  75.074  0.00  0.00    +0.000 NA
ATOM     29  N   UNL     1       5.612   7.677  75.956  0.00  0.00    +0.000 N 
ATOM     30  C   UNL     1       3.289   7.443  75.001  0.00  0.00    +0.000 A 
ATOM     31  C   UNL     1       4.357   7.125  75.836  0.00  0.00    +0.000 A 
ATOM     32  C   UNL     1       4.283   6.077  76.755  0.00  0.00    +0.000 A 
ATOM     33  C   UNL     1       2.083   5.709  75.965  0.00  0.00    +0.000 A 
ATOM     34  C   UNL     1       3.097   5.329  76.834  0.00  0.00    +0.000 A 
ATOM     35  C   UNL     1       5.534   6.019  77.442  0.00  0.00    +0.000 A 
ATOM     36  C   UNL     1       6.342   7.028  76.923  0.00  0.00    +0.000 A 
ATOM     37  C   UNL     1       6.051   5.194  78.459  0.00  0.00    +0.000 A 
ATOM     38  C   UNL     1       7.648   7.261  77.365  0.00  0.00    +0.000 A 
ATOM     39  C   UNL     1       7.354   5.411  78.914  0.00  0.00    +0.000 A 
ATOM     40  C   UNL     1       8.134   6.427  78.374  0.00  0.00    +0.000 A 
ATOM     41  H   UNL     1       5.958   8.449  75.403  0.00  0.00    +0.000 HD
ENDBRANCH  11  30
BRANCH   7  42
ATOM     42  O   UNL     1       5.205   8.661  71.081  0.00  0.00    +0.000 OA
ATOM     43  H   UNL     1       5.286   7.692  71.106  0.00  0.00    +0.000 HD
ENDBRANCH   7  42
TORSDOF 2
ENDMDL
MODEL 6
REMARK VINA RESULT:      -5.4     11.117     16.284
REMARK  Name = 6509753_ManzamineA.pdbqt.pdb
REMARK  2 active torsions:
REMARK  status: ('A' for Active; 'I' for Inactive)
REMARK    1  A    between atoms: C_7  and  O_42
REMARK    2  A    between atoms: C_11  and  C_30
REMARK                            x       y       z     vdW  Elec       q    Type
REMARK                         _______ _______ _______ _____ _____    ______ ____
ROOT
ATOM      1  N   UNL     1       5.486  11.452  62.159  0.00  0.00    +0.000 N 
ATOM      2  N   UNL     1       2.182   9.473  58.995  0.00  0.00    +0.000 N 
ATOM      3  C   UNL     1       3.596   9.920  61.459  0.00  0.00    +0.000 C 
ATOM      4  C   UNL     1       5.130  10.082  61.711  0.00  0.00    +0.000 C 
ATOM      5  C   UNL     1       2.823   8.724  62.155  0.00  0.00    +0.000 C 
ATOM      6  C   UNL     1       3.199  11.201  62.037  0.00  0.00    +0.000 C 
ATOM      7  C   UNL     1       5.910   8.911  62.314  0.00  0.00    +0.000 C 
ATOM      8  C   UNL     1       3.212   9.884  60.005  0.00  0.00    +0.000 C 
ATOM      9  C   UNL     1       4.195  12.172  62.248  0.00  0.00    +0.000 C 
ATOM     10  C   UNL     1       1.708   8.242  61.380  0.00  0.00    +0.000 C 
ATOM     11  C   UNL     1       3.614   7.778  62.931  0.00  0.00    +0.000 C 
ATOM     12  C   UNL     1       4.881   8.033  62.833  0.00  0.00    +0.000 C 
ATOM     13  C   UNL     1       1.459   8.573  59.905  0.00  0.00    +0.000 C 
ATOM     14  C   UNL     1       6.441  12.097  61.254  0.00  0.00    +0.000 C 
ATOM     15  C   UNL     1       6.775   8.301  61.309  0.00  0.00    +0.000 C 
ATOM     16  C   UNL     1       4.088  13.556  61.921  0.00  0.00    +0.000 C 
ATOM     17  C   UNL     1       2.847   8.666  57.986  0.00  0.00    +0.000 C 
ATOM     18  C   UNL     1       7.086  13.216  60.415  0.00  0.00    +0.000 C 
ATOM     19  C   UNL     1       7.528   7.627  60.160  0.00  0.00    +0.000 C 
ATOM     20  C   UNL     1       4.392  14.603  61.415  0.00  0.00    +0.000 C 
ATOM     21  C   UNL     1       6.723  14.662  60.081  0.00  0.00    +0.000 C 
ATOM     22  C   UNL     1       3.707   7.854  57.014  0.00  0.00    +0.000 C 
ATOM     23  C   UNL     1       5.443  15.328  60.572  0.00  0.00    +0.000 C 
ATOM     24  C   UNL     1       7.817   6.996  58.800  0.00  0.00    +0.000 C 
ATOM     25  C   UNL     1       4.919   7.123  56.443  0.00  0.00    +0.000 C 
ATOM     26  C   UNL     1       6.353   6.662  56.648  0.00  0.00    +0.000 C 
ATOM     27  C   UNL     1       7.445   6.691  57.704  0.00  0.00    +0.000 C 
ENDROOT
BRANCH  11  30
ATOM     28  N   UNL     1       3.439   5.364  63.078  0.00  0.00    +0.000 NA
ATOM     29  N   UNL     1       1.869   7.737  65.443  0.00  0.00    +0.000 N 
ATOM     30  C   UNL     1       3.123   6.575  63.588  0.00  0.00    +0.000 A 
ATOM     31  C   UNL     1       2.321   6.654  64.724  0.00  0.00    +0.000 A 
ATOM     32  C   UNL     1       1.829   5.511  65.356  0.00  0.00    +0.000 A 
ATOM     33  C   UNL     1       2.959   4.261  63.695  0.00  0.00    +0.000 A 
ATOM     34  C   UNL     1       2.154   4.252  64.825  0.00  0.00    +0.000 A 
ATOM     35  C   UNL     1       1.055   5.939  66.477  0.00  0.00    +0.000 A 
ATOM     36  C   UNL     1       1.098   7.331  66.506  0.00  0.00    +0.000 A 
ATOM     37  C   UNL     1       0.324   5.264  67.473  0.00  0.00    +0.000 A 
ATOM     38  C   UNL     1       0.447   8.093  67.482  0.00  0.00    +0.000 A 
ATOM     39  C   UNL     1      -0.334   6.008  68.456  0.00  0.00    +0.000 A 
ATOM     40  C   UNL     1      -0.270   7.397  68.456  0.00  0.00    +0.000 A 
ATOM     41  H   UNL     1       2.080   8.702  65.228  0.00  0.00    +0.000 HD
ENDBRANCH  11  30
BRANCH   7  42
ATOM     42  O   UNL     1       6.705   9.342  63.409  0.00  0.00    +0.000 OA
ATOM     43  H   UNL     1       6.366  10.219  63.658  0.00  0.00    +0.000 HD
ENDBRANCH   7  42
TORSDOF 2
ENDMDL
MODEL 7
REMARK VINA RESULT:      -5.4     11.149     15.694
REMARK  Name = 6509753_ManzamineA.pdbqt.pdb
REMARK  2 active torsions:
REMARK  status: ('A' for Active; 'I' for Inactive)
REMARK    1  A    between atoms: C_7  and  O_42
REMARK    2  A    between atoms: C_11  and  C_30
REMARK                            x       y       z     vdW  Elec       q    Type
REMARK                         _______ _______ _______ _____ _____    ______ ____
ROOT
ATOM      1  N   UNL     1      18.373   4.871  67.620  0.00  0.00    +0.000 N 
ATOM      2  N   UNL     1      18.938   6.225  72.384  0.00  0.00    +0.000 N 
ATOM      3  C   UNL     1      18.109   4.645  70.128  0.00  0.00    +0.000 C 
ATOM      4  C   UNL     1      17.469   5.100  68.776  0.00  0.00    +0.000 C 
ATOM      5  C   UNL     1      17.297   3.665  71.073  0.00  0.00    +0.000 C 
ATOM      6  C   UNL     1      19.262   3.967  69.543  0.00  0.00    +0.000 C 
ATOM      7  C   UNL     1      15.968   4.890  68.558  0.00  0.00    +0.000 C 
ATOM      8  C   UNL     1      18.581   5.779  70.997  0.00  0.00    +0.000 C 
ATOM      9  C   UNL     1      19.575   4.229  68.197  0.00  0.00    +0.000 C 
ATOM     10  C   UNL     1      17.583   3.862  72.471  0.00  0.00    +0.000 C 
ATOM     11  C   UNL     1      15.946   3.308  70.664  0.00  0.00    +0.000 C 
ATOM     12  C   UNL     1      15.588   3.959  69.602  0.00  0.00    +0.000 C 
ATOM     13  C   UNL     1      18.308   5.078  73.055  0.00  0.00    +0.000 C 
ATOM     14  C   UNL     1      18.673   6.112  66.902  0.00  0.00    +0.000 C 
ATOM     15  C   UNL     1      15.262   6.167  68.600  0.00  0.00    +0.000 C 
ATOM     16  C   UNL     1      20.881   4.492  67.684  0.00  0.00    +0.000 C 
ATOM     17  C   UNL     1      18.159   7.414  72.683  0.00  0.00    +0.000 C 
ATOM     18  C   UNL     1      19.511   7.163  66.149  0.00  0.00    +0.000 C 
ATOM     19  C   UNL     1      14.586   7.522  68.817  0.00  0.00    +0.000 C 
ATOM     20  C   UNL     1      21.743   5.092  67.101  0.00  0.00    +0.000 C 
ATOM     21  C   UNL     1      20.990   7.319  65.802  0.00  0.00    +0.000 C 
ATOM     22  C   UNL     1      17.275   8.657  72.821  0.00  0.00    +0.000 C 
ATOM     23  C   UNL     1      22.053   6.321  66.245  0.00  0.00    +0.000 C 
ATOM     24  C   UNL     1      14.212   8.862  69.446  0.00  0.00    +0.000 C 
ATOM     25  C   UNL     1      16.206   9.696  72.494  0.00  0.00    +0.000 C 
ATOM     26  C   UNL     1      15.092  10.141  71.561  0.00  0.00    +0.000 C 
ATOM     27  C   UNL     1      14.369   9.677  70.308  0.00  0.00    +0.000 C 
ENDROOT
BRANCH  11  30
ATOM     28  N   UNL     1      14.864   1.181  71.098  0.00  0.00    +0.000 NA
ATOM     29  N   UNL     1      14.194   4.305  72.965  0.00  0.00    +0.000 N 
ATOM     30  C   UNL     1      15.005   2.488  71.413  0.00  0.00    +0.000 A 
ATOM     31  C   UNL     1      14.238   3.033  72.440  0.00  0.00    +0.000 A 
ATOM     32  C   UNL     1      13.321   2.263  73.158  0.00  0.00    +0.000 A 
ATOM     33  C   UNL     1      13.974   0.442  71.796  0.00  0.00    +0.000 A 
ATOM     34  C   UNL     1      13.171   0.907  72.829  0.00  0.00    +0.000 A 
ATOM     35  C   UNL     1      12.711   3.116  74.129  0.00  0.00    +0.000 A 
ATOM     36  C   UNL     1      13.276   4.381  73.985  0.00  0.00    +0.000 A 
ATOM     37  C   UNL     1      11.732   2.921  75.120  0.00  0.00    +0.000 A 
ATOM     38  C   UNL     1      12.915   5.472  74.782  0.00  0.00    +0.000 A 
ATOM     39  C   UNL     1      11.357   3.999  75.927  0.00  0.00    +0.000 A 
ATOM     40  C   UNL     1      11.941   5.249  75.758  0.00  0.00    +0.000 A 
ATOM     41  H   UNL     1      14.765   5.078  72.652  0.00  0.00    +0.000 HD
ENDBRANCH  11  30
BRANCH   7  42
ATOM     42  O   UNL     1      15.720   4.264  67.308  0.00  0.00    +0.000 OA
ATOM     43  H   UNL     1      16.371   3.546  67.233  0.00  0.00    +0.000 HD
ENDBRANCH   7  42
TORSDOF 2
ENDMDL
MODEL 8
REMARK VINA RESULT:      -5.4      7.653     12.769
REMARK  Name = 6509753_ManzamineA.pdbqt.pdb
REMARK  2 active torsions:
REMARK  status: ('A' for Active; 'I' for Inactive)
REMARK    1  A    between atoms: C_7  and  O_42
REMARK    2  A    between atoms: C_11  and  C_30
REMARK                            x       y       z     vdW  Elec       q    Type
REMARK                         _______ _______ _______ _____ _____    ______ ____
ROOT
ATOM      1  N   UNL     1       5.879   8.570  57.789  0.00  0.00    +0.000 N 
ATOM      2  N   UNL     1       2.768  11.486  60.370  0.00  0.00    +0.000 N 
ATOM      3  C   UNL     1       5.252  10.485  59.323  0.00  0.00    +0.000 C 
ATOM      4  C   UNL     1       5.760   9.011  59.203  0.00  0.00    +0.000 C 
ATOM      5  C   UNL     1       6.074  11.513  60.205  0.00  0.00    +0.000 C 
ATOM      6  C   UNL     1       5.363  10.813  57.904  0.00  0.00    +0.000 C 
ATOM      7  C   UNL     1       6.807   8.504  60.198  0.00  0.00    +0.000 C 
ATOM      8  C   UNL     1       3.816  10.607  59.755  0.00  0.00    +0.000 C 
ATOM      9  C   UNL     1       5.501   9.755  56.986  0.00  0.00    +0.000 C 
ATOM     10  C   UNL     1       5.248  12.525  60.813  0.00  0.00    +0.000 C 
ATOM     11  C   UNL     1       7.224  10.997  60.935  0.00  0.00    +0.000 C 
ATOM     12  C   UNL     1       7.323   9.711  60.811  0.00  0.00    +0.000 C 
ATOM     13  C   UNL     1       3.721  12.466  60.912  0.00  0.00    +0.000 C 
ATOM     14  C   UNL     1       5.049   7.397  57.506  0.00  0.00    +0.000 C 
ATOM     15  C   UNL     1       6.206   7.559  61.134  0.00  0.00    +0.000 C 
ATOM     16  C   UNL     1       4.793   9.627  55.754  0.00  0.00    +0.000 C 
ATOM     17  C   UNL     1       2.177  10.760  61.482  0.00  0.00    +0.000 C 
ATOM     18  C   UNL     1       4.088   6.477  56.730  0.00  0.00    +0.000 C 
ATOM     19  C   UNL     1       5.465   6.706  62.166  0.00  0.00    +0.000 C 
ATOM     20  C   UNL     1       4.094   9.109  54.925  0.00  0.00    +0.000 C 
ATOM     21  C   UNL     1       3.304   6.590  55.424  0.00  0.00    +0.000 C 
ATOM     22  C   UNL     1       1.662   9.852  62.602  0.00  0.00    +0.000 C 
ATOM     23  C   UNL     1       3.320   7.843  54.555  0.00  0.00    +0.000 C 
ATOM     24  C   UNL     1       4.419   6.264  63.186  0.00  0.00    +0.000 C 
ATOM     25  C   UNL     1       1.574   8.660  63.551  0.00  0.00    +0.000 C 
ATOM     26  C   UNL     1       2.187   7.355  64.031  0.00  0.00    +0.000 C 
ATOM     27  C   UNL     1       3.396   6.472  63.771  0.00  0.00    +0.000 C 
ENDROOT
BRANCH  11  30
ATOM     28  N   UNL     1       7.570  12.131  63.052  0.00  0.00    +0.000 NA
ATOM     29  N   UNL     1      10.124  11.806  60.394  0.00  0.00    +0.000 N 
ATOM     30  C   UNL     1       8.069  11.745  61.856  0.00  0.00    +0.000 A 
ATOM     31  C   UNL     1       9.378  12.080  61.518  0.00  0.00    +0.000 A 
ATOM     32  C   UNL     1      10.195  12.809  62.383  0.00  0.00    +0.000 A 
ATOM     33  C   UNL     1       8.367  12.836  63.884  0.00  0.00    +0.000 A 
ATOM     34  C   UNL     1       9.677  13.213  63.623  0.00  0.00    +0.000 A 
ATOM     35  C   UNL     1      11.460  12.977  61.740  0.00  0.00    +0.000 A 
ATOM     36  C   UNL     1      11.386  12.341  60.503  0.00  0.00    +0.000 A 
ATOM     37  C   UNL     1      12.663  13.610  62.104  0.00  0.00    +0.000 A 
ATOM     38  C   UNL     1      12.454  12.302  59.602  0.00  0.00    +0.000 A 
ATOM     39  C   UNL     1      13.742  13.583  61.217  0.00  0.00    +0.000 A 
ATOM     40  C   UNL     1      13.635  12.939  59.989  0.00  0.00    +0.000 A 
ATOM     41  H   UNL     1       9.796  11.276  59.598  0.00  0.00    +0.000 HD
ENDBRANCH  11  30
BRANCH   7  42
ATOM     42  O   UNL     1       7.881   7.867  59.521  0.00  0.00    +0.000 OA
ATOM     43  H   UNL     1       7.837   8.173  58.599  0.00  0.00    +0.000 HD
ENDBRANCH   7  42
TORSDOF 2
ENDMDL
MODEL 9
REMARK VINA RESULT:      -5.3     10.791     15.320
REMARK  Name = 6509753_ManzamineA.pdbqt.pdb
REMARK  2 active torsions:
REMARK  status: ('A' for Active; 'I' for Inactive)
REMARK    1  A    between atoms: C_7  and  O_42
REMARK    2  A    between atoms: C_11  and  C_30
REMARK                            x       y       z     vdW  Elec       q    Type
REMARK                         _______ _______ _______ _____ _____    ______ ____
ROOT
ATOM      1  N   UNL     1      17.591   7.469  68.043  0.00  0.00    +0.000 N 
ATOM      2  N   UNL     1      18.805   7.292  72.874  0.00  0.00    +0.000 N 
ATOM      3  C   UNL     1      17.758   6.420  70.342  0.00  0.00    +0.000 C 
ATOM      4  C   UNL     1      16.871   7.193  69.312  0.00  0.00    +0.000 C 
ATOM      5  C   UNL     1      17.197   5.091  70.996  0.00  0.00    +0.000 C 
ATOM      6  C   UNL     1      18.854   6.124  69.424  0.00  0.00    +0.000 C 
ATOM      7  C   UNL     1      15.377   6.865  69.227  0.00  0.00    +0.000 C 
ATOM      8  C   UNL     1      18.267   7.270  71.475  0.00  0.00    +0.000 C 
ATOM      9  C   UNL     1      18.921   6.843  68.216  0.00  0.00    +0.000 C 
ATOM     10  C   UNL     1      17.687   4.866  72.333  0.00  0.00    +0.000 C 
ATOM     11  C   UNL     1      15.832   4.706  70.664  0.00  0.00    +0.000 C 
ATOM     12  C   UNL     1      15.252   5.608  69.936  0.00  0.00    +0.000 C 
ATOM     13  C   UNL     1      18.392   5.918  73.195  0.00  0.00    +0.000 C 
ATOM     14  C   UNL     1      17.665   8.902  67.752  0.00  0.00    +0.000 C 
ATOM     15  C   UNL     1      14.583   7.955  69.783  0.00  0.00    +0.000 C 
ATOM     16  C   UNL     1      20.099   7.427  67.662  0.00  0.00    +0.000 C 
ATOM     17  C   UNL     1      17.987   8.209  73.650  0.00  0.00    +0.000 C 
ATOM     18  C   UNL     1      18.277  10.241  67.297  0.00  0.00    +0.000 C 
ATOM     19  C   UNL     1      13.838   9.067  70.525  0.00  0.00    +0.000 C 
ATOM     20  C   UNL     1      20.802   8.292  67.211  0.00  0.00    +0.000 C 
ATOM     21  C   UNL     1      19.662  10.696  66.840  0.00  0.00    +0.000 C 
ATOM     22  C   UNL     1      17.035   9.212  74.307  0.00  0.00    +0.000 C 
ATOM     23  C   UNL     1      20.864   9.760  66.785  0.00  0.00    +0.000 C 
ATOM     24  C   UNL     1      13.458  10.073  71.608  0.00  0.00    +0.000 C 
ATOM     25  C   UNL     1      15.843  10.148  74.485  0.00  0.00    +0.000 C 
ATOM     26  C   UNL     1      14.558  10.715  73.903  0.00  0.00    +0.000 C 
ATOM     27  C   UNL     1      13.684  10.584  72.668  0.00  0.00    +0.000 C 
ENDROOT
BRANCH  11  30
ATOM     28  N   UNL     1      15.225   2.358  70.624  0.00  0.00    +0.000 NA
ATOM     29  N   UNL     1      13.962   4.818  73.082  0.00  0.00    +0.000 N 
ATOM     30  C   UNL     1      15.098   3.571  71.206  0.00  0.00    +0.000 A 
ATOM     31  C   UNL     1      14.257   3.720  72.307  0.00  0.00    +0.000 A 
ATOM     32  C   UNL     1      13.535   2.645  72.828  0.00  0.00    +0.000 A 
ATOM     33  C   UNL     1      14.523   1.322  71.134  0.00  0.00    +0.000 A 
ATOM     34  C   UNL     1      13.663   1.386  72.222  0.00  0.00    +0.000 A 
ATOM     35  C   UNL     1      12.784   3.133  73.942  0.00  0.00    +0.000 A 
ATOM     36  C   UNL     1      13.070   4.490  74.075  0.00  0.00    +0.000 A 
ATOM     37  C   UNL     1      11.888   2.538  74.849  0.00  0.00    +0.000 A 
ATOM     38  C   UNL     1      12.508   5.292  75.073  0.00  0.00    +0.000 A 
ATOM     39  C   UNL     1      11.315   3.323  75.853  0.00  0.00    +0.000 A 
ATOM     40  C   UNL     1      11.623   4.675  75.959  0.00  0.00    +0.000 A 
ATOM     41  H   UNL     1      14.353   5.741  72.949  0.00  0.00    +0.000 HD
ENDBRANCH  11  30
BRANCH   7  42
ATOM     42  O   UNL     1      14.984   6.644  67.880  0.00  0.00    +0.000 OA
ATOM     43  H   UNL     1      15.803   6.463  67.387  0.00  0.00    +0.000 HD
ENDBRANCH   7  42
TORSDOF 2
ENDMDL
