MODEL 1
REMARK VINA RESULT:      -2.6      0.000      0.000
REMARK  Name = 67499_Pyrazolo.pdbqt.pdb
REMARK  0 active torsions:
REMARK  status: ('A' for Active; 'I' for Inactive)
REMARK                            x       y       z     vdW  Elec       q    Type
REMARK                         _______ _______ _______ _____ _____    ______ ____
ROOT
ATOM      1  N   UNL     1       6.829   8.891  62.112  0.00  0.00    +0.000 N 
ATOM      2  N   UNL     1       5.826   8.564  62.955  0.00  0.00    +0.000 NA
ATOM      3  N   UNL     1       7.790   8.166  60.010  0.00  0.00    +0.000 NA
ATOM      4  N   UNL     1       6.614   6.256  59.096  0.00  0.00    +0.000 NA
ATOM      5  C   UNL     1       5.882   7.168  61.147  0.00  0.00    +0.000 A 
ATOM      6  C   UNL     1       6.904   8.085  61.013  0.00  0.00    +0.000 A 
ATOM      7  C   UNL     1       5.253   7.510  62.357  0.00  0.00    +0.000 A 
ATOM      8  C   UNL     1       5.748   6.224  60.138  0.00  0.00    +0.000 A 
ATOM      9  C   UNL     1       7.571   7.207  59.089  0.00  0.00    +0.000 A 
ATOM     10  H   UNL     1       7.430   9.675  62.339  0.00  0.00    +0.000 HD
ENDROOT
TORSDOF 0
ENDMDL
MODEL 2
REMARK VINA RESULT:      -2.6      3.832      5.257
REMARK  Name = 67499_Pyrazolo.pdbqt.pdb
REMARK  0 active torsions:
REMARK  status: ('A' for Active; 'I' for Inactive)
REMARK                            x       y       z     vdW  Elec       q    Type
REMARK                         _______ _______ _______ _____ _____    ______ ____
ROOT
ATOM      1  N   UNL     1       9.246   3.367  58.198  0.00  0.00    +0.000 N 
ATOM      2  N   UNL     1      10.402   4.062  58.274  0.00  0.00    +0.000 NA
ATOM      3  N   UNL     1       6.865   3.756  57.981  0.00  0.00    +0.000 NA
ATOM      4  N   UNL     1       6.347   6.119  57.862  0.00  0.00    +0.000 NA
ATOM      5  C   UNL     1       8.604   5.457  58.076  0.00  0.00    +0.000 A 
ATOM      6  C   UNL     1       8.140   4.158  58.078  0.00  0.00    +0.000 A 
ATOM      7  C   UNL     1       9.999   5.338  58.199  0.00  0.00    +0.000 A 
ATOM      8  C   UNL     1       7.655   6.463  57.963  0.00  0.00    +0.000 A 
ATOM      9  C   UNL     1       6.029   4.807  57.876  0.00  0.00    +0.000 A 
ATOM     10  H   UNL     1       9.274   2.355  58.232  0.00  0.00    +0.000 HD
ENDROOT
TORSDOF 0
ENDMDL
MODEL 3
REMARK VINA RESULT:      -2.4      4.338      5.458
REMARK  Name = 67499_Pyrazolo.pdbqt.pdb
REMARK  0 active torsions:
REMARK  status: ('A' for Active; 'I' for Inactive)
REMARK                            x       y       z     vdW  Elec       q    Type
REMARK                         _______ _______ _______ _____ _____    ______ ____
ROOT
ATOM      1  N   UNL     1       7.035   5.229  57.850  0.00  0.00    +0.000 N 
ATOM      2  N   UNL     1       7.804   6.330  57.702  0.00  0.00    +0.000 NA
ATOM      3  N   UNL     1       7.259   2.869  58.343  0.00  0.00    +0.000 NA
ATOM      4  N   UNL     1       9.572   2.238  58.688  0.00  0.00    +0.000 NA
ATOM      5  C   UNL     1       9.068   4.490  58.190  0.00  0.00    +0.000 A 
ATOM      6  C   UNL     1       7.746   4.102  58.142  0.00  0.00    +0.000 A 
ATOM      7  C   UNL     1       9.044   5.869  57.912  0.00  0.00    +0.000 A 
ATOM      8  C   UNL     1      10.004   3.506  58.475  0.00  0.00    +0.000 A 
ATOM      9  C   UNL     1       8.247   1.993  58.612  0.00  0.00    +0.000 A 
ATOM     10  H   UNL     1       6.031   5.309  57.739  0.00  0.00    +0.000 HD
ENDROOT
TORSDOF 0
ENDMDL
MODEL 4
REMARK VINA RESULT:      -2.4     11.935     13.040
REMARK  Name = 67499_Pyrazolo.pdbqt.pdb
REMARK  0 active torsions:
REMARK  status: ('A' for Active; 'I' for Inactive)
REMARK                            x       y       z     vdW  Elec       q    Type
REMARK                         _______ _______ _______ _____ _____    ______ ____
ROOT
ATOM      1  N   UNL     1      15.573  10.509  55.042  0.00  0.00    +0.000 N 
ATOM      2  N   UNL     1      15.037  11.409  54.190  0.00  0.00    +0.000 NA
ATOM      3  N   UNL     1      17.499   9.051  55.219  0.00  0.00    +0.000 NA
ATOM      4  N   UNL     1      18.943   9.229  53.283  0.00  0.00    +0.000 NA
ATOM      5  C   UNL     1      16.987  10.547  53.369  0.00  0.00    +0.000 A 
ATOM      6  C   UNL     1      16.742   9.965  54.595  0.00  0.00    +0.000 A 
ATOM      7  C   UNL     1      15.907  11.426  53.171  0.00  0.00    +0.000 A 
ATOM      8  C   UNL     1      18.137  10.151  52.702  0.00  0.00    +0.000 A 
ATOM      9  C   UNL     1      18.586   8.737  54.489  0.00  0.00    +0.000 A 
ATOM     10  H   UNL     1      15.097  10.307  55.913  0.00  0.00    +0.000 HD
ENDROOT
TORSDOF 0
ENDMDL
MODEL 5
REMARK VINA RESULT:      -2.4     13.741     14.496
REMARK  Name = 67499_Pyrazolo.pdbqt.pdb
REMARK  0 active torsions:
REMARK  status: ('A' for Active; 'I' for Inactive)
REMARK                            x       y       z     vdW  Elec       q    Type
REMARK                         _______ _______ _______ _____ _____    ______ ____
ROOT
ATOM      1  N   UNL     1      14.952   1.087  53.047  0.00  0.00    +0.000 N 
ATOM      2  N   UNL     1      15.026  -0.047  53.776  0.00  0.00    +0.000 NA
ATOM      3  N   UNL     1      16.404   2.796  52.131  0.00  0.00    +0.000 NA
ATOM      4  N   UNL     1      18.729   2.381  52.667  0.00  0.00    +0.000 NA
ATOM      5  C   UNL     1      17.094   0.863  53.440  0.00  0.00    +0.000 A 
ATOM      6  C   UNL     1      16.165   1.670  52.819  0.00  0.00    +0.000 A 
ATOM      7  C   UNL     1      16.339  -0.176  54.012  0.00  0.00    +0.000 A 
ATOM      8  C   UNL     1      18.424   1.250  53.350  0.00  0.00    +0.000 A 
ATOM      9  C   UNL     1      17.721   3.079  52.105  0.00  0.00    +0.000 A 
ATOM     10  H   UNL     1      14.046   1.415  52.732  0.00  0.00    +0.000 HD
ENDROOT
TORSDOF 0
ENDMDL
MODEL 6
REMARK VINA RESULT:      -2.3     11.674     12.780
REMARK  Name = 67499_Pyrazolo.pdbqt.pdb
REMARK  0 active torsions:
REMARK  status: ('A' for Active; 'I' for Inactive)
REMARK                            x       y       z     vdW  Elec       q    Type
REMARK                         _______ _______ _______ _____ _____    ______ ____
ROOT
ATOM      1  N   UNL     1      13.337  -0.781  58.666  0.00  0.00    +0.000 N 
ATOM      2  N   UNL     1      13.890  -0.378  59.830  0.00  0.00    +0.000 NA
ATOM      3  N   UNL     1      13.976  -1.846  56.586  0.00  0.00    +0.000 NA
ATOM      4  N   UNL     1      16.340  -2.370  56.534  0.00  0.00    +0.000 NA
ATOM      5  C   UNL     1      15.448  -1.323  58.453  0.00  0.00    +0.000 A 
ATOM      6  C   UNL     1      14.230  -1.354  57.807  0.00  0.00    +0.000 A 
ATOM      7  C   UNL     1      15.180  -0.713  59.691  0.00  0.00    +0.000 A 
ATOM      8  C   UNL     1      16.535  -1.857  57.774  0.00  0.00    +0.000 A 
ATOM      9  C   UNL     1      15.094  -2.337  56.017  0.00  0.00    +0.000 A 
ATOM     10  H   UNL     1      12.346  -0.639  58.513  0.00  0.00    +0.000 HD
ENDROOT
TORSDOF 0
ENDMDL
MODEL 7
REMARK VINA RESULT:      -2.3     11.122     12.659
REMARK  Name = 67499_Pyrazolo.pdbqt.pdb
REMARK  0 active torsions:
REMARK  status: ('A' for Active; 'I' for Inactive)
REMARK                            x       y       z     vdW  Elec       q    Type
REMARK                         _______ _______ _______ _____ _____    ______ ____
ROOT
ATOM      1  N   UNL     1      11.623   5.875  51.290  0.00  0.00    +0.000 N 
ATOM      2  N   UNL     1      10.319   5.545  51.410  0.00  0.00    +0.000 NA
ATOM      3  N   UNL     1      13.542   5.354  49.908  0.00  0.00    +0.000 NA
ATOM      4  N   UNL     1      12.999   3.738  48.188  0.00  0.00    +0.000 NA
ATOM      5  C   UNL     1      11.304   4.425  49.680  0.00  0.00    +0.000 A 
ATOM      6  C   UNL     1      12.257   5.230  50.268  0.00  0.00    +0.000 A 
ATOM      7  C   UNL     1      10.133   4.659  50.422  0.00  0.00    +0.000 A 
ATOM      8  C   UNL     1      11.710   3.656  48.599  0.00  0.00    +0.000 A 
ATOM      9  C   UNL     1      13.830   4.567  48.853  0.00  0.00    +0.000 A 
ATOM     10  H   UNL     1      12.025   6.546  51.934  0.00  0.00    +0.000 HD
ENDROOT
TORSDOF 0
ENDMDL
MODEL 8
REMARK VINA RESULT:      -2.2     11.902     13.035
REMARK  Name = 67499_Pyrazolo.pdbqt.pdb
REMARK  0 active torsions:
REMARK  status: ('A' for Active; 'I' for Inactive)
REMARK                            x       y       z     vdW  Elec       q    Type
REMARK                         _______ _______ _______ _____ _____    ______ ____
ROOT
ATOM      1  N   UNL     1      14.209  -0.897  58.459  0.00  0.00    +0.000 N 
ATOM      2  N   UNL     1      13.542  -0.453  59.546  0.00  0.00    +0.000 NA
ATOM      3  N   UNL     1      16.420  -1.660  57.830  0.00  0.00    +0.000 NA
ATOM      4  N   UNL     1      17.948  -1.637  59.710  0.00  0.00    +0.000 NA
ATOM      5  C   UNL     1      15.718  -0.938  60.046  0.00  0.00    +0.000 A 
ATOM      6  C   UNL     1      15.517  -1.200  58.708  0.00  0.00    +0.000 A 
ATOM      7  C   UNL     1      14.472  -0.481  60.511  0.00  0.00    +0.000 A 
ATOM      8  C   UNL     1      16.990  -1.171  60.549  0.00  0.00    +0.000 A 
ATOM      9  C   UNL     1      17.617  -1.852  58.419  0.00  0.00    +0.000 A 
ATOM     10  H   UNL     1      13.721  -0.971  57.575  0.00  0.00    +0.000 HD
ENDROOT
TORSDOF 0
ENDMDL
MODEL 9
REMARK VINA RESULT:      -2.2      7.321      8.488
REMARK  Name = 67499_Pyrazolo.pdbqt.pdb
REMARK  0 active torsions:
REMARK  status: ('A' for Active; 'I' for Inactive)
REMARK                            x       y       z     vdW  Elec       q    Type
REMARK                         _______ _______ _______ _____ _____    ______ ____
ROOT
ATOM      1  N   UNL     1       9.944  11.440  66.421  0.00  0.00    +0.000 N 
ATOM      2  N   UNL     1      10.270  11.719  67.701  0.00  0.00    +0.000 NA
ATOM      3  N   UNL     1       9.147  12.563  64.428  0.00  0.00    +0.000 NA
ATOM      4  N   UNL     1       8.816  14.933  64.804  0.00  0.00    +0.000 NA
ATOM      5  C   UNL     1       9.592  13.595  66.588  0.00  0.00    +0.000 A 
ATOM      6  C   UNL     1       9.532  12.531  65.712  0.00  0.00    +0.000 A 
ATOM      7  C   UNL     1      10.051  13.038  67.794  0.00  0.00    +0.000 A 
ATOM      8  C   UNL     1       9.215  14.837  66.096  0.00  0.00    +0.000 A 
ATOM      9  C   UNL     1       8.804  13.811  64.054  0.00  0.00    +0.000 A 
ATOM     10  H   UNL     1      10.023  10.487  66.087  0.00  0.00    +0.000 HD
ENDROOT
TORSDOF 0
ENDMDL
