MODEL 1
REMARK VINA RESULT:      -3.3      0.000      0.000
REMARK  Name = 71369791_5FluoroDione.pdbqt.pdb
REMARK  1 active torsions:
REMARK  status: ('A' for Active; 'I' for Inactive)
REMARK    1  A    between atoms: N_4  and  C_12
REMARK                            x       y       z     vdW  Elec       q    Type
REMARK                         _______ _______ _______ _____ _____    ______ ____
ROOT
ATOM      1  F   UNL     1       8.547   6.637  57.166  0.00  0.00    +0.000 F 
ATOM      2  O   UNL     1       9.735   1.635  58.964  0.00  0.00    +0.000 OA
ATOM      3  O   UNL     1      11.209   5.726  57.505  0.00  0.00    +0.000 OA
ATOM      4  N   UNL     1       8.091   3.304  58.652  0.00  0.00    +0.000 N 
ATOM      5  N   UNL     1      10.390   3.733  58.322  0.00  0.00    +0.000 N 
ATOM      6  C   UNL     1       7.936   4.596  58.301  0.00  0.00    +0.000 C 
ATOM      7  C   UNL     1       8.858   5.586  57.943  0.00  0.00    +0.000 C 
ATOM      8  C   UNL     1       9.404   2.782  58.680  0.00  0.00    +0.000 C 
ATOM      9  C   UNL     1      10.256   5.063  57.897  0.00  0.00    +0.000 C 
ATOM     10  H   UNL     1      11.332   3.368  58.295  0.00  0.00    +0.000 HD
ENDROOT
BRANCH   4  12
ATOM     11  O   UNL     1       6.171   1.977  57.980  0.00  0.00    +0.000 OA
ATOM     12  C   UNL     1       6.980   2.570  58.958  0.00  0.00    +0.000 C 
ATOM     13  C   UNL     1       6.431   2.265  60.232  0.00  0.00    +0.000 C 
ATOM     14  C   UNL     1       5.165   1.422  60.394  0.00  0.00    +0.000 C 
ATOM     15  C   UNL     1       5.326   1.453  58.876  0.00  0.00    +0.000 C 
ENDBRANCH   4  12
TORSDOF 1
ENDMDL
MODEL 2
REMARK VINA RESULT:      -3.3     13.116     14.192
REMARK  Name = 71369791_5FluoroDione.pdbqt.pdb
REMARK  1 active torsions:
REMARK  status: ('A' for Active; 'I' for Inactive)
REMARK    1  A    between atoms: N_4  and  C_12
REMARK                            x       y       z     vdW  Elec       q    Type
REMARK                         _______ _______ _______ _____ _____    ______ ____
ROOT
ATOM      1  F   UNL     1      14.334   7.058  72.814  0.00  0.00    +0.000 F 
ATOM      2  O   UNL     1      14.257   8.354  67.525  0.00  0.00    +0.000 OA
ATOM      3  O   UNL     1      12.765   9.179  71.782  0.00  0.00    +0.000 OA
ATOM      4  N   UNL     1      15.300   7.143  69.266  0.00  0.00    +0.000 N 
ATOM      5  N   UNL     1      13.636   8.766  69.690  0.00  0.00    +0.000 N 
ATOM      6  C   UNL     1      15.308   6.996  70.606  0.00  0.00    +0.000 C 
ATOM      7  C   UNL     1      14.581   7.627  71.622  0.00  0.00    +0.000 C 
ATOM      8  C   UNL     1      14.409   8.092  68.713  0.00  0.00    +0.000 C 
ATOM      9  C   UNL     1      13.581   8.594  71.081  0.00  0.00    +0.000 C 
ATOM     10  H   UNL     1      12.964   9.419  69.311  0.00  0.00    +0.000 HD
ENDROOT
BRANCH   4  12
ATOM     11  O   UNL     1      15.695   5.296  67.740  0.00  0.00    +0.000 OA
ATOM     12  C   UNL     1      16.143   6.372  68.517  0.00  0.00    +0.000 C 
ATOM     13  C   UNL     1      17.551   6.473  68.365  0.00  0.00    +0.000 C 
ATOM     14  C   UNL     1      18.347   5.514  67.478  0.00  0.00    +0.000 C 
ATOM     15  C   UNL     1      16.922   4.994  67.299  0.00  0.00    +0.000 C 
ENDBRANCH   4  12
TORSDOF 1
ENDMDL
MODEL 3
REMARK VINA RESULT:      -3.1     17.426     18.564
REMARK  Name = 71369791_5FluoroDione.pdbqt.pdb
REMARK  1 active torsions:
REMARK  status: ('A' for Active; 'I' for Inactive)
REMARK    1  A    between atoms: N_4  and  C_12
REMARK                            x       y       z     vdW  Elec       q    Type
REMARK                         _______ _______ _______ _____ _____    ______ ____
ROOT
ATOM      1  F   UNL     1       1.702   7.026  78.633  0.00  0.00    +0.000 F 
ATOM      2  O   UNL     1       4.591   5.267  74.364  0.00  0.00    +0.000 OA
ATOM      3  O   UNL     1       2.609   4.352  78.398  0.00  0.00    +0.000 OA
ATOM      4  N   UNL     1       3.248   6.974  75.296  0.00  0.00    +0.000 N 
ATOM      5  N   UNL     1       3.492   4.865  76.333  0.00  0.00    +0.000 N 
ATOM      6  C   UNL     1       2.456   7.251  76.350  0.00  0.00    +0.000 C 
ATOM      7  C   UNL     1       2.069   6.487  77.458  0.00  0.00    +0.000 C 
ATOM      8  C   UNL     1       3.839   5.691  75.236  0.00  0.00    +0.000 C 
ATOM      9  C   UNL     1       2.719   5.144  77.469  0.00  0.00    +0.000 C 
ATOM     10  H   UNL     1       3.938   3.959  76.329  0.00  0.00    +0.000 HD
ENDROOT
BRANCH   4  12
ATOM     11  O   UNL     1       4.583   8.751  74.317  0.00  0.00    +0.000 OA
ATOM     12  C   UNL     1       3.442   7.940  74.350  0.00  0.00    +0.000 C 
ATOM     13  C   UNL     1       2.600   8.317  73.270  0.00  0.00    +0.000 C 
ATOM     14  C   UNL     1       2.974   9.434  72.295  0.00  0.00    +0.000 C 
ATOM     15  C   UNL     1       4.177   9.427  73.236  0.00  0.00    +0.000 C 
ENDBRANCH   4  12
TORSDOF 1
ENDMDL
MODEL 4
REMARK VINA RESULT:      -3.1      9.543     10.944
REMARK  Name = 71369791_5FluoroDione.pdbqt.pdb
REMARK  1 active torsions:
REMARK  status: ('A' for Active; 'I' for Inactive)
REMARK    1  A    between atoms: N_4  and  C_12
REMARK                            x       y       z     vdW  Elec       q    Type
REMARK                         _______ _______ _______ _____ _____    ______ ____
ROOT
ATOM      1  F   UNL     1       2.131   6.177  63.194  0.00  0.00    +0.000 F 
ATOM      2  O   UNL     1       2.070   3.806  68.097  0.00  0.00    +0.000 OA
ATOM      3  O   UNL     1       2.442   3.383  63.545  0.00  0.00    +0.000 OA
ATOM      4  N   UNL     1       2.196   5.812  66.853  0.00  0.00    +0.000 N 
ATOM      5  N   UNL     1       2.345   3.690  65.827  0.00  0.00    +0.000 N 
ATOM      6  C   UNL     1       2.335   6.281  65.597  0.00  0.00    +0.000 C 
ATOM      7  C   UNL     1       2.493   5.632  64.367  0.00  0.00    +0.000 C 
ATOM      8  C   UNL     1       2.194   4.410  67.036  0.00  0.00    +0.000 C 
ATOM      9  C   UNL     1       2.433   4.146  64.503  0.00  0.00    +0.000 C 
ATOM     10  H   UNL     1       2.304   2.686  65.932  0.00  0.00    +0.000 HD
ENDROOT
BRANCH   4  12
ATOM     11  O   UNL     1       3.046   6.892  68.855  0.00  0.00    +0.000 OA
ATOM     12  C   UNL     1       2.062   6.708  67.876  0.00  0.00    +0.000 C 
ATOM     13  C   UNL     1       0.983   7.585  68.161  0.00  0.00    +0.000 C 
ATOM     14  C   UNL     1       0.996   8.532  69.363  0.00  0.00    +0.000 C 
ATOM     15  C   UNL     1       2.345   7.830  69.504  0.00  0.00    +0.000 C 
ENDBRANCH   4  12
TORSDOF 1
ENDMDL
MODEL 5
REMARK VINA RESULT:      -3.1     12.376     13.388
REMARK  Name = 71369791_5FluoroDione.pdbqt.pdb
REMARK  1 active torsions:
REMARK  status: ('A' for Active; 'I' for Inactive)
REMARK    1  A    between atoms: N_4  and  C_12
REMARK                            x       y       z     vdW  Elec       q    Type
REMARK                         _______ _______ _______ _____ _____    ______ ____
ROOT
ATOM      1  F   UNL     1      19.599   6.456  64.559  0.00  0.00    +0.000 F 
ATOM      2  O   UNL     1      16.887  11.037  63.408  0.00  0.00    +0.000 OA
ATOM      3  O   UNL     1      18.177   7.925  66.521  0.00  0.00    +0.000 OA
ATOM      4  N   UNL     1      18.452   9.413  62.698  0.00  0.00    +0.000 N 
ATOM      5  N   UNL     1      17.654   9.498  64.920  0.00  0.00    +0.000 N 
ATOM      6  C   UNL     1      19.164   8.357  63.136  0.00  0.00    +0.000 C 
ATOM      7  C   UNL     1      19.257   7.745  64.391  0.00  0.00    +0.000 C 
ATOM      8  C   UNL     1      17.612  10.071  63.626  0.00  0.00    +0.000 C 
ATOM      9  C   UNL     1      18.339   8.368  65.390  0.00  0.00    +0.000 C 
ATOM     10  H   UNL     1      17.029   9.928  65.587  0.00  0.00    +0.000 HD
ENDROOT
BRANCH   4  12
ATOM     11  O   UNL     1      19.588  10.639  60.936  0.00  0.00    +0.000 OA
ATOM     12  C   UNL     1      18.572   9.789  61.390  0.00  0.00    +0.000 C 
ATOM     13  C   UNL     1      17.761   9.436  60.279  0.00  0.00    +0.000 C 
ATOM     14  C   UNL     1      18.040   9.954  58.867  0.00  0.00    +0.000 C 
ATOM     15  C   UNL     1      19.165  10.607  59.667  0.00  0.00    +0.000 C 
ENDBRANCH   4  12
TORSDOF 1
ENDMDL
MODEL 6
REMARK VINA RESULT:      -3.0     11.732     12.618
REMARK  Name = 71369791_5FluoroDione.pdbqt.pdb
REMARK  1 active torsions:
REMARK  status: ('A' for Active; 'I' for Inactive)
REMARK    1  A    between atoms: N_4  and  C_12
REMARK                            x       y       z     vdW  Elec       q    Type
REMARK                         _______ _______ _______ _____ _____    ______ ____
ROOT
ATOM      1  F   UNL     1      16.934  10.225  61.680  0.00  0.00    +0.000 F 
ATOM      2  O   UNL     1      20.646   9.059  57.869  0.00  0.00    +0.000 OA
ATOM      3  O   UNL     1      19.407   8.980  62.284  0.00  0.00    +0.000 OA
ATOM      4  N   UNL     1      18.428   9.713  58.359  0.00  0.00    +0.000 N 
ATOM      5  N   UNL     1      19.914   8.966  60.037  0.00  0.00    +0.000 N 
ATOM      6  C   UNL     1      17.558   9.850  59.378  0.00  0.00    +0.000 C 
ATOM      7  C   UNL     1      17.675   9.599  60.750  0.00  0.00    +0.000 C 
ATOM      8  C   UNL     1      19.725   9.237  58.659  0.00  0.00    +0.000 C 
ATOM      9  C   UNL     1      19.050   9.153  61.125  0.00  0.00    +0.000 C 
ATOM     10  H   UNL     1      20.848   8.665  60.278  0.00  0.00    +0.000 HD
ENDROOT
BRANCH   4  12
ATOM     11  O   UNL     1      17.772   9.083  56.107  0.00  0.00    +0.000 OA
ATOM     12  C   UNL     1      18.019  10.042  57.097  0.00  0.00    +0.000 C 
ATOM     13  C   UNL     1      17.770  11.325  56.543  0.00  0.00    +0.000 C 
ATOM     14  C   UNL     1      17.313  11.515  55.096  0.00  0.00    +0.000 C 
ATOM     15  C   UNL     1      17.434   9.995  55.188  0.00  0.00    +0.000 C 
ENDBRANCH   4  12
TORSDOF 1
ENDMDL
MODEL 7
REMARK VINA RESULT:      -3.0     10.159     11.487
REMARK  Name = 71369791_5FluoroDione.pdbqt.pdb
REMARK  1 active torsions:
REMARK  status: ('A' for Active; 'I' for Inactive)
REMARK    1  A    between atoms: N_4  and  C_12
REMARK                            x       y       z     vdW  Elec       q    Type
REMARK                         _______ _______ _______ _____ _____    ______ ____
ROOT
ATOM      1  F   UNL     1      15.132  -2.308  51.205  0.00  0.00    +0.000 F 
ATOM      2  O   UNL     1      15.990   2.704  53.154  0.00  0.00    +0.000 OA
ATOM      3  O   UNL     1      13.359  -0.153  50.716  0.00  0.00    +0.000 OA
ATOM      4  N   UNL     1      16.579   0.416  53.208  0.00  0.00    +0.000 N 
ATOM      5  N   UNL     1      14.681   1.194  52.037  0.00  0.00    +0.000 N 
ATOM      6  C   UNL     1      16.196  -0.794  52.756  0.00  0.00    +0.000 C 
ATOM      7  C   UNL     1      15.116  -1.199  51.963  0.00  0.00    +0.000 C 
ATOM      8  C   UNL     1      15.792   1.533  52.847  0.00  0.00    +0.000 C 
ATOM      9  C   UNL     1      14.290  -0.043  51.505  0.00  0.00    +0.000 C 
ATOM     10  H   UNL     1      14.129   1.985  51.734  0.00  0.00    +0.000 HD
ENDROOT
BRANCH   4  12
ATOM     11  O   UNL     1      17.857  -0.220  55.173  0.00  0.00    +0.000 OA
ATOM     12  C   UNL     1      17.701   0.502  53.983  0.00  0.00    +0.000 C 
ATOM     13  C   UNL     1      18.872   1.279  53.779  0.00  0.00    +0.000 C 
ATOM     14  C   UNL     1      20.047   1.257  54.758  0.00  0.00    +0.000 C 
ATOM     15  C   UNL     1      19.074   0.280  55.416  0.00  0.00    +0.000 C 
ENDBRANCH   4  12
TORSDOF 1
ENDMDL
MODEL 8
REMARK VINA RESULT:      -3.0     15.558     16.258
REMARK  Name = 71369791_5FluoroDione.pdbqt.pdb
REMARK  1 active torsions:
REMARK  status: ('A' for Active; 'I' for Inactive)
REMARK    1  A    between atoms: N_4  and  C_12
REMARK                            x       y       z     vdW  Elec       q    Type
REMARK                         _______ _______ _______ _____ _____    ______ ____
ROOT
ATOM      1  F   UNL     1       1.700   9.437  69.981  0.00  0.00    +0.000 F 
ATOM      2  O   UNL     1       5.418   9.563  73.959  0.00  0.00    +0.000 OA
ATOM      3  O   UNL     1       3.720  11.418  70.124  0.00  0.00    +0.000 OA
ATOM      4  N   UNL     1       3.382   8.667  73.160  0.00  0.00    +0.000 N 
ATOM      5  N   UNL     1       4.453  10.486  72.100  0.00  0.00    +0.000 N 
ATOM      6  C   UNL     1       2.464   8.812  72.185  0.00  0.00    +0.000 C 
ATOM      7  C   UNL     1       2.366   9.710  71.115  0.00  0.00    +0.000 C 
ATOM      8  C   UNL     1       4.486   9.551  73.162  0.00  0.00    +0.000 C 
ATOM      9  C   UNL     1       3.544  10.625  71.040  0.00  0.00    +0.000 C 
ATOM     10  H   UNL     1       5.254  11.100  72.060  0.00  0.00    +0.000 HD
ENDROOT
BRANCH   4  12
ATOM     11  O   UNL     1       4.073   6.588  74.208  0.00  0.00    +0.000 OA
ATOM     12  C   UNL     1       3.204   7.679  74.087  0.00  0.00    +0.000 C 
ATOM     13  C   UNL     1       2.180   7.541  75.061  0.00  0.00    +0.000 C 
ATOM     14  C   UNL     1       2.130   6.358  76.030  0.00  0.00    +0.000 C 
ATOM     15  C   UNL     1       3.384   6.043  75.217  0.00  0.00    +0.000 C 
ENDBRANCH   4  12
TORSDOF 1
ENDMDL
MODEL 9
REMARK VINA RESULT:      -2.9      2.754      3.484
REMARK  Name = 71369791_5FluoroDione.pdbqt.pdb
REMARK  1 active torsions:
REMARK  status: ('A' for Active; 'I' for Inactive)
REMARK    1  A    between atoms: N_4  and  C_12
REMARK                            x       y       z     vdW  Elec       q    Type
REMARK                         _______ _______ _______ _____ _____    ______ ____
ROOT
ATOM      1  F   UNL     1       5.854   4.476  54.280  0.00  0.00    +0.000 F 
ATOM      2  O   UNL     1       9.221   6.020  58.272  0.00  0.00    +0.000 OA
ATOM      3  O   UNL     1       6.846   7.120  54.506  0.00  0.00    +0.000 OA
ATOM      4  N   UNL     1       7.746   4.375  57.432  0.00  0.00    +0.000 N 
ATOM      5  N   UNL     1       7.931   6.514  56.447  0.00  0.00    +0.000 N 
ATOM      6  C   UNL     1       6.840   4.153  56.460  0.00  0.00    +0.000 C 
ATOM      7  C   UNL     1       6.357   4.964  55.426  0.00  0.00    +0.000 C 
ATOM      8  C   UNL     1       8.371   5.643  57.472  0.00  0.00    +0.000 C 
ATOM      9  C   UNL     1       7.035   6.293  55.390  0.00  0.00    +0.000 C 
ATOM     10  H   UNL     1       8.396   7.411  56.433  0.00  0.00    +0.000 HD
ENDROOT
BRANCH   4  12
ATOM     11  O   UNL     1       9.228   2.671  58.325  0.00  0.00    +0.000 OA
ATOM     12  C   UNL     1       8.015   3.372  58.319  0.00  0.00    +0.000 C 
ATOM     13  C   UNL     1       7.196   2.849  59.354  0.00  0.00    +0.000 C 
ATOM     14  C   UNL     1       7.658   1.710  60.265  0.00  0.00    +0.000 C 
ATOM     15  C   UNL     1       8.870   1.891  59.352  0.00  0.00    +0.000 C 
ENDBRANCH   4  12
TORSDOF 1
ENDMDL
