MODEL 1
REMARK VINA RESULT:      -2.3      0.000      0.000
REMARK  Name = 7288_3Pentanone.pdbqt.pdb
REMARK  2 active torsions:
REMARK  status: ('A' for Active; 'I' for Inactive)
REMARK    1  A    between atoms: C_2  and  C_3
REMARK    2  A    between atoms: C_2  and  C_5
REMARK                            x       y       z     vdW  Elec       q    Type
REMARK                         _______ _______ _______ _____ _____    ______ ____
ROOT
ATOM      1  O   UNL     1      10.962   5.543  57.524  0.00  0.00    +0.000 OA
ATOM      2  C   UNL     1       9.940   5.115  58.047  0.00  0.00    +0.000 C 
ENDROOT
BRANCH   2   3
ATOM      3  C   UNL     1       9.805   3.715  58.374  0.00  0.00    +0.000 C 
ATOM      4  C   UNL     1       9.636   2.222  58.717  0.00  0.00    +0.000 C 
ENDBRANCH   2   3
BRANCH   2   5
ATOM      5  C   UNL     1       8.839   5.997  58.352  0.00  0.00    +0.000 C 
ATOM      6  C   UNL     1       7.667   6.937  58.702  0.00  0.00    +0.000 C 
ENDBRANCH   2   5
TORSDOF 2
ENDMDL
MODEL 2
REMARK VINA RESULT:      -2.0     10.077     10.698
REMARK  Name = 7288_3Pentanone.pdbqt.pdb
REMARK  2 active torsions:
REMARK  status: ('A' for Active; 'I' for Inactive)
REMARK    1  A    between atoms: C_2  and  C_3
REMARK    2  A    between atoms: C_2  and  C_5
REMARK                            x       y       z     vdW  Elec       q    Type
REMARK                         _______ _______ _______ _____ _____    ______ ____
ROOT
ATOM      1  O   UNL     1      16.913   9.564  55.020  0.00  0.00    +0.000 OA
ATOM      2  C   UNL     1      17.959   8.937  54.909  0.00  0.00    +0.000 C 
ENDROOT
BRANCH   2   3
ATOM      3  C   UNL     1      18.847   8.771  56.036  0.00  0.00    +0.000 C 
ATOM      4  C   UNL     1      19.776   8.601  57.253  0.00  0.00    +0.000 C 
ENDBRANCH   2   3
BRANCH   2   5
ATOM      5  C   UNL     1      18.338   8.344  53.648  0.00  0.00    +0.000 C 
ATOM      6  C   UNL     1      18.724   7.696  52.303  0.00  0.00    +0.000 C 
ENDBRANCH   2   5
TORSDOF 2
ENDMDL
MODEL 3
REMARK VINA RESULT:      -1.9     13.897     14.989
REMARK  Name = 7288_3Pentanone.pdbqt.pdb
REMARK  2 active torsions:
REMARK  status: ('A' for Active; 'I' for Inactive)
REMARK    1  A    between atoms: C_2  and  C_3
REMARK    2  A    between atoms: C_2  and  C_5
REMARK                            x       y       z     vdW  Elec       q    Type
REMARK                         _______ _______ _______ _____ _____    ______ ____
ROOT
ATOM      1  O   UNL     1       5.173   8.683  70.959  0.00  0.00    +0.000 OA
ATOM      2  C   UNL     1       3.993   8.461  71.205  0.00  0.00    +0.000 C 
ENDROOT
BRANCH   2   3
ATOM      3  C   UNL     1       2.988   8.573  70.176  0.00  0.00    +0.000 C 
ATOM      4  C   UNL     1       1.929   8.682  69.061  0.00  0.00    +0.000 C 
ENDBRANCH   2   3
BRANCH   2   5
ATOM      5  C   UNL     1       3.573   8.080  72.533  0.00  0.00    +0.000 C 
ATOM      6  C   UNL     1       3.137   7.690  73.960  0.00  0.00    +0.000 C 
ENDBRANCH   2   5
TORSDOF 2
ENDMDL
MODEL 4
REMARK VINA RESULT:      -1.9     10.933     12.158
REMARK  Name = 7288_3Pentanone.pdbqt.pdb
REMARK  2 active torsions:
REMARK  status: ('A' for Active; 'I' for Inactive)
REMARK    1  A    between atoms: C_2  and  C_3
REMARK    2  A    between atoms: C_2  and  C_5
REMARK                            x       y       z     vdW  Elec       q    Type
REMARK                         _______ _______ _______ _____ _____    ______ ____
ROOT
ATOM      1  O   UNL     1       2.301   4.962  67.854  0.00  0.00    +0.000 OA
ATOM      2  C   UNL     1       2.193   6.126  67.490  0.00  0.00    +0.000 C 
ENDROOT
BRANCH   2   3
ATOM      3  C   UNL     1       2.137   7.201  68.453  0.00  0.00    +0.000 C 
ATOM      4  C   UNL     1       2.089   8.334  69.496  0.00  0.00    +0.000 C 
ENDBRANCH   2   3
BRANCH   2   5
ATOM      5  C   UNL     1       2.118   6.461  66.088  0.00  0.00    +0.000 C 
ATOM      6  C   UNL     1       2.044   6.840  64.595  0.00  0.00    +0.000 C 
ENDBRANCH   2   5
TORSDOF 2
ENDMDL
MODEL 5
REMARK VINA RESULT:      -1.9     10.933     12.040
REMARK  Name = 7288_3Pentanone.pdbqt.pdb
REMARK  2 active torsions:
REMARK  status: ('A' for Active; 'I' for Inactive)
REMARK    1  A    between atoms: C_2  and  C_3
REMARK    2  A    between atoms: C_2  and  C_5
REMARK                            x       y       z     vdW  Elec       q    Type
REMARK                         _______ _______ _______ _____ _____    ______ ____
ROOT
ATOM      1  O   UNL     1       2.312   4.958  67.858  0.00  0.00    +0.000 OA
ATOM      2  C   UNL     1       2.202   6.124  67.498  0.00  0.00    +0.000 C 
ENDROOT
BRANCH   2   3
ATOM      3  C   UNL     1       2.131   6.463  66.096  0.00  0.00    +0.000 C 
ATOM      4  C   UNL     1       2.050   6.848  64.606  0.00  0.00    +0.000 C 
ENDBRANCH   2   3
BRANCH   2   5
ATOM      5  C   UNL     1       2.140   7.195  68.463  0.00  0.00    +0.000 C 
ATOM      6  C   UNL     1       2.097   8.343  69.492  0.00  0.00    +0.000 C 
ENDBRANCH   2   5
TORSDOF 2
ENDMDL
MODEL 6
REMARK VINA RESULT:      -1.9      9.471     10.327
REMARK  Name = 7288_3Pentanone.pdbqt.pdb
REMARK  2 active torsions:
REMARK  status: ('A' for Active; 'I' for Inactive)
REMARK    1  A    between atoms: C_2  and  C_3
REMARK    2  A    between atoms: C_2  and  C_5
REMARK                            x       y       z     vdW  Elec       q    Type
REMARK                         _______ _______ _______ _____ _____    ______ ____
ROOT
ATOM      1  O   UNL     1      16.200   9.594  60.650  0.00  0.00    +0.000 OA
ATOM      2  C   UNL     1      17.389   9.512  60.364  0.00  0.00    +0.000 C 
ENDROOT
BRANCH   2   3
ATOM      3  C   UNL     1      17.852   9.817  59.031  0.00  0.00    +0.000 C 
ATOM      4  C   UNL     1      18.370  10.137  57.615  0.00  0.00    +0.000 C 
ENDBRANCH   2   3
BRANCH   2   5
ATOM      5  C   UNL     1      18.362   9.110  61.351  0.00  0.00    +0.000 C 
ATOM      6  C   UNL     1      19.388   8.662  62.412  0.00  0.00    +0.000 C 
ENDBRANCH   2   5
TORSDOF 2
ENDMDL
MODEL 7
REMARK VINA RESULT:      -1.9     10.637     11.522
REMARK  Name = 7288_3Pentanone.pdbqt.pdb
REMARK  2 active torsions:
REMARK  status: ('A' for Active; 'I' for Inactive)
REMARK    1  A    between atoms: C_2  and  C_3
REMARK    2  A    between atoms: C_2  and  C_5
REMARK                            x       y       z     vdW  Elec       q    Type
REMARK                         _______ _______ _______ _____ _____    ______ ____
ROOT
ATOM      1  O   UNL     1      19.622   0.221  56.002  0.00  0.00    +0.000 OA
ATOM      2  C   UNL     1      19.394   0.840  54.970  0.00  0.00    +0.000 C 
ENDROOT
BRANCH   2   3
ATOM      3  C   UNL     1      18.137   0.687  54.277  0.00  0.00    +0.000 C 
ATOM      4  C   UNL     1      16.806   0.528  53.516  0.00  0.00    +0.000 C 
ENDBRANCH   2   3
BRANCH   2   5
ATOM      5  C   UNL     1      20.375   1.742  54.414  0.00  0.00    +0.000 C 
ATOM      6  C   UNL     1      21.412   2.723  53.831  0.00  0.00    +0.000 C 
ENDBRANCH   2   5
TORSDOF 2
ENDMDL
MODEL 8
REMARK VINA RESULT:      -1.8     11.846     12.267
REMARK  Name = 7288_3Pentanone.pdbqt.pdb
REMARK  2 active torsions:
REMARK  status: ('A' for Active; 'I' for Inactive)
REMARK    1  A    between atoms: C_2  and  C_3
REMARK    2  A    between atoms: C_2  and  C_5
REMARK                            x       y       z     vdW  Elec       q    Type
REMARK                         _______ _______ _______ _____ _____    ______ ____
ROOT
ATOM      1  O   UNL     1      15.233   6.293  67.999  0.00  0.00    +0.000 OA
ATOM      2  C   UNL     1      15.767   5.209  68.200  0.00  0.00    +0.000 C 
ENDROOT
BRANCH   2   3
ATOM      3  C   UNL     1      15.270   4.317  69.221  0.00  0.00    +0.000 C 
ATOM      4  C   UNL     1      14.732   3.384  70.324  0.00  0.00    +0.000 C 
ENDBRANCH   2   3
BRANCH   2   5
ATOM      5  C   UNL     1      16.909   4.790  67.424  0.00  0.00    +0.000 C 
ATOM      6  C   UNL     1      18.122   4.319  66.596  0.00  0.00    +0.000 C 
ENDBRANCH   2   5
TORSDOF 2
ENDMDL
MODEL 9
REMARK VINA RESULT:      -1.8      3.264      4.493
REMARK  Name = 7288_3Pentanone.pdbqt.pdb
REMARK  2 active torsions:
REMARK  status: ('A' for Active; 'I' for Inactive)
REMARK    1  A    between atoms: C_2  and  C_3
REMARK    2  A    between atoms: C_2  and  C_5
REMARK                            x       y       z     vdW  Elec       q    Type
REMARK                         _______ _______ _______ _____ _____    ______ ____
ROOT
ATOM      1  O   UNL     1       8.005   9.300  60.205  0.00  0.00    +0.000 OA
ATOM      2  C   UNL     1       7.463   8.202  60.191  0.00  0.00    +0.000 C 
ENDROOT
BRANCH   2   3
ATOM      3  C   UNL     1       7.756   7.243  59.152  0.00  0.00    +0.000 C 
ATOM      4  C   UNL     1       8.058   6.203  58.056  0.00  0.00    +0.000 C 
ENDBRANCH   2   3
BRANCH   2   5
ATOM      5  C   UNL     1       6.512   7.832  61.213  0.00  0.00    +0.000 C 
ATOM      6  C   UNL     1       5.492   7.416  62.292  0.00  0.00    +0.000 C 
ENDBRANCH   2   5
TORSDOF 2
ENDMDL
