MODEL 1
REMARK VINA RESULT:      -5.0      0.000      0.000
REMARK  Name = 73299_Hederagenin.pdbqt.pdb
REMARK  5 active torsions:
REMARK  status: ('A' for Active; 'I' for Inactive)
REMARK    1  A    between atoms: C_9  and  C_35
REMARK    2  A    between atoms: C_14  and  C_32
REMARK    3  A    between atoms: C_17  and  O_29
REMARK    4  A    between atoms: C_32  and  O_33
REMARK    5  A    between atoms: C_35  and  O_36
REMARK                            x       y       z     vdW  Elec       q    Type
REMARK                         _______ _______ _______ _____ _____    ______ ____
ROOT
ATOM      1  C   UNL     1       1.982   4.799  62.503  0.00  0.00    +0.000 C 
ATOM      2  C   UNL     1       2.762   3.596  63.181  0.00  0.00    +0.000 C 
ATOM      3  C   UNL     1       2.270   2.875  64.441  0.00  0.00    +0.000 C 
ATOM      4  C   UNL     1       3.006   5.990  61.977  0.00  0.00    +0.000 C 
ATOM      5  C   UNL     1       1.501   3.729  65.491  0.00  0.00    +0.000 C 
ATOM      6  C   UNL     1       1.070   5.303  63.536  0.00  0.00    +0.000 C 
ATOM      7  C   UNL     1       0.814   4.843  64.932  0.00  0.00    +0.000 C 
ATOM      8  C   UNL     1       4.246   5.395  61.111  0.00  0.00    +0.000 C 
ATOM      9  C   UNL     1       1.683   3.559  67.008  0.00  0.00    +0.000 C 
ATOM     10  C   UNL     1       4.780   6.004  59.874  0.00  0.00    +0.000 C 
ATOM     11  C   UNL     1       4.008   3.324  62.533  0.00  0.00    +0.000 C 
ATOM     12  C   UNL     1       3.407   2.316  65.166  0.00  0.00    +0.000 C 
ATOM     13  C   UNL     1       2.369   6.948  61.054  0.00  0.00    +0.000 C 
ATOM     14  C   UNL     1       3.851   6.874  58.823  0.00  0.00    +0.000 C 
ATOM     15  C   UNL     1       1.153   4.184  61.303  0.00  0.00    +0.000 C 
ATOM     16  C   UNL     1       2.756   7.372  59.656  0.00  0.00    +0.000 C 
ATOM     17  C   UNL     1       2.738   2.538  67.511  0.00  0.00    +0.000 C 
ATOM     18  C   UNL     1       4.655   4.230  61.524  0.00  0.00    +0.000 C 
ATOM     19  C   UNL     1       1.321   1.736  63.988  0.00  0.00    +0.000 C 
ATOM     20  C   UNL     1       3.721   2.096  66.607  0.00  0.00    +0.000 C 
ATOM     21  C   UNL     1       3.681   6.778  63.181  0.00  0.00    +0.000 C 
ATOM     22  C   UNL     1       6.209   6.318  59.824  0.00  0.00    +0.000 C 
ATOM     23  C   UNL     1       4.779   7.906  58.289  0.00  0.00    +0.000 C 
ATOM     24  C   UNL     1       7.246   7.264  59.264  0.00  0.00    +0.000 C 
ATOM     25  C   UNL     1       0.305   3.172  67.639  0.00  0.00    +0.000 C 
ATOM     26  C   UNL     1       6.309   8.102  58.448  0.00  0.00    +0.000 C 
ATOM     27  C   UNL     1       7.916   8.080  60.384  0.00  0.00    +0.000 C 
ATOM     28  C   UNL     1       8.268   6.523  58.385  0.00  0.00    +0.000 C 
ENDROOT
BRANCH  17  29
ATOM     29  O   UNL     1       2.556   1.843  68.694  0.00  0.00    +0.000 OA
ATOM     30  H   UNL     1       3.143   2.192  69.397  0.00  0.00    +0.000 HD
ENDBRANCH  17  29
BRANCH  14  32
ATOM     31  O   UNL     1       2.515   5.071  57.807  0.00  0.00    +0.000 OA
ATOM     32  C   UNL     1       3.392   5.920  57.713  0.00  0.00    +0.000 C 
BRANCH  32  33
ATOM     33  O   UNL     1       4.099   6.019  56.566  0.00  0.00    +0.000 OA
ATOM     34  H   UNL     1       3.496   5.690  55.865  0.00  0.00    +0.000 HD
ENDBRANCH  32  33
ENDBRANCH  14  32
BRANCH   9  35
ATOM     35  C   UNL     1       2.125   4.879  67.561  0.00  0.00    +0.000 C 
BRANCH  35  36
ATOM     36  O   UNL     1       2.523   6.050  68.066  0.00  0.00    +0.000 OA
ATOM     37  H   UNL     1       1.917   6.354  68.766  0.00  0.00    +0.000 HD
ENDBRANCH  35  36
ENDBRANCH   9  35
TORSDOF 5
ENDMDL
MODEL 2
REMARK VINA RESULT:      -4.8      2.770      4.322
REMARK  Name = 73299_Hederagenin.pdbqt.pdb
REMARK  5 active torsions:
REMARK  status: ('A' for Active; 'I' for Inactive)
REMARK    1  A    between atoms: C_9  and  C_35
REMARK    2  A    between atoms: C_14  and  C_32
REMARK    3  A    between atoms: C_17  and  O_29
REMARK    4  A    between atoms: C_32  and  O_33
REMARK    5  A    between atoms: C_35  and  O_36
REMARK                            x       y       z     vdW  Elec       q    Type
REMARK                         _______ _______ _______ _____ _____    ______ ____
ROOT
ATOM      1  C   UNL     1       3.724   7.951  61.483  0.00  0.00    +0.000 C 
ATOM      2  C   UNL     1       2.366   7.140  61.367  0.00  0.00    +0.000 C 
ATOM      3  C   UNL     1       1.173   7.352  62.304  0.00  0.00    +0.000 C 
ATOM      4  C   UNL     1       5.050   6.992  61.228  0.00  0.00    +0.000 C 
ATOM      5  C   UNL     1       1.491   7.736  63.779  0.00  0.00    +0.000 C 
ATOM      6  C   UNL     1       3.727   8.511  62.839  0.00  0.00    +0.000 C 
ATOM      7  C   UNL     1       2.720   8.436  63.937  0.00  0.00    +0.000 C 
ATOM      8  C   UNL     1       4.901   6.083  59.890  0.00  0.00    +0.000 C 
ATOM      9  C   UNL     1       0.707   7.182  64.980  0.00  0.00    +0.000 C 
ATOM     10  C   UNL     1       5.985   5.834  58.914  0.00  0.00    +0.000 C 
ATOM     11  C   UNL     1       2.421   6.137  60.347  0.00  0.00    +0.000 C 
ATOM     12  C   UNL     1       0.389   6.124  62.393  0.00  0.00    +0.000 C 
ATOM     13  C   UNL     1       6.290   7.754  60.992  0.00  0.00    +0.000 C 
ATOM     14  C   UNL     1       7.191   6.919  58.611  0.00  0.00    +0.000 C 
ATOM     15  C   UNL     1       3.648   9.119  60.417  0.00  0.00    +0.000 C 
ATOM     16  C   UNL     1       7.269   7.706  59.842  0.00  0.00    +0.000 C 
ATOM     17  C   UNL     1      -0.406   6.134  64.709  0.00  0.00    +0.000 C 
ATOM     18  C   UNL     1       3.681   5.693  59.660  0.00  0.00    +0.000 C 
ATOM     19  C   UNL     1       0.306   8.490  61.708  0.00  0.00    +0.000 C 
ATOM     20  C   UNL     1      -0.406   5.467  63.471  0.00  0.00    +0.000 C 
ATOM     21  C   UNL     1       5.278   5.955  62.411  0.00  0.00    +0.000 C 
ATOM     22  C   UNL     1       6.324   4.445  58.604  0.00  0.00    +0.000 C 
ATOM     23  C   UNL     1       8.374   6.068  58.311  0.00  0.00    +0.000 C 
ATOM     24  C   UNL     1       7.442   3.505  58.216  0.00  0.00    +0.000 C 
ATOM     25  C   UNL     1       0.059   8.378  65.752  0.00  0.00    +0.000 C 
ATOM     26  C   UNL     1       8.522   4.538  58.107  0.00  0.00    +0.000 C 
ATOM     27  C   UNL     1       7.731   2.491  59.339  0.00  0.00    +0.000 C 
ATOM     28  C   UNL     1       7.161   2.822  56.866  0.00  0.00    +0.000 C 
ENDROOT
BRANCH  17  29
ATOM     29  O   UNL     1      -1.536   6.066  65.505  0.00  0.00    +0.000 OA
ATOM     30  H   UNL     1      -1.664   5.159  65.853  0.00  0.00    +0.000 HD
ENDBRANCH  17  29
BRANCH  14  32
ATOM     31  O   UNL     1       6.160   8.795  57.394  0.00  0.00    +0.000 OA
ATOM     32  C   UNL     1       6.778   7.739  57.383  0.00  0.00    +0.000 C 
BRANCH  32  33
ATOM     33  O   UNL     1       7.091   7.166  56.200  0.00  0.00    +0.000 OA
ATOM     34  H   UNL     1       6.830   6.225  56.294  0.00  0.00    +0.000 HD
ENDBRANCH  32  33
ENDBRANCH  14  32
BRANCH   9  35
ATOM     35  C   UNL     1       1.684   6.488  65.877  0.00  0.00    +0.000 C 
BRANCH  35  36
ATOM     36  O   UNL     1       2.561   5.882  66.682  0.00  0.00    +0.000 OA
ATOM     37  H   UNL     1       2.577   4.920  66.524  0.00  0.00    +0.000 HD
ENDBRANCH  35  36
ENDBRANCH   9  35
TORSDOF 5
ENDMDL
MODEL 3
REMARK VINA RESULT:      -4.8      8.380     12.091
REMARK  Name = 73299_Hederagenin.pdbqt.pdb
REMARK  5 active torsions:
REMARK  status: ('A' for Active; 'I' for Inactive)
REMARK    1  A    between atoms: C_9  and  C_35
REMARK    2  A    between atoms: C_14  and  C_32
REMARK    3  A    between atoms: C_17  and  O_29
REMARK    4  A    between atoms: C_32  and  O_33
REMARK    5  A    between atoms: C_35  and  O_36
REMARK                            x       y       z     vdW  Elec       q    Type
REMARK                         _______ _______ _______ _____ _____    ______ ____
ROOT
ATOM      1  C   UNL     1       3.375   9.725  74.120  0.00  0.00    +0.000 C 
ATOM      2  C   UNL     1       2.074   9.040  74.713  0.00  0.00    +0.000 C 
ATOM      3  C   UNL     1       2.070   8.209  76.002  0.00  0.00    +0.000 C 
ATOM      4  C   UNL     1       3.448   9.603  72.470  0.00  0.00    +0.000 C 
ATOM      5  C   UNL     1       3.351   7.384  76.316  0.00  0.00    +0.000 C 
ATOM      6  C   UNL     1       4.503   9.032  74.753  0.00  0.00    +0.000 C 
ATOM      7  C   UNL     1       4.542   7.941  75.771  0.00  0.00    +0.000 C 
ATOM      8  C   UNL     1       2.053  10.038  71.760  0.00  0.00    +0.000 C 
ATOM      9  C   UNL     1       3.313   5.966  76.912  0.00  0.00    +0.000 C 
ATOM     10  C   UNL     1       1.951  10.852  70.529  0.00  0.00    +0.000 C 
ATOM     11  C   UNL     1       0.934   9.215  73.866  0.00  0.00    +0.000 C 
ATOM     12  C   UNL     1       0.989   7.230  75.956  0.00  0.00    +0.000 C 
ATOM     13  C   UNL     1       4.443  10.503  71.857  0.00  0.00    +0.000 C 
ATOM     14  C   UNL     1       3.066  11.994  70.109  0.00  0.00    +0.000 C 
ATOM     15  C   UNL     1       3.343  11.238  74.582  0.00  0.00    +0.000 C 
ATOM     16  C   UNL     1       4.288  11.552  70.781  0.00  0.00    +0.000 C 
ATOM     17  C   UNL     1       1.928   5.305  77.142  0.00  0.00    +0.000 C 
ATOM     18  C   UNL     1       0.998   9.726  72.454  0.00  0.00    +0.000 C 
ATOM     19  C   UNL     1       1.849   9.185  77.187  0.00  0.00    +0.000 C 
ATOM     20  C   UNL     1       0.813   5.842  76.474  0.00  0.00    +0.000 C 
ATOM     21  C   UNL     1       3.711   8.111  71.988  0.00  0.00    +0.000 C 
ATOM     22  C   UNL     1       1.186  10.308  69.407  0.00  0.00    +0.000 C 
ATOM     23  C   UNL     1       3.091  11.944  68.622  0.00  0.00    +0.000 C 
ATOM     24  C   UNL     1       1.071  10.257  67.901  0.00  0.00    +0.000 C 
ATOM     25  C   UNL     1       4.071   5.977  78.281  0.00  0.00    +0.000 C 
ATOM     26  C   UNL     1       2.200  11.193  67.598  0.00  0.00    +0.000 C 
ATOM     27  C   UNL     1       1.345   8.838  67.370  0.00  0.00    +0.000 C 
ATOM     28  C   UNL     1      -0.281  10.813  67.420  0.00  0.00    +0.000 C 
ENDROOT
BRANCH  17  29
ATOM     29  O   UNL     1       1.719   4.424  78.190  0.00  0.00    +0.000 OA
ATOM     30  H   UNL     1       2.389   3.709  78.183  0.00  0.00    +0.000 HD
ENDBRANCH  17  29
BRANCH  14  32
ATOM     31  O   UNL     1       2.110  14.255  69.907  0.00  0.00    +0.000 OA
ATOM     32  C   UNL     1       2.549  13.350  70.604  0.00  0.00    +0.000 C 
BRANCH  32  33
ATOM     33  O   UNL     1       2.675  13.541  71.936  0.00  0.00    +0.000 OA
ATOM     34  H   UNL     1       2.601  12.646  72.331  0.00  0.00    +0.000 HD
ENDBRANCH  32  33
ENDBRANCH  14  32
BRANCH   9  35
ATOM     35  C   UNL     1       4.026   5.056  75.961  0.00  0.00    +0.000 C 
BRANCH  35  36
ATOM     36  O   UNL     1       4.649   4.236  75.110  0.00  0.00    +0.000 OA
ATOM     37  H   UNL     1       4.720   4.637  74.224  0.00  0.00    +0.000 HD
ENDBRANCH  35  36
ENDBRANCH   9  35
TORSDOF 5
ENDMDL
MODEL 4
REMARK VINA RESULT:      -4.5      7.752     11.999
REMARK  Name = 73299_Hederagenin.pdbqt.pdb
REMARK  5 active torsions:
REMARK  status: ('A' for Active; 'I' for Inactive)
REMARK    1  A    between atoms: C_9  and  C_35
REMARK    2  A    between atoms: C_14  and  C_32
REMARK    3  A    between atoms: C_17  and  O_29
REMARK    4  A    between atoms: C_32  and  O_33
REMARK    5  A    between atoms: C_35  and  O_36
REMARK                            x       y       z     vdW  Elec       q    Type
REMARK                         _______ _______ _______ _____ _____    ______ ____
ROOT
ATOM      1  C   UNL     1       1.844  10.820  69.898  0.00  0.00    +0.000 C 
ATOM      2  C   UNL     1       1.542   9.629  68.895  0.00  0.00    +0.000 C 
ATOM      3  C   UNL     1       0.679   9.783  67.638  0.00  0.00    +0.000 C 
ATOM      4  C   UNL     1       1.800  10.331  71.480  0.00  0.00    +0.000 C 
ATOM      5  C   UNL     1      -0.506  10.790  67.712  0.00  0.00    +0.000 C 
ATOM      6  C   UNL     1       0.814  11.828  69.626  0.00  0.00    +0.000 C 
ATOM      7  C   UNL     1      -0.295  11.858  68.628  0.00  0.00    +0.000 C 
ATOM      8  C   UNL     1       2.668   8.981  71.729  0.00  0.00    +0.000 C 
ATOM      9  C   UNL     1      -1.880  10.519  67.076  0.00  0.00    +0.000 C 
ATOM     10  C   UNL     1       3.546   8.745  72.897  0.00  0.00    +0.000 C 
ATOM     11  C   UNL     1       2.095   8.389  69.345  0.00  0.00    +0.000 C 
ATOM     12  C   UNL     1       0.068   8.502  67.299  0.00  0.00    +0.000 C 
ATOM     13  C   UNL     1       2.399  11.304  72.413  0.00  0.00    +0.000 C 
ATOM     14  C   UNL     1       4.328   9.958  73.696  0.00  0.00    +0.000 C 
ATOM     15  C   UNL     1       3.271  11.388  69.513  0.00  0.00    +0.000 C 
ATOM     16  C   UNL     1       3.506  11.139  73.428  0.00  0.00    +0.000 C 
ATOM     17  C   UNL     1      -2.114   9.146  66.392  0.00  0.00    +0.000 C 
ATOM     18  C   UNL     1       2.644   8.155  70.724  0.00  0.00    +0.000 C 
ATOM     19  C   UNL     1       1.607  10.247  66.486  0.00  0.00    +0.000 C 
ATOM     20  C   UNL     1      -1.233   8.092  66.694  0.00  0.00    +0.000 C 
ATOM     21  C   UNL     1       0.327   9.971  71.957  0.00  0.00    +0.000 C 
ATOM     22  C   UNL     1       3.317   7.540  73.695  0.00  0.00    +0.000 C 
ATOM     23  C   UNL     1       4.357   9.499  75.111  0.00  0.00    +0.000 C 
ATOM     24  C   UNL     1       3.388   6.948  75.084  0.00  0.00    +0.000 C 
ATOM     25  C   UNL     1      -2.172  11.636  66.020  0.00  0.00    +0.000 C 
ATOM     26  C   UNL     1       3.963   8.150  75.767  0.00  0.00    +0.000 C 
ATOM     27  C   UNL     1       1.984   6.604  75.614  0.00  0.00    +0.000 C 
ATOM     28  C   UNL     1       4.345   5.744  75.135  0.00  0.00    +0.000 C 
ENDROOT
BRANCH  17  29
ATOM     29  O   UNL     1      -2.951   9.024  65.296  0.00  0.00    +0.000 OA
ATOM     30  H   UNL     1      -2.532   9.400  64.493  0.00  0.00    +0.000 HD
ENDBRANCH  17  29
BRANCH  14  32
ATOM     31  O   UNL     1       6.054   9.951  71.940  0.00  0.00    +0.000 OA
ATOM     32  C   UNL     1       5.745  10.053  73.120  0.00  0.00    +0.000 C 
BRANCH  32  33
ATOM     33  O   UNL     1       6.716  10.197  74.048  0.00  0.00    +0.000 OA
ATOM     34  H   UNL     1       6.303   9.924  74.895  0.00  0.00    +0.000 HD
ENDBRANCH  32  33
ENDBRANCH  14  32
BRANCH   9  35
ATOM     35  C   UNL     1      -2.905  10.591  68.165  0.00  0.00    +0.000 C 
BRANCH  35  36
ATOM     36  O   UNL     1      -3.827  10.644  69.130  0.00  0.00    +0.000 OA
ATOM     37  H   UNL     1      -4.379  11.444  69.044  0.00  0.00    +0.000 HD
ENDBRANCH  35  36
ENDBRANCH   9  35
TORSDOF 5
ENDMDL
MODEL 5
REMARK VINA RESULT:      -4.4      4.373      9.444
REMARK  Name = 73299_Hederagenin.pdbqt.pdb
REMARK  5 active torsions:
REMARK  status: ('A' for Active; 'I' for Inactive)
REMARK    1  A    between atoms: C_9  and  C_35
REMARK    2  A    between atoms: C_14  and  C_32
REMARK    3  A    between atoms: C_17  and  O_29
REMARK    4  A    between atoms: C_32  and  O_33
REMARK    5  A    between atoms: C_35  and  O_36
REMARK                            x       y       z     vdW  Elec       q    Type
REMARK                         _______ _______ _______ _____ _____    ______ ____
ROOT
ATOM      1  C   UNL     1       5.927  10.277  60.937  0.00  0.00    +0.000 C 
ATOM      2  C   UNL     1       7.462  10.526  60.626  0.00  0.00    +0.000 C 
ATOM      3  C   UNL     1       8.079  11.922  60.485  0.00  0.00    +0.000 C 
ATOM      4  C   UNL     1       5.309   9.012  60.065  0.00  0.00    +0.000 C 
ATOM      5  C   UNL     1       7.179  13.036  59.876  0.00  0.00    +0.000 C 
ATOM      6  C   UNL     1       5.252  11.535  60.596  0.00  0.00    +0.000 C 
ATOM      7  C   UNL     1       5.788  12.836  60.099  0.00  0.00    +0.000 C 
ATOM      8  C   UNL     1       6.253   7.692  60.146  0.00  0.00    +0.000 C 
ATOM      9  C   UNL     1       7.704  14.098  58.896  0.00  0.00    +0.000 C 
ATOM     10  C   UNL     1       5.756   6.307  60.302  0.00  0.00    +0.000 C 
ATOM     11  C   UNL     1       8.175   9.305  60.409  0.00  0.00    +0.000 C 
ATOM     12  C   UNL     1       9.248  11.860  59.614  0.00  0.00    +0.000 C 
ATOM     13  C   UNL     1       4.005   8.535  60.563  0.00  0.00    +0.000 C 
ATOM     14  C   UNL     1       4.361   5.935  61.100  0.00  0.00    +0.000 C 
ATOM     15  C   UNL     1       5.816  10.010  62.493  0.00  0.00    +0.000 C 
ATOM     16  C   UNL     1       3.564   7.157  60.998  0.00  0.00    +0.000 C 
ATOM     17  C   UNL     1       9.185  14.007  58.439  0.00  0.00    +0.000 C 
ATOM     18  C   UNL     1       7.524   7.966  60.208  0.00  0.00    +0.000 C 
ATOM     19  C   UNL     1       8.500  12.392  61.901  0.00  0.00    +0.000 C 
ATOM     20  C   UNL     1       9.866  12.791  58.625  0.00  0.00    +0.000 C 
ATOM     21  C   UNL     1       5.198   9.347  58.515  0.00  0.00    +0.000 C 
ATOM     22  C   UNL     1       6.175   5.313  59.313  0.00  0.00    +0.000 C 
ATOM     23  C   UNL     1       3.830   4.753  60.369  0.00  0.00    +0.000 C 
ATOM     24  C   UNL     1       5.766   4.060  58.574  0.00  0.00    +0.000 C 
ATOM     25  C   UNL     1       7.484  15.514  59.525  0.00  0.00    +0.000 C 
ATOM     26  C   UNL     1       4.440   3.875  59.245  0.00  0.00    +0.000 C 
ATOM     27  C   UNL     1       5.613   4.329  57.066  0.00  0.00    +0.000 C 
ATOM     28  C   UNL     1       6.727   2.894  58.867  0.00  0.00    +0.000 C 
ENDROOT
BRANCH  17  29
ATOM     29  O   UNL     1       9.916  15.146  58.146  0.00  0.00    +0.000 OA
ATOM     30  H   UNL     1       9.511  15.638  57.402  0.00  0.00    +0.000 HD
ENDBRANCH  17  29
BRANCH  14  32
ATOM     31  O   UNL     1       4.519   4.496  63.093  0.00  0.00    +0.000 OA
ATOM     32  C   UNL     1       4.737   5.566  62.541  0.00  0.00    +0.000 C 
BRANCH  32  33
ATOM     33  O   UNL     1       5.300   6.573  63.245  0.00  0.00    +0.000 OA
ATOM     34  H   UNL     1       5.411   7.305  62.600  0.00  0.00    +0.000 HD
ENDBRANCH  32  33
ENDBRANCH  14  32
BRANCH   9  35
ATOM     35  C   UNL     1       6.901  13.988  57.637  0.00  0.00    +0.000 C 
BRANCH  35  36
ATOM     36  O   UNL     1       6.197  13.885  56.506  0.00  0.00    +0.000 OA
ATOM     37  H   UNL     1       5.455  14.517  56.496  0.00  0.00    +0.000 HD
ENDBRANCH  35  36
ENDBRANCH   9  35
TORSDOF 5
ENDMDL
MODEL 6
REMARK VINA RESULT:      -4.3     11.058     14.173
REMARK  Name = 73299_Hederagenin.pdbqt.pdb
REMARK  5 active torsions:
REMARK  status: ('A' for Active; 'I' for Inactive)
REMARK    1  A    between atoms: C_9  and  C_35
REMARK    2  A    between atoms: C_14  and  C_32
REMARK    3  A    between atoms: C_17  and  O_29
REMARK    4  A    between atoms: C_32  and  O_33
REMARK    5  A    between atoms: C_35  and  O_36
REMARK                            x       y       z     vdW  Elec       q    Type
REMARK                         _______ _______ _______ _____ _____    ______ ____
ROOT
ATOM      1  C   UNL     1       2.909   6.857  75.663  0.00  0.00    +0.000 C 
ATOM      2  C   UNL     1       3.730   6.897  77.020  0.00  0.00    +0.000 C 
ATOM      3  C   UNL     1       3.469   5.945  78.192  0.00  0.00    +0.000 C 
ATOM      4  C   UNL     1       2.570   8.374  75.093  0.00  0.00    +0.000 C 
ATOM      5  C   UNL     1       1.999   5.489  78.421  0.00  0.00    +0.000 C 
ATOM      6  C   UNL     1       1.679   6.120  75.975  0.00  0.00    +0.000 C 
ATOM      7  C   UNL     1       1.212   5.472  77.235  0.00  0.00    +0.000 C 
ATOM      8  C   UNL     1       3.882   9.332  75.078  0.00  0.00    +0.000 C 
ATOM      9  C   UNL     1       1.372   5.338  79.817  0.00  0.00    +0.000 C 
ATOM     10  C   UNL     1       4.232  10.268  73.988  0.00  0.00    +0.000 C 
ATOM     11  C   UNL     1       4.673   7.972  77.051  0.00  0.00    +0.000 C 
ATOM     12  C   UNL     1       3.868   6.581  79.444  0.00  0.00    +0.000 C 
ATOM     13  C   UNL     1       2.118   8.387  73.689  0.00  0.00    +0.000 C 
ATOM     14  C   UNL     1       3.828  10.004  72.409  0.00  0.00    +0.000 C 
ATOM     15  C   UNL     1       3.783   6.037  74.628  0.00  0.00    +0.000 C 
ATOM     16  C   UNL     1       2.654   9.135  72.491  0.00  0.00    +0.000 C 
ATOM     17  C   UNL     1       2.229   5.729  81.051  0.00  0.00    +0.000 C 
ATOM     18  C   UNL     1       4.702   9.104  76.064  0.00  0.00    +0.000 C 
ATOM     19  C   UNL     1       4.316   4.668  77.956  0.00  0.00    +0.000 C 
ATOM     20  C   UNL     1       3.363   6.535  80.847  0.00  0.00    +0.000 C 
ATOM     21  C   UNL     1       1.511   9.135  76.002  0.00  0.00    +0.000 C 
ATOM     22  C   UNL     1       4.451  11.673  74.332  0.00  0.00    +0.000 C 
ATOM     23  C   UNL     1       3.588  11.367  71.865  0.00  0.00    +0.000 C 
ATOM     24  C   UNL     1       4.326  13.098  73.843  0.00  0.00    +0.000 C 
ATOM     25  C   UNL     1       0.915   3.853  80.004  0.00  0.00    +0.000 C 
ATOM     26  C   UNL     1       3.818  12.777  72.470  0.00  0.00    +0.000 C 
ATOM     27  C   UNL     1       3.289  13.881  74.668  0.00  0.00    +0.000 C 
ATOM     28  C   UNL     1       5.694  13.801  73.800  0.00  0.00    +0.000 C 
ENDROOT
BRANCH  17  29
ATOM     29  O   UNL     1       2.084   5.073  82.262  0.00  0.00    +0.000 OA
ATOM     30  H   UNL     1       2.912   5.117  82.783  0.00  0.00    +0.000 HD
ENDBRANCH  17  29
BRANCH  14  32
ATOM     31  O   UNL     1       6.156   9.820  71.627  0.00  0.00    +0.000 OA
ATOM     32  C   UNL     1       5.033   9.344  71.728  0.00  0.00    +0.000 C 
BRANCH  32  33
ATOM     33  O   UNL     1       4.761   8.157  71.141  0.00  0.00    +0.000 OA
ATOM     34  H   UNL     1       4.513   8.380  70.218  0.00  0.00    +0.000 HD
ENDBRANCH  32  33
ENDBRANCH  14  32
BRANCH   9  35
ATOM     35  C   UNL     1       0.174   6.234  79.875  0.00  0.00    +0.000 C 
BRANCH  35  36
ATOM     36  O   UNL     1      -0.896   7.030  79.941  0.00  0.00    +0.000 OA
ATOM     37  H   UNL     1      -0.765   7.740  80.597  0.00  0.00    +0.000 HD
ENDBRANCH  35  36
ENDBRANCH   9  35
TORSDOF 5
ENDMDL
MODEL 7
REMARK VINA RESULT:      -4.3      4.030      8.598
REMARK  Name = 73299_Hederagenin.pdbqt.pdb
REMARK  5 active torsions:
REMARK  status: ('A' for Active; 'I' for Inactive)
REMARK    1  A    between atoms: C_9  and  C_35
REMARK    2  A    between atoms: C_14  and  C_32
REMARK    3  A    between atoms: C_17  and  O_29
REMARK    4  A    between atoms: C_32  and  O_33
REMARK    5  A    between atoms: C_35  and  O_36
REMARK                            x       y       z     vdW  Elec       q    Type
REMARK                         _______ _______ _______ _____ _____    ______ ____
ROOT
ATOM      1  C   UNL     1       5.826   8.587  59.656  0.00  0.00    +0.000 C 
ATOM      2  C   UNL     1       6.224   7.055  59.762  0.00  0.00    +0.000 C 
ATOM      3  C   UNL     1       6.840   6.262  58.604  0.00  0.00    +0.000 C 
ATOM      4  C   UNL     1       4.393   8.914  60.419  0.00  0.00    +0.000 C 
ATOM      5  C   UNL     1       6.386   6.642  57.165  0.00  0.00    +0.000 C 
ATOM      6  C   UNL     1       5.738   8.867  58.219  0.00  0.00    +0.000 C 
ATOM      7  C   UNL     1       5.984   8.000  57.030  0.00  0.00    +0.000 C 
ATOM      8  C   UNL     1       4.338   8.288  61.917  0.00  0.00    +0.000 C 
ATOM      9  C   UNL     1       6.129   5.601  56.062  0.00  0.00    +0.000 C 
ATOM     10  C   UNL     1       3.785   8.979  63.102  0.00  0.00    +0.000 C 
ATOM     11  C   UNL     1       5.865   6.488  61.025  0.00  0.00    +0.000 C 
ATOM     12  C   UNL     1       6.510   4.847  58.745  0.00  0.00    +0.000 C 
ATOM     13  C   UNL     1       4.159  10.353  60.638  0.00  0.00    +0.000 C 
ATOM     14  C   UNL     1       3.810  10.620  63.281  0.00  0.00    +0.000 C 
ATOM     15  C   UNL     1       7.017   9.411  60.295  0.00  0.00    +0.000 C 
ATOM     16  C   UNL     1       3.867  11.120  61.907  0.00  0.00    +0.000 C 
ATOM     17  C   UNL     1       6.259   4.098  56.427  0.00  0.00    +0.000 C 
ATOM     18  C   UNL     1       4.965   7.152  62.028  0.00  0.00    +0.000 C 
ATOM     19  C   UNL     1       8.377   6.455  58.669  0.00  0.00    +0.000 C 
ATOM     20  C   UNL     1       6.234   3.737  57.785  0.00  0.00    +0.000 C 
ATOM     21  C   UNL     1       3.149   8.281  59.659  0.00  0.00    +0.000 C 
ATOM     22  C   UNL     1       2.737   8.301  63.866  0.00  0.00    +0.000 C 
ATOM     23  C   UNL     1       2.560  10.921  64.028  0.00  0.00    +0.000 C 
ATOM     24  C   UNL     1       1.500   8.500  64.710  0.00  0.00    +0.000 C 
ATOM     25  C   UNL     1       7.096   5.889  54.866  0.00  0.00    +0.000 C 
ATOM     26  C   UNL     1       1.510   9.999  64.701  0.00  0.00    +0.000 C 
ATOM     27  C   UNL     1       0.252   7.932  64.011  0.00  0.00    +0.000 C 
ATOM     28  C   UNL     1       1.688   7.933  66.129  0.00  0.00    +0.000 C 
ENDROOT
BRANCH  17  29
ATOM     29  O   UNL     1       6.694   3.170  55.496  0.00  0.00    +0.000 OA
ATOM     30  H   UNL     1       6.967   2.337  55.935  0.00  0.00    +0.000 HD
ENDBRANCH  17  29
BRANCH  14  32
ATOM     31  O   UNL     1       6.203  10.657  63.864  0.00  0.00    +0.000 OA
ATOM     32  C   UNL     1       5.048  10.974  64.115  0.00  0.00    +0.000 C 
BRANCH  32  33
ATOM     33  O   UNL     1       4.777  11.643  65.257  0.00  0.00    +0.000 OA
ATOM     34  H   UNL     1       4.105  11.097  65.720  0.00  0.00    +0.000 HD
ENDBRANCH  32  33
ENDBRANCH  14  32
BRANCH   9  35
ATOM     35  C   UNL     1       4.714   5.769  55.603  0.00  0.00    +0.000 C 
BRANCH  35  36
ATOM     36  O   UNL     1       3.446   5.915  55.207  0.00  0.00    +0.000 OA
ATOM     37  H   UNL     1       3.044   6.710  55.604  0.00  0.00    +0.000 HD
ENDBRANCH  35  36
ENDBRANCH   9  35
TORSDOF 5
ENDMDL
MODEL 8
REMARK VINA RESULT:      -4.3      3.953      8.512
REMARK  Name = 73299_Hederagenin.pdbqt.pdb
REMARK  5 active torsions:
REMARK  status: ('A' for Active; 'I' for Inactive)
REMARK    1  A    between atoms: C_9  and  C_35
REMARK    2  A    between atoms: C_14  and  C_32
REMARK    3  A    between atoms: C_17  and  O_29
REMARK    4  A    between atoms: C_32  and  O_33
REMARK    5  A    between atoms: C_35  and  O_36
REMARK                            x       y       z     vdW  Elec       q    Type
REMARK                         _______ _______ _______ _____ _____    ______ ____
ROOT
ATOM      1  C   UNL     1       0.572   6.347  65.330  0.00  0.00    +0.000 C 
ATOM      2  C   UNL     1       1.684   6.949  64.373  0.00  0.00    +0.000 C 
ATOM      3  C   UNL     1       2.247   6.203  63.159  0.00  0.00    +0.000 C 
ATOM      4  C   UNL     1       0.866   6.690  66.923  0.00  0.00    +0.000 C 
ATOM      5  C   UNL     1       2.359   4.655  63.269  0.00  0.00    +0.000 C 
ATOM      6  C   UNL     1       0.593   4.900  65.087  0.00  0.00    +0.000 C 
ATOM      7  C   UNL     1       1.403   4.071  64.147  0.00  0.00    +0.000 C 
ATOM      8  C   UNL     1       1.203   8.261  67.161  0.00  0.00    +0.000 C 
ATOM      9  C   UNL     1       3.548   3.855  62.711  0.00  0.00    +0.000 C 
ATOM     10  C   UNL     1       0.693   9.073  68.287  0.00  0.00    +0.000 C 
ATOM     11  C   UNL     1       2.154   8.223  64.824  0.00  0.00    +0.000 C 
ATOM     12  C   UNL     1       3.605   6.663  62.883  0.00  0.00    +0.000 C 
ATOM     13  C   UNL     1      -0.295   6.450  67.801  0.00  0.00    +0.000 C 
ATOM     14  C   UNL     1      -0.761   8.792  69.015  0.00  0.00    +0.000 C 
ATOM     15  C   UNL     1      -0.812   6.954  64.858  0.00  0.00    +0.000 C 
ATOM     16  C   UNL     1      -1.009   7.373  68.761  0.00  0.00    +0.000 C 
ATOM     17  C   UNL     1       4.725   4.641  62.074  0.00  0.00    +0.000 C 
ATOM     18  C   UNL     1       1.862   8.805  66.178  0.00  0.00    +0.000 C 
ATOM     19  C   UNL     1       1.328   6.514  61.950  0.00  0.00    +0.000 C 
ATOM     20  C   UNL     1       4.841   6.014  62.356  0.00  0.00    +0.000 C 
ATOM     21  C   UNL     1       2.129   5.905  67.485  0.00  0.00    +0.000 C 
ATOM     22  C   UNL     1       1.667   9.773  69.125  0.00  0.00    +0.000 C 
ATOM     23  C   UNL     1      -0.530   9.163  70.437  0.00  0.00    +0.000 C 
ATOM     24  C   UNL     1       1.965  10.267  70.523  0.00  0.00    +0.000 C 
ATOM     25  C   UNL     1       3.016   2.842  61.644  0.00  0.00    +0.000 C 
ATOM     26  C   UNL     1       0.670   9.844  71.146  0.00  0.00    +0.000 C 
ATOM     27  C   UNL     1       3.165   9.520  71.133  0.00  0.00    +0.000 C 
ATOM     28  C   UNL     1       2.146  11.795  70.554  0.00  0.00    +0.000 C 
ENDROOT
BRANCH  17  29
ATOM     29  O   UNL     1       5.458   4.110  61.025  0.00  0.00    +0.000 OA
ATOM     30  H   UNL     1       5.110   3.230  60.768  0.00  0.00    +0.000 HD
ENDBRANCH  17  29
BRANCH  14  32
ATOM     31  O   UNL     1      -2.385   9.520  67.313  0.00  0.00    +0.000 OA
ATOM     32  C   UNL     1      -1.791   9.722  68.364  0.00  0.00    +0.000 C 
BRANCH  32  33
ATOM     33  O   UNL     1      -1.977  10.891  69.016  0.00  0.00    +0.000 OA
ATOM     34  H   UNL     1      -1.128  11.374  68.921  0.00  0.00    +0.000 HD
ENDBRANCH  32  33
ENDBRANCH  14  32
BRANCH   9  35
ATOM     35  C   UNL     1       4.158   3.098  63.850  0.00  0.00    +0.000 C 
BRANCH  35  36
ATOM     36  O   UNL     1       4.702   2.409  64.857  0.00  0.00    +0.000 OA
ATOM     37  H   UNL     1       4.294   2.653  65.709  0.00  0.00    +0.000 HD
ENDBRANCH  35  36
ENDBRANCH   9  35
TORSDOF 5
ENDMDL
MODEL 9
REMARK VINA RESULT:      -4.3     14.716     18.782
REMARK  Name = 73299_Hederagenin.pdbqt.pdb
REMARK  5 active torsions:
REMARK  status: ('A' for Active; 'I' for Inactive)
REMARK    1  A    between atoms: C_9  and  C_35
REMARK    2  A    between atoms: C_14  and  C_32
REMARK    3  A    between atoms: C_17  and  O_29
REMARK    4  A    between atoms: C_32  and  O_33
REMARK    5  A    between atoms: C_35  and  O_36
REMARK                            x       y       z     vdW  Elec       q    Type
REMARK                         _______ _______ _______ _____ _____    ______ ____
ROOT
ATOM      1  C   UNL     1      17.257   1.072  51.362  0.00  0.00    +0.000 C 
ATOM      2  C   UNL     1      16.137   0.384  50.474  0.00  0.00    +0.000 C 
ATOM      3  C   UNL     1      15.587   0.999  49.183  0.00  0.00    +0.000 C 
ATOM      4  C   UNL     1      16.955   0.913  52.982  0.00  0.00    +0.000 C 
ATOM      5  C   UNL     1      15.500   2.552  49.119  0.00  0.00    +0.000 C 
ATOM      6  C   UNL     1      17.260   2.483  50.958  0.00  0.00    +0.000 C 
ATOM      7  C   UNL     1      16.464   3.214  49.929  0.00  0.00    +0.000 C 
ATOM      8  C   UNL     1      16.592  -0.616  53.392  0.00  0.00    +0.000 C 
ATOM      9  C   UNL     1      14.325   3.302  48.471  0.00  0.00    +0.000 C 
ATOM     10  C   UNL     1      17.087  -1.306  54.604  0.00  0.00    +0.000 C 
ATOM     11  C   UNL     1      15.646  -0.825  51.062  0.00  0.00    +0.000 C 
ATOM     12  C   UNL     1      14.223   0.533  48.955  0.00  0.00    +0.000 C 
ATOM     13  C   UNL     1      18.118   1.231  53.831  0.00  0.00    +0.000 C 
ATOM     14  C   UNL     1      18.544  -0.968  55.301  0.00  0.00    +0.000 C 
ATOM     15  C   UNL     1      18.631   0.394  50.965  0.00  0.00    +0.000 C 
ATOM     16  C   UNL     1      18.816   0.410  54.890  0.00  0.00    +0.000 C 
ATOM     17  C   UNL     1      13.136   2.469  47.922  0.00  0.00    +0.000 C 
ATOM     18  C   UNL     1      15.926  -1.256  52.474  0.00  0.00    +0.000 C 
ATOM     19  C   UNL     1      16.503   0.540  48.018  0.00  0.00    +0.000 C 
ATOM     20  C   UNL     1      12.998   1.138  48.355  0.00  0.00    +0.000 C 
ATOM     21  C   UNL     1      15.703   1.776  53.448  0.00  0.00    +0.000 C 
ATOM     22  C   UNL     1      16.101  -1.893  55.511  0.00  0.00    +0.000 C 
ATOM     23  C   UNL     1      18.306  -1.175  56.754  0.00  0.00    +0.000 C 
ATOM     24  C   UNL     1      15.794  -2.223  56.954  0.00  0.00    +0.000 C 
ATOM     25  C   UNL     1      14.875   4.181  47.300  0.00  0.00    +0.000 C 
ATOM     26  C   UNL     1      17.094  -1.753  57.531  0.00  0.00    +0.000 C 
ATOM     27  C   UNL     1      14.604  -1.394  57.473  0.00  0.00    +0.000 C 
ATOM     28  C   UNL     1      15.588  -3.735  57.154  0.00  0.00    +0.000 C 
ENDROOT
BRANCH  17  29
ATOM     29  O   UNL     1      12.414   2.891  46.818  0.00  0.00    +0.000 OA
ATOM     30  H   UNL     1      11.945   2.139  46.400  0.00  0.00    +0.000 HD
ENDBRANCH  17  29
BRANCH  14  32
ATOM     31  O   UNL     1      20.043  -2.921  55.379  0.00  0.00    +0.000 OA
ATOM     32  C   UNL     1      19.561  -1.981  54.761  0.00  0.00    +0.000 C 
BRANCH  32  33
ATOM     33  O   UNL     1      19.984  -1.729  53.502  0.00  0.00    +0.000 OA
ATOM     34  H   UNL     1      20.666  -1.030  53.596  0.00  0.00    +0.000 HD
ENDBRANCH  32  33
ENDBRANCH  14  32
BRANCH   9  35
ATOM     35  C   UNL     1      13.726   4.192  49.516  0.00  0.00    +0.000 C 
BRANCH  35  36
ATOM     36  O   UNL     1      13.187   4.973  50.456  0.00  0.00    +0.000 OA
ATOM     37  H   UNL     1      13.615   4.830  51.320  0.00  0.00    +0.000 HD
ENDBRANCH  35  36
ENDBRANCH   9  35
TORSDOF 5
ENDMDL
