MODEL 1
REMARK VINA RESULT:      -5.2      0.000      0.000
REMARK  Name = 73659_MaslinicAcid.pdbqt.pdb
REMARK  4 active torsions:
REMARK  status: ('A' for Active; 'I' for Inactive)
REMARK    1  A    between atoms: C_14  and  C_35
REMARK    2  A    between atoms: C_17  and  O_30
REMARK    3  A    between atoms: C_19  and  O_32
REMARK    4  A    between atoms: C_35  and  O_36
REMARK                            x       y       z     vdW  Elec       q    Type
REMARK                         _______ _______ _______ _____ _____    ______ ____
ROOT
ATOM      1  C   UNL     1       4.958   6.265  59.157  0.00  0.00    +0.000 C 
ATOM      2  C   UNL     1       6.413   6.212  58.520  0.00  0.00    +0.000 C 
ATOM      3  C   UNL     1       7.065   4.924  58.010  0.00  0.00    +0.000 C 
ATOM      4  C   UNL     1       4.879   7.288  60.455  0.00  0.00    +0.000 C 
ATOM      5  C   UNL     1       6.709   3.620  58.734  0.00  0.00    +0.000 C 
ATOM      6  C   UNL     1       4.661   4.882  59.547  0.00  0.00    +0.000 C 
ATOM      7  C   UNL     1       5.440   3.620  59.373  0.00  0.00    +0.000 C 
ATOM      8  C   UNL     1       5.542   8.736  60.133  0.00  0.00    +0.000 C 
ATOM      9  C   UNL     1       7.743   2.511  58.856  0.00  0.00    +0.000 C 
ATOM     10  C   UNL     1       4.966  10.038  60.535  0.00  0.00    +0.000 C 
ATOM     11  C   UNL     1       7.063   7.487  58.552  0.00  0.00    +0.000 C 
ATOM     12  C   UNL     1       8.510   5.015  58.142  0.00  0.00    +0.000 C 
ATOM     13  C   UNL     1       3.500   7.620  60.857  0.00  0.00    +0.000 C 
ATOM     14  C   UNL     1       3.343  10.290  60.709  0.00  0.00    +0.000 C 
ATOM     15  C   UNL     1       3.976   6.719  58.002  0.00  0.00    +0.000 C 
ATOM     16  C   UNL     1       2.813   8.959  61.003  0.00  0.00    +0.000 C 
ATOM     17  C   UNL     1       9.236   2.858  58.628  0.00  0.00    +0.000 C 
ATOM     18  C   UNL     1       6.672   4.758  56.523  0.00  0.00    +0.000 C 
ATOM     19  C   UNL     1       9.615   4.212  58.404  0.00  0.00    +0.000 C 
ATOM     20  C   UNL     1       6.571   8.669  59.336  0.00  0.00    +0.000 C 
ATOM     21  C   UNL     1       5.684   6.730  61.706  0.00  0.00    +0.000 C 
ATOM     22  C   UNL     1       5.808  10.959  61.295  0.00  0.00    +0.000 C 
ATOM     23  C   UNL     1       3.250  11.284  61.812  0.00  0.00    +0.000 C 
ATOM     24  C   UNL     1       5.815  12.043  62.350  0.00  0.00    +0.000 C 
ATOM     25  C   UNL     1       7.698   1.948  60.320  0.00  0.00    +0.000 C 
ATOM     26  C   UNL     1       7.378   1.359  57.875  0.00  0.00    +0.000 C 
ATOM     27  C   UNL     1       4.332  12.105  62.558  0.00  0.00    +0.000 C 
ATOM     28  C   UNL     1       6.373  13.366  61.795  0.00  0.00    +0.000 C 
ATOM     29  C   UNL     1       6.552  11.579  63.619  0.00  0.00    +0.000 C 
ENDROOT
BRANCH  17  30
ATOM     30  O   UNL     1      10.254   1.908  58.605  0.00  0.00    +0.000 OA
ATOM     31  H   UNL     1      10.133   1.242  59.314  0.00  0.00    +0.000 HD
ENDBRANCH  17  30
BRANCH  19  32
ATOM     32  O   UNL     1      10.883   4.527  58.019  0.00  0.00    +0.000 OA
ATOM     33  H   UNL     1      11.020   5.494  58.018  0.00  0.00    +0.000 HD
ENDBRANCH  19  32
BRANCH  14  35
ATOM     34  O   UNL     1       2.614  12.060  59.157  0.00  0.00    +0.000 OA
ATOM     35  C   UNL     1       2.820  10.876  59.393  0.00  0.00    +0.000 C 
BRANCH  35  36
ATOM     36  O   UNL     1       2.509   9.951  58.457  0.00  0.00    +0.000 OA
ATOM     37  H   UNL     1       2.327   9.129  58.963  0.00  0.00    +0.000 HD
ENDBRANCH  35  36
ENDBRANCH  14  35
TORSDOF 4
ENDMDL
MODEL 2
REMARK VINA RESULT:      -5.2      4.141      6.604
REMARK  Name = 73659_MaslinicAcid.pdbqt.pdb
REMARK  4 active torsions:
REMARK  status: ('A' for Active; 'I' for Inactive)
REMARK    1  A    between atoms: C_14  and  C_35
REMARK    2  A    between atoms: C_17  and  O_30
REMARK    3  A    between atoms: C_19  and  O_32
REMARK    4  A    between atoms: C_35  and  O_36
REMARK                            x       y       z     vdW  Elec       q    Type
REMARK                         _______ _______ _______ _____ _____    ______ ____
ROOT
ATOM      1  C   UNL     1       5.233  10.783  60.131  0.00  0.00    +0.000 C 
ATOM      2  C   UNL     1       5.520   9.280  60.557  0.00  0.00    +0.000 C 
ATOM      3  C   UNL     1       4.441   8.332  61.089  0.00  0.00    +0.000 C 
ATOM      4  C   UNL     1       6.444  11.809  60.598  0.00  0.00    +0.000 C 
ATOM      5  C   UNL     1       3.301   8.951  61.906  0.00  0.00    +0.000 C 
ATOM      6  C   UNL     1       3.961  11.128  60.778  0.00  0.00    +0.000 C 
ATOM      7  C   UNL     1       3.027  10.314  61.611  0.00  0.00    +0.000 C 
ATOM      8  C   UNL     1       7.913  11.247  60.189  0.00  0.00    +0.000 C 
ATOM      9  C   UNL     1       2.660   8.162  63.037  0.00  0.00    +0.000 C 
ATOM     10  C   UNL     1       9.004  12.068  59.620  0.00  0.00    +0.000 C 
ATOM     11  C   UNL     1       6.908   8.947  60.459  0.00  0.00    +0.000 C 
ATOM     12  C   UNL     1       5.036   7.364  61.996  0.00  0.00    +0.000 C 
ATOM     13  C   UNL     1       6.382  13.127  59.940  0.00  0.00    +0.000 C 
ATOM     14  C   UNL     1       8.735  13.405  58.690  0.00  0.00    +0.000 C 
ATOM     15  C   UNL     1       5.052  10.780  58.559  0.00  0.00    +0.000 C 
ATOM     16  C   UNL     1       7.411  13.862  59.111  0.00  0.00    +0.000 C 
ATOM     17  C   UNL     1       3.421   6.943  63.617  0.00  0.00    +0.000 C 
ATOM     18  C   UNL     1       3.812   7.612  59.873  0.00  0.00    +0.000 C 
ATOM     19  C   UNL     1       4.732   6.646  63.147  0.00  0.00    +0.000 C 
ATOM     20  C   UNL     1       8.008   9.949  60.257  0.00  0.00    +0.000 C 
ATOM     21  C   UNL     1       6.495  11.997  62.175  0.00  0.00    +0.000 C 
ATOM     22  C   UNL     1      10.304  12.045  60.289  0.00  0.00    +0.000 C 
ATOM     23  C   UNL     1       9.869  14.309  59.022  0.00  0.00    +0.000 C 
ATOM     24  C   UNL     1      11.542  12.852  60.610  0.00  0.00    +0.000 C 
ATOM     25  C   UNL     1       2.472   9.118  64.267  0.00  0.00    +0.000 C 
ATOM     26  C   UNL     1       1.257   7.663  62.585  0.00  0.00    +0.000 C 
ATOM     27  C   UNL     1      11.154  14.090  59.861  0.00  0.00    +0.000 C 
ATOM     28  C   UNL     1      12.807  12.198  60.025  0.00  0.00    +0.000 C 
ATOM     29  C   UNL     1      11.660  13.111  62.123  0.00  0.00    +0.000 C 
ENDROOT
BRANCH  17  30
ATOM     30  O   UNL     1       2.886   6.083  64.574  0.00  0.00    +0.000 OA
ATOM     31  H   UNL     1       3.348   6.180  65.433  0.00  0.00    +0.000 HD
ENDBRANCH  17  30
BRANCH  19  32
ATOM     32  O   UNL     1       5.352   5.484  63.497  0.00  0.00    +0.000 OA
ATOM     33  H   UNL     1       4.717   4.742  63.524  0.00  0.00    +0.000 HD
ENDBRANCH  19  32
BRANCH  14  35
ATOM     34  O   UNL     1       7.873  12.476  56.577  0.00  0.00    +0.000 OA
ATOM     35  C   UNL     1       8.790  12.968  57.221  0.00  0.00    +0.000 C 
BRANCH  35  36
ATOM     36  O   UNL     1      10.007  13.099  56.648  0.00  0.00    +0.000 OA
ATOM     37  H   UNL     1      10.617  13.306  57.390  0.00  0.00    +0.000 HD
ENDBRANCH  35  36
ENDBRANCH  14  35
TORSDOF 4
ENDMDL
MODEL 3
REMARK VINA RESULT:      -4.9      3.221      8.038
REMARK  Name = 73659_MaslinicAcid.pdbqt.pdb
REMARK  4 active torsions:
REMARK  status: ('A' for Active; 'I' for Inactive)
REMARK    1  A    between atoms: C_14  and  C_35
REMARK    2  A    between atoms: C_17  and  O_30
REMARK    3  A    between atoms: C_19  and  O_32
REMARK    4  A    between atoms: C_35  and  O_36
REMARK                            x       y       z     vdW  Elec       q    Type
REMARK                         _______ _______ _______ _____ _____    ______ ____
ROOT
ATOM      1  C   UNL     1       4.009   7.934  61.078  0.00  0.00    +0.000 C 
ATOM      2  C   UNL     1       2.663   7.091  61.073  0.00  0.00    +0.000 C 
ATOM      3  C   UNL     1       1.455   7.423  61.955  0.00  0.00    +0.000 C 
ATOM      4  C   UNL     1       5.351   6.971  60.975  0.00  0.00    +0.000 C 
ATOM      5  C   UNL     1       1.736   8.047  63.327  0.00  0.00    +0.000 C 
ATOM      6  C   UNL     1       3.985   8.686  62.338  0.00  0.00    +0.000 C 
ATOM      7  C   UNL     1       2.954   8.772  63.415  0.00  0.00    +0.000 C 
ATOM      8  C   UNL     1       5.229   5.878  59.780  0.00  0.00    +0.000 C 
ATOM      9  C   UNL     1       0.820   7.743  64.502  0.00  0.00    +0.000 C 
ATOM     10  C   UNL     1       6.317   5.524  58.842  0.00  0.00    +0.000 C 
ATOM     11  C   UNL     1       2.743   5.950  60.213  0.00  0.00    +0.000 C 
ATOM     12  C   UNL     1       0.720   6.208  62.266  0.00  0.00    +0.000 C 
ATOM     13  C   UNL     1       6.581   7.714  60.641  0.00  0.00    +0.000 C 
ATOM     14  C   UNL     1       7.500   6.584  58.392  0.00  0.00    +0.000 C 
ATOM     15  C   UNL     1       3.919   8.934  59.855  0.00  0.00    +0.000 C 
ATOM     16  C   UNL     1       7.563   7.529  59.507  0.00  0.00    +0.000 C 
ATOM     17  C   UNL     1      -0.115   6.509  64.417  0.00  0.00    +0.000 C 
ATOM     18  C   UNL     1       0.558   8.406  61.166  0.00  0.00    +0.000 C 
ATOM     19  C   UNL     1      -0.030   5.642  63.291  0.00  0.00    +0.000 C 
ATOM     20  C   UNL     1       4.016   5.435  59.605  0.00  0.00    +0.000 C 
ATOM     21  C   UNL     1       5.580   6.120  62.296  0.00  0.00    +0.000 C 
ATOM     22  C   UNL     1       6.685   4.114  58.715  0.00  0.00    +0.000 C 
ATOM     23  C   UNL     1       8.699   5.726  58.199  0.00  0.00    +0.000 C 
ATOM     24  C   UNL     1       7.822   3.154  58.445  0.00  0.00    +0.000 C 
ATOM     25  C   UNL     1       1.707   7.465  65.766  0.00  0.00    +0.000 C 
ATOM     26  C   UNL     1      -0.073   8.984  64.792  0.00  0.00    +0.000 C 
ATOM     27  C   UNL     1       8.879   4.186  58.195  0.00  0.00    +0.000 C 
ATOM     28  C   UNL     1       7.550   2.296  57.196  0.00  0.00    +0.000 C 
ATOM     29  C   UNL     1       8.137   2.301  59.687  0.00  0.00    +0.000 C 
ENDROOT
BRANCH  17  30
ATOM     30  O   UNL     1      -1.071   6.198  65.381  0.00  0.00    +0.000 OA
ATOM     31  H   UNL     1      -1.905   5.895  64.966  0.00  0.00    +0.000 HD
ENDBRANCH  17  30
BRANCH  19  32
ATOM     32  O   UNL     1      -0.955   4.662  63.095  0.00  0.00    +0.000 OA
ATOM     33  H   UNL     1      -0.558   3.889  62.648  0.00  0.00    +0.000 HD
ENDBRANCH  19  32
BRANCH  14  35
ATOM     34  O   UNL     1       7.371   6.856  55.946  0.00  0.00    +0.000 OA
ATOM     35  C   UNL     1       7.065   7.230  57.071  0.00  0.00    +0.000 C 
BRANCH  35  36
ATOM     36  O   UNL     1       6.330   8.355  57.218  0.00  0.00    +0.000 OA
ATOM     37  H   UNL     1       6.634   8.749  58.065  0.00  0.00    +0.000 HD
ENDBRANCH  35  36
ENDBRANCH  14  35
TORSDOF 4
ENDMDL
MODEL 4
REMARK VINA RESULT:      -4.8     14.033     17.536
REMARK  Name = 73659_MaslinicAcid.pdbqt.pdb
REMARK  4 active torsions:
REMARK  status: ('A' for Active; 'I' for Inactive)
REMARK    1  A    between atoms: C_14  and  C_35
REMARK    2  A    between atoms: C_17  and  O_30
REMARK    3  A    between atoms: C_19  and  O_32
REMARK    4  A    between atoms: C_35  and  O_36
REMARK                            x       y       z     vdW  Elec       q    Type
REMARK                         _______ _______ _______ _____ _____    ______ ____
ROOT
ATOM      1  C   UNL     1      15.612   4.914  72.124  0.00  0.00    +0.000 C 
ATOM      2  C   UNL     1      14.166   4.539  72.666  0.00  0.00    +0.000 C 
ATOM      3  C   UNL     1      13.576   5.109  73.959  0.00  0.00    +0.000 C 
ATOM      4  C   UNL     1      16.402   3.605  71.490  0.00  0.00    +0.000 C 
ATOM      5  C   UNL     1      14.552   5.426  75.099  0.00  0.00    +0.000 C 
ATOM      6  C   UNL     1      16.326   5.461  73.283  0.00  0.00    +0.000 C 
ATOM      7  C   UNL     1      15.879   5.719  74.684  0.00  0.00    +0.000 C 
ATOM      8  C   UNL     1      15.471   2.773  70.451  0.00  0.00    +0.000 C 
ATOM      9  C   UNL     1      14.110   5.268  76.545  0.00  0.00    +0.000 C 
ATOM     10  C   UNL     1      15.931   2.227  69.155  0.00  0.00    +0.000 C 
ATOM     11  C   UNL     1      13.522   3.555  71.852  0.00  0.00    +0.000 C 
ATOM     12  C   UNL     1      12.652   4.152  74.546  0.00  0.00    +0.000 C 
ATOM     13  C   UNL     1      17.583   3.967  70.685  0.00  0.00    +0.000 C 
ATOM     14  C   UNL     1      17.134   2.918  68.261  0.00  0.00    +0.000 C 
ATOM     15  C   UNL     1      15.405   6.046  71.037  0.00  0.00    +0.000 C 
ATOM     16  C   UNL     1      17.934   3.639  69.251  0.00  0.00    +0.000 C 
ATOM     17  C   UNL     1      12.856   4.408  76.850  0.00  0.00    +0.000 C 
ATOM     18  C   UNL     1      12.835   6.417  73.597  0.00  0.00    +0.000 C 
ATOM     19  C   UNL     1      12.206   3.715  75.789  0.00  0.00    +0.000 C 
ATOM     20  C   UNL     1      14.211   2.756  70.783  0.00  0.00    +0.000 C 
ATOM     21  C   UNL     1      16.816   2.557  72.610  0.00  0.00    +0.000 C 
ATOM     22  C   UNL     1      15.723   0.803  68.895  0.00  0.00    +0.000 C 
ATOM     23  C   UNL     1      17.803   1.764  67.603  0.00  0.00    +0.000 C 
ATOM     24  C   UNL     1      16.273  -0.418  68.192  0.00  0.00    +0.000 C 
ATOM     25  C   UNL     1      15.262   4.563  77.343  0.00  0.00    +0.000 C 
ATOM     26  C   UNL     1      13.871   6.674  77.166  0.00  0.00    +0.000 C 
ATOM     27  C   UNL     1      17.436   0.259  67.532  0.00  0.00    +0.000 C 
ATOM     28  C   UNL     1      15.273  -0.974  67.163  0.00  0.00    +0.000 C 
ATOM     29  C   UNL     1      16.731  -1.484  69.204  0.00  0.00    +0.000 C 
ENDROOT
BRANCH  17  30
ATOM     30  O   UNL     1      12.296   4.283  78.119  0.00  0.00    +0.000 OA
ATOM     31  H   UNL     1      11.810   3.437  78.208  0.00  0.00    +0.000 HD
ENDBRANCH  17  30
BRANCH  19  32
ATOM     32  O   UNL     1      11.005   3.106  75.987  0.00  0.00    +0.000 OA
ATOM     33  H   UNL     1      11.119   2.151  76.158  0.00  0.00    +0.000 HD
ENDBRANCH  19  32
BRANCH  14  35
ATOM     34  O   UNL     1      16.043   4.964  67.427  0.00  0.00    +0.000 OA
ATOM     35  C   UNL     1      16.474   3.837  67.226  0.00  0.00    +0.000 C 
BRANCH  35  36
ATOM     36  O   UNL     1      16.317   3.275  66.006  0.00  0.00    +0.000 OA
ATOM     37  H   UNL     1      16.018   2.357  66.184  0.00  0.00    +0.000 HD
ENDBRANCH  35  36
ENDBRANCH  14  35
TORSDOF 4
ENDMDL
MODEL 5
REMARK VINA RESULT:      -4.7      4.602      7.156
REMARK  Name = 73659_MaslinicAcid.pdbqt.pdb
REMARK  4 active torsions:
REMARK  status: ('A' for Active; 'I' for Inactive)
REMARK    1  A    between atoms: C_14  and  C_35
REMARK    2  A    between atoms: C_17  and  O_30
REMARK    3  A    between atoms: C_19  and  O_32
REMARK    4  A    between atoms: C_35  and  O_36
REMARK                            x       y       z     vdW  Elec       q    Type
REMARK                         _______ _______ _______ _____ _____    ______ ____
ROOT
ATOM      1  C   UNL     1       3.468   7.571  62.224  0.00  0.00    +0.000 C 
ATOM      2  C   UNL     1       4.842   6.989  61.678  0.00  0.00    +0.000 C 
ATOM      3  C   UNL     1       5.647   7.643  60.551  0.00  0.00    +0.000 C 
ATOM      4  C   UNL     1       2.368   6.378  62.549  0.00  0.00    +0.000 C 
ATOM      5  C   UNL     1       4.861   8.378  59.459  0.00  0.00    +0.000 C 
ATOM      6  C   UNL     1       2.987   8.470  61.170  0.00  0.00    +0.000 C 
ATOM      7  C   UNL     1       3.595   8.878  59.868  0.00  0.00    +0.000 C 
ATOM      8  C   UNL     1       3.010   5.179  63.438  0.00  0.00    +0.000 C 
ATOM      9  C   UNL     1       5.380   8.397  58.029  0.00  0.00    +0.000 C 
ATOM     10  C   UNL     1       2.338   4.518  64.578  0.00  0.00    +0.000 C 
ATOM     11  C   UNL     1       5.192   5.752  62.305  0.00  0.00    +0.000 C 
ATOM     12  C   UNL     1       6.394   6.630  59.823  0.00  0.00    +0.000 C 
ATOM     13  C   UNL     1       1.227   6.838  63.361  0.00  0.00    +0.000 C 
ATOM     14  C   UNL     1       1.237   5.283  65.542  0.00  0.00    +0.000 C 
ATOM     15  C   UNL     1       3.817   8.405  63.523  0.00  0.00    +0.000 C 
ATOM     16  C   UNL     1       0.695   6.337  64.684  0.00  0.00    +0.000 C 
ATOM     17  C   UNL     1       6.444   7.350  57.611  0.00  0.00    +0.000 C 
ATOM     18  C   UNL     1       6.615   8.661  61.199  0.00  0.00    +0.000 C 
ATOM     19  C   UNL     1       6.841   6.344  58.538  0.00  0.00    +0.000 C 
ATOM     20  C   UNL     1       4.262   4.943  63.163  0.00  0.00    +0.000 C 
ATOM     21  C   UNL     1       1.839   5.676  61.226  0.00  0.00    +0.000 C 
ATOM     22  C   UNL     1       2.217   3.062  64.556  0.00  0.00    +0.000 C 
ATOM     23  C   UNL     1       0.286   4.206  65.927  0.00  0.00    +0.000 C 
ATOM     24  C   UNL     1       1.363   1.886  64.977  0.00  0.00    +0.000 C 
ATOM     25  C   UNL     1       4.177   8.129  57.059  0.00  0.00    +0.000 C 
ATOM     26  C   UNL     1       5.963   9.804  57.713  0.00  0.00    +0.000 C 
ATOM     27  C   UNL     1       0.318   2.672  65.710  0.00  0.00    +0.000 C 
ATOM     28  C   UNL     1       2.132   0.938  65.914  0.00  0.00    +0.000 C 
ATOM     29  C   UNL     1       0.778   1.158  63.753  0.00  0.00    +0.000 C 
ENDROOT
BRANCH  17  30
ATOM     30  O   UNL     1       7.071   7.342  56.367  0.00  0.00    +0.000 OA
ATOM     31  H   UNL     1       7.818   6.708  56.352  0.00  0.00    +0.000 HD
ENDBRANCH  17  30
BRANCH  19  32
ATOM     32  O   UNL     1       7.899   5.529  58.272  0.00  0.00    +0.000 OA
ATOM     33  H   UNL     1       7.901   4.752  58.864  0.00  0.00    +0.000 HD
ENDBRANCH  19  32
BRANCH  14  35
ATOM     34  O   UNL     1       2.169   6.999  67.045  0.00  0.00    +0.000 OA
ATOM     35  C   UNL     1       1.986   5.821  66.767  0.00  0.00    +0.000 C 
BRANCH  35  36
ATOM     36  O   UNL     1       2.534   4.863  67.547  0.00  0.00    +0.000 OA
ATOM     37  H   UNL     1       2.248   4.013  67.146  0.00  0.00    +0.000 HD
ENDBRANCH  35  36
ENDBRANCH  14  35
TORSDOF 4
ENDMDL
MODEL 6
REMARK VINA RESULT:      -4.6     10.197     13.991
REMARK  Name = 73659_MaslinicAcid.pdbqt.pdb
REMARK  4 active torsions:
REMARK  status: ('A' for Active; 'I' for Inactive)
REMARK    1  A    between atoms: C_14  and  C_35
REMARK    2  A    between atoms: C_17  and  O_30
REMARK    3  A    between atoms: C_19  and  O_32
REMARK    4  A    between atoms: C_35  and  O_36
REMARK                            x       y       z     vdW  Elec       q    Type
REMARK                         _______ _______ _______ _____ _____    ______ ____
ROOT
ATOM      1  C   UNL     1      16.762  12.586  60.091  0.00  0.00    +0.000 C 
ATOM      2  C   UNL     1      15.311  11.941  60.120  0.00  0.00    +0.000 C 
ATOM      3  C   UNL     1      14.036  12.715  59.771  0.00  0.00    +0.000 C 
ATOM      4  C   UNL     1      17.700  12.074  61.355  0.00  0.00    +0.000 C 
ATOM      5  C   UNL     1      14.006  14.210  60.109  0.00  0.00    +0.000 C 
ATOM      6  C   UNL     1      16.539  14.035  60.143  0.00  0.00    +0.000 C 
ATOM      7  C   UNL     1      15.280  14.838  60.153  0.00  0.00    +0.000 C 
ATOM      8  C   UNL     1      17.668  10.458  61.526  0.00  0.00    +0.000 C 
ATOM      9  C   UNL     1      12.697  14.873  60.511  0.00  0.00    +0.000 C 
ATOM     10  C   UNL     1      18.849   9.614  61.810  0.00  0.00    +0.000 C 
ATOM     11  C   UNL     1      15.330  10.586  60.581  0.00  0.00    +0.000 C 
ATOM     12  C   UNL     1      12.907  12.167  60.505  0.00  0.00    +0.000 C 
ATOM     13  C   UNL     1      19.133  12.375  61.182  0.00  0.00    +0.000 C 
ATOM     14  C   UNL     1      20.376  10.007  61.320  0.00  0.00    +0.000 C 
ATOM     15  C   UNL     1      17.404  12.191  58.699  0.00  0.00    +0.000 C 
ATOM     16  C   UNL     1      20.339  11.464  61.195  0.00  0.00    +0.000 C 
ATOM     17  C   UNL     1      11.521  13.976  60.974  0.00  0.00    +0.000 C 
ATOM     18  C   UNL     1      13.805  12.573  58.248  0.00  0.00    +0.000 C 
ATOM     19  C   UNL     1      11.718  12.572  61.102  0.00  0.00    +0.000 C 
ATOM     20  C   UNL     1      16.514   9.929  61.230  0.00  0.00    +0.000 C 
ATOM     21  C   UNL     1      17.194  12.649  62.747  0.00  0.00    +0.000 C 
ATOM     22  C   UNL     1      18.793   8.717  62.963  0.00  0.00    +0.000 C 
ATOM     23  C   UNL     1      21.249   9.470  62.398  0.00  0.00    +0.000 C 
ATOM     24  C   UNL     1      19.605   8.051  64.051  0.00  0.00    +0.000 C 
ATOM     25  C   UNL     1      12.971  15.811  61.738  0.00  0.00    +0.000 C 
ATOM     26  C   UNL     1      12.180  15.746  59.331  0.00  0.00    +0.000 C 
ATOM     27  C   UNL     1      20.944   8.574  63.626  0.00  0.00    +0.000 C 
ATOM     28  C   UNL     1      19.529   6.517  63.952  0.00  0.00    +0.000 C 
ATOM     29  C   UNL     1      19.203   8.572  65.443  0.00  0.00    +0.000 C 
ENDROOT
BRANCH  17  30
ATOM     30  O   UNL     1      10.247  14.461  61.259  0.00  0.00    +0.000 OA
ATOM     31  H   UNL     1      10.174  14.733  62.198  0.00  0.00    +0.000 HD
ENDBRANCH  17  30
BRANCH  19  32
ATOM     32  O   UNL     1      10.665  11.737  61.325  0.00  0.00    +0.000 OA
ATOM     33  H   UNL     1      10.689  11.377  62.233  0.00  0.00    +0.000 HD
ENDBRANCH  19  32
BRANCH  14  35
ATOM     34  O   UNL     1      20.521   9.770  58.872  0.00  0.00    +0.000 OA
ATOM     35  C   UNL     1      20.637   9.288  59.991  0.00  0.00    +0.000 C 
BRANCH  35  36
ATOM     36  O   UNL     1      20.958   7.981  60.120  0.00  0.00    +0.000 OA
ATOM     37  H   UNL     1      20.728   7.575  59.256  0.00  0.00    +0.000 HD
ENDBRANCH  35  36
ENDBRANCH  14  35
TORSDOF 4
ENDMDL
MODEL 7
REMARK VINA RESULT:      -4.6      8.475     10.764
REMARK  Name = 73659_MaslinicAcid.pdbqt.pdb
REMARK  4 active torsions:
REMARK  status: ('A' for Active; 'I' for Inactive)
REMARK    1  A    between atoms: C_14  and  C_35
REMARK    2  A    between atoms: C_17  and  O_30
REMARK    3  A    between atoms: C_19  and  O_32
REMARK    4  A    between atoms: C_35  and  O_36
REMARK                            x       y       z     vdW  Elec       q    Type
REMARK                         _______ _______ _______ _____ _____    ______ ____
ROOT
ATOM      1  C   UNL     1      14.944  13.804  59.133  0.00  0.00    +0.000 C 
ATOM      2  C   UNL     1      15.696  12.759  60.065  0.00  0.00    +0.000 C 
ATOM      3  C   UNL     1      17.091  12.208  59.759  0.00  0.00    +0.000 C 
ATOM      4  C   UNL     1      13.328  13.473  58.999  0.00  0.00    +0.000 C 
ATOM      5  C   UNL     1      17.475  12.040  58.284  0.00  0.00    +0.000 C 
ATOM      6  C   UNL     1      15.618  13.713  57.834  0.00  0.00    +0.000 C 
ATOM      7  C   UNL     1      16.796  12.910  57.389  0.00  0.00    +0.000 C 
ATOM      8  C   UNL     1      12.634  13.217  60.446  0.00  0.00    +0.000 C 
ATOM      9  C   UNL     1      18.397  10.907  57.861  0.00  0.00    +0.000 C 
ATOM     10  C   UNL     1      11.316  13.748  60.858  0.00  0.00    +0.000 C 
ATOM     11  C   UNL     1      14.889  12.341  61.170  0.00  0.00    +0.000 C 
ATOM     12  C   UNL     1      17.227  10.869  60.310  0.00  0.00    +0.000 C 
ATOM     13  C   UNL     1      12.546  14.588  58.433  0.00  0.00    +0.000 C 
ATOM     14  C   UNL     1      10.695  15.165  60.281  0.00  0.00    +0.000 C 
ATOM     15  C   UNL     1      15.191  15.233  59.767  0.00  0.00    +0.000 C 
ATOM     16  C   UNL     1      11.350  15.330  58.984  0.00  0.00    +0.000 C 
ATOM     17  C   UNL     1      18.597   9.712  58.827  0.00  0.00    +0.000 C 
ATOM     18  C   UNL     1      18.123  13.161  60.407  0.00  0.00    +0.000 C 
ATOM     19  C   UNL     1      17.849   9.656  60.038  0.00  0.00    +0.000 C 
ATOM     20  C   UNL     1      13.418  12.619  61.298  0.00  0.00    +0.000 C 
ATOM     21  C   UNL     1      13.056  12.148  58.166  0.00  0.00    +0.000 C 
ATOM     22  C   UNL     1      10.315  12.802  61.350  0.00  0.00    +0.000 C 
ATOM     23  C   UNL     1       9.228  14.925  60.242  0.00  0.00    +0.000 C 
ATOM     24  C   UNL     1       8.835  12.505  61.440  0.00  0.00    +0.000 C 
ATOM     25  C   UNL     1      17.817  10.254  56.558  0.00  0.00    +0.000 C 
ATOM     26  C   UNL     1      19.804  11.484  57.537  0.00  0.00    +0.000 C 
ATOM     27  C   UNL     1       8.356  13.756  60.769  0.00  0.00    +0.000 C 
ATOM     28  C   UNL     1       8.366  12.423  62.904  0.00  0.00    +0.000 C 
ATOM     29  C   UNL     1       8.470  11.246  60.633  0.00  0.00    +0.000 C 
ENDROOT
BRANCH  17  30
ATOM     30  O   UNL     1      19.498   8.675  58.596  0.00  0.00    +0.000 OA
ATOM     31  H   UNL     1      20.313   9.006  58.164  0.00  0.00    +0.000 HD
ENDBRANCH  17  30
BRANCH  19  32
ATOM     32  O   UNL     1      18.132   8.724  60.990  0.00  0.00    +0.000 OA
ATOM     33  H   UNL     1      17.815   9.012  61.868  0.00  0.00    +0.000 HD
ENDBRANCH  19  32
BRANCH  14  35
ATOM     34  O   UNL     1      12.101  16.888  61.343  0.00  0.00    +0.000 OA
ATOM     35  C   UNL     1      11.047  16.268  61.286  0.00  0.00    +0.000 C 
BRANCH  35  36
ATOM     36  O   UNL     1      10.094  16.495  62.218  0.00  0.00    +0.000 OA
ATOM     37  H   UNL     1       9.410  17.031  61.759  0.00  0.00    +0.000 HD
ENDBRANCH  35  36
ENDBRANCH  14  35
TORSDOF 4
ENDMDL
MODEL 8
REMARK VINA RESULT:      -4.5      7.604     11.956
REMARK  Name = 73659_MaslinicAcid.pdbqt.pdb
REMARK  4 active torsions:
REMARK  status: ('A' for Active; 'I' for Inactive)
REMARK    1  A    between atoms: C_14  and  C_35
REMARK    2  A    between atoms: C_17  and  O_30
REMARK    3  A    between atoms: C_19  and  O_32
REMARK    4  A    between atoms: C_35  and  O_36
REMARK                            x       y       z     vdW  Elec       q    Type
REMARK                         _______ _______ _______ _____ _____    ______ ____
ROOT
ATOM      1  C   UNL     1       2.006   1.769  65.318  0.00  0.00    +0.000 C 
ATOM      2  C   UNL     1       1.991   2.778  66.545  0.00  0.00    +0.000 C 
ATOM      3  C   UNL     1       1.290   4.139  66.510  0.00  0.00    +0.000 C 
ATOM      4  C   UNL     1       3.474   1.027  65.135  0.00  0.00    +0.000 C 
ATOM      5  C   UNL     1       1.244   4.873  65.165  0.00  0.00    +0.000 C 
ATOM      6  C   UNL     1       1.669   2.586  64.147  0.00  0.00    +0.000 C 
ATOM      7  C   UNL     1       1.308   4.029  64.023  0.00  0.00    +0.000 C 
ATOM      8  C   UNL     1       4.030   0.417  66.534  0.00  0.00    +0.000 C 
ATOM      9  C   UNL     1       1.285   6.393  65.125  0.00  0.00    +0.000 C 
ATOM     10  C   UNL     1       4.673  -0.907  66.683  0.00  0.00    +0.000 C 
ATOM     11  C   UNL     1       2.769   2.300  67.647  0.00  0.00    +0.000 C 
ATOM     12  C   UNL     1       1.973   5.071  67.393  0.00  0.00    +0.000 C 
ATOM     13  C   UNL     1       3.432  -0.143  64.239  0.00  0.00    +0.000 C 
ATOM     14  C   UNL     1       4.318  -2.195  65.714  0.00  0.00    +0.000 C 
ATOM     15  C   UNL     1       0.856   0.716  65.586  0.00  0.00    +0.000 C 
ATOM     16  C   UNL     1       3.835  -1.580  64.478  0.00  0.00    +0.000 C 
ATOM     17  C   UNL     1       1.788   7.156  66.377  0.00  0.00    +0.000 C 
ATOM     18  C   UNL     1      -0.168   3.926  66.980  0.00  0.00    +0.000 C 
ATOM     19  C   UNL     1       2.282   6.423  67.493  0.00  0.00    +0.000 C 
ATOM     20  C   UNL     1       3.717   1.137  67.574  0.00  0.00    +0.000 C 
ATOM     21  C   UNL     1       4.598   2.039  64.646  0.00  0.00    +0.000 C 
ATOM     22  C   UNL     1       5.992  -0.965  67.312  0.00  0.00    +0.000 C 
ATOM     23  C   UNL     1       5.605  -2.934  65.611  0.00  0.00    +0.000 C 
ATOM     24  C   UNL     1       7.311  -1.702  67.348  0.00  0.00    +0.000 C 
ATOM     25  C   UNL     1       2.271   6.834  63.986  0.00  0.00    +0.000 C 
ATOM     26  C   UNL     1      -0.132   6.937  64.786  0.00  0.00    +0.000 C 
ATOM     27  C   UNL     1       6.961  -2.756  66.342  0.00  0.00    +0.000 C 
ATOM     28  C   UNL     1       7.583  -2.303  68.739  0.00  0.00    +0.000 C 
ATOM     29  C   UNL     1       8.464  -0.805  66.860  0.00  0.00    +0.000 C 
ENDROOT
BRANCH  17  30
ATOM     30  O   UNL     1       1.766   8.543  66.495  0.00  0.00    +0.000 OA
ATOM     31  H   UNL     1       2.380   8.962  65.857  0.00  0.00    +0.000 HD
ENDBRANCH  17  30
BRANCH  19  32
ATOM     32  O   UNL     1       2.556   7.048  68.672  0.00  0.00    +0.000 OA
ATOM     33  H   UNL     1       3.404   6.738  69.045  0.00  0.00    +0.000 HD
ENDBRANCH  19  32
BRANCH  14  35
ATOM     34  O   UNL     1       2.287  -2.610  67.046  0.00  0.00    +0.000 OA
ATOM     35  C   UNL     1       3.255  -3.037  66.431  0.00  0.00    +0.000 C 
BRANCH  35  36
ATOM     36  O   UNL     1       3.492  -4.368  66.408  0.00  0.00    +0.000 OA
ATOM     37  H   UNL     1       3.914  -4.536  65.537  0.00  0.00    +0.000 HD
ENDBRANCH  35  36
ENDBRANCH  14  35
TORSDOF 4
ENDMDL
MODEL 9
REMARK VINA RESULT:      -4.5      2.435      8.394
REMARK  Name = 73659_MaslinicAcid.pdbqt.pdb
REMARK  4 active torsions:
REMARK  status: ('A' for Active; 'I' for Inactive)
REMARK    1  A    between atoms: C_14  and  C_35
REMARK    2  A    between atoms: C_17  and  O_30
REMARK    3  A    between atoms: C_19  and  O_32
REMARK    4  A    between atoms: C_35  and  O_36
REMARK                            x       y       z     vdW  Elec       q    Type
REMARK                         _______ _______ _______ _____ _____    ______ ____
ROOT
ATOM      1  C   UNL     1       4.892   9.129  60.433  0.00  0.00    +0.000 C 
ATOM      2  C   UNL     1       3.353   8.797  60.645  0.00  0.00    +0.000 C 
ATOM      3  C   UNL     1       2.389   9.711  61.408  0.00  0.00    +0.000 C 
ATOM      4  C   UNL     1       5.849   7.787  60.586  0.00  0.00    +0.000 C 
ATOM      5  C   UNL     1       2.965  10.527  62.571  0.00  0.00    +0.000 C 
ATOM      6  C   UNL     1       5.211  10.133  61.455  0.00  0.00    +0.000 C 
ATOM      7  C   UNL     1       4.353  10.813  62.470  0.00  0.00    +0.000 C 
ATOM      8  C   UNL     1       5.288   6.534  59.716  0.00  0.00    +0.000 C 
ATOM      9  C   UNL     1       2.101  10.838  63.784  0.00  0.00    +0.000 C 
ATOM     10  C   UNL     1       6.128   5.625  58.905  0.00  0.00    +0.000 C 
ATOM     11  C   UNL     1       2.997   7.518  60.111  0.00  0.00    +0.000 C 
ATOM     12  C   UNL     1       1.337   8.919  62.023  0.00  0.00    +0.000 C 
ATOM     13  C   UNL     1       7.217   7.981  60.073  0.00  0.00    +0.000 C 
ATOM     14  C   UNL     1       7.542   6.097  58.197  0.00  0.00    +0.000 C 
ATOM     15  C   UNL     1       5.021   9.770  58.992  0.00  0.00    +0.000 C 
ATOM     16  C   UNL     1       7.994   7.213  59.027  0.00  0.00    +0.000 C 
ATOM     17  C   UNL     1       0.822   9.996  64.021  0.00  0.00    +0.000 C 
ATOM     18  C   UNL     1       1.785  10.707  60.389  0.00  0.00    +0.000 C 
ATOM     19  C   UNL     1       0.534   8.899  63.158  0.00  0.00    +0.000 C 
ATOM     20  C   UNL     1       3.988   6.483  59.660  0.00  0.00    +0.000 C 
ATOM     21  C   UNL     1       5.906   7.261  62.084  0.00  0.00    +0.000 C 
ATOM     22  C   UNL     1       6.021   4.188  59.149  0.00  0.00    +0.000 C 
ATOM     23  C   UNL     1       8.390   4.875  58.235  0.00  0.00    +0.000 C 
ATOM     24  C   UNL     1       6.770   2.874  59.139  0.00  0.00    +0.000 C 
ATOM     25  C   UNL     1       2.958  10.606  65.078  0.00  0.00    +0.000 C 
ATOM     26  C   UNL     1       1.673  12.333  63.740  0.00  0.00    +0.000 C 
ATOM     27  C   UNL     1       8.074   3.410  58.632  0.00  0.00    +0.000 C 
ATOM     28  C   UNL     1       6.138   1.873  58.156  0.00  0.00    +0.000 C 
ATOM     29  C   UNL     1       6.903   2.299  60.562  0.00  0.00    +0.000 C 
ENDROOT
BRANCH  17  30
ATOM     30  O   UNL     1      -0.100  10.260  65.030  0.00  0.00    +0.000 OA
ATOM     31  H   UNL     1      -1.019  10.153  64.707  0.00  0.00    +0.000 HD
ENDBRANCH  17  30
BRANCH  19  32
ATOM     32  O   UNL     1      -0.666   8.258  63.222  0.00  0.00    +0.000 OA
ATOM     33  H   UNL     1      -0.571   7.313  62.992  0.00  0.00    +0.000 HD
ENDBRANCH  19  32
BRANCH  14  35
ATOM     34  O   UNL     1       7.455   5.843  55.747  0.00  0.00    +0.000 OA
ATOM     35  C   UNL     1       7.226   6.503  56.752  0.00  0.00    +0.000 C 
BRANCH  35  36
ATOM     36  O   UNL     1       6.705   7.744  56.626  0.00  0.00    +0.000 OA
ATOM     37  H   UNL     1       7.079   8.255  57.377  0.00  0.00    +0.000 HD
ENDBRANCH  35  36
ENDBRANCH  14  35
TORSDOF 4
ENDMDL
