MODEL 1
REMARK VINA RESULT:      -2.7      0.000      0.000
REMARK  Name = 76617_Cardol.pdbqt.pdb
REMARK  10 active torsions:
REMARK  status: ('A' for Active; 'I' for Inactive)
REMARK    1  A    between atoms: C_1  and  C_2
REMARK    2  A    between atoms: C_3  and  C_4
REMARK    3  A    between atoms: C_5  and  C_6
REMARK    4  A    between atoms: C_7  and  C_8
REMARK    5  A    between atoms: C_8  and  C_9
REMARK    6  A    between atoms: C_10  and  C_11
REMARK    7  A    between atoms: C_14  and  C_15
REMARK    8  A    between atoms: C_15  and  C_16
REMARK    9  A    between atoms: C_19  and  O_24
REMARK   10  A    between atoms: C_20  and  O_22
REMARK                            x       y       z     vdW  Elec       q    Type
REMARK                         _______ _______ _______ _____ _____    ______ ____
ROOT
ATOM      1  C   UNL     1      15.500   2.980  69.678  0.00  0.00    +0.000 C 
ATOM      2  C   UNL     1      14.858   3.040  70.690  0.00  0.00    +0.000 C 
ENDROOT
BRANCH   1   3
ATOM      3  C   UNL     1      16.320   2.904  68.387  0.00  0.00    +0.000 C 
ATOM      4  C   UNL     1      17.141   2.827  67.095  0.00  0.00    +0.000 C 
BRANCH   4   5
ATOM      5  C   UNL     1      17.961   2.749  65.805  0.00  0.00    +0.000 C 
ATOM      6  C   UNL     1      18.782   2.670  64.515  0.00  0.00    +0.000 C 
BRANCH   6   7
ATOM      7  C   UNL     1      19.603   2.591  63.223  0.00  0.00    +0.000 C 
ATOM      8  C   UNL     1      20.424   2.512  61.933  0.00  0.00    +0.000 C 
BRANCH   8   9
ATOM      9  C   UNL     1      21.245   2.433  60.643  0.00  0.00    +0.000 C 
BRANCH   9  10
ATOM     10  C   UNL     1      22.066   2.353  59.352  0.00  0.00    +0.000 C 
ATOM     11  C   UNL     1      22.885   2.273  58.061  0.00  0.00    +0.000 C 
BRANCH  11  12
ATOM     12  C   UNL     1      23.705   2.192  56.769  0.00  0.00    +0.000 C 
ATOM     13  C   UNL     1      24.526   2.113  55.479  0.00  0.00    +0.000 C 
ATOM     14  C   UNL     1      25.347   2.032  54.188  0.00  0.00    +0.000 C 
ENDBRANCH  11  12
ENDBRANCH   9  10
ENDBRANCH   8   9
ENDBRANCH   6   7
ENDBRANCH   4   5
ENDBRANCH   1   3
BRANCH   2  15
ATOM     15  C   UNL     1      14.038   3.118  71.982  0.00  0.00    +0.000 C 
BRANCH  15  16
ATOM     16  C   UNL     1      13.276   3.191  73.183  0.00  0.00    +0.000 A 
ATOM     17  C   UNL     1      13.138   4.409  73.845  0.00  0.00    +0.000 A 
ATOM     18  C   UNL     1      12.670   2.043  73.690  0.00  0.00    +0.000 A 
ATOM     19  C   UNL     1      11.926   2.124  74.865  0.00  0.00    +0.000 A 
ATOM     20  C   UNL     1      12.390   4.470  75.018  0.00  0.00    +0.000 A 
ATOM     21  C   UNL     1      11.779   3.333  75.538  0.00  0.00    +0.000 A 
BRANCH  20  22
ATOM     22  O   UNL     1      12.240   5.652  75.685  0.00  0.00    +0.000 OA
ATOM     23  H   UNL     1      12.530   5.525  76.605  0.00  0.00    +0.000 HD
ENDBRANCH  20  22
BRANCH  19  24
ATOM     24  O   UNL     1      11.323   1.015  75.384  0.00  0.00    +0.000 OA
ATOM     25  H   UNL     1      11.696   0.230  74.946  0.00  0.00    +0.000 HD
ENDBRANCH  19  24
ENDBRANCH  15  16
ENDBRANCH   2  15
TORSDOF 10
ENDMDL
MODEL 2
REMARK VINA RESULT:      -2.6     13.934     15.807
REMARK  Name = 76617_Cardol.pdbqt.pdb
REMARK  10 active torsions:
REMARK  status: ('A' for Active; 'I' for Inactive)
REMARK    1  A    between atoms: C_1  and  C_2
REMARK    2  A    between atoms: C_3  and  C_4
REMARK    3  A    between atoms: C_5  and  C_6
REMARK    4  A    between atoms: C_7  and  C_8
REMARK    5  A    between atoms: C_8  and  C_9
REMARK    6  A    between atoms: C_10  and  C_11
REMARK    7  A    between atoms: C_14  and  C_15
REMARK    8  A    between atoms: C_15  and  C_16
REMARK    9  A    between atoms: C_19  and  O_24
REMARK   10  A    between atoms: C_20  and  O_22
REMARK                            x       y       z     vdW  Elec       q    Type
REMARK                         _______ _______ _______ _____ _____    ______ ____
ROOT
ATOM      1  C   UNL     1      13.609  12.177  56.908  0.00  0.00    +0.000 C 
ATOM      2  C   UNL     1      13.010  12.327  57.937  0.00  0.00    +0.000 C 
ENDROOT
BRANCH   1   3
ATOM      3  C   UNL     1      14.372  11.987  55.594  0.00  0.00    +0.000 C 
ATOM      4  C   UNL     1      15.136  11.797  54.279  0.00  0.00    +0.000 C 
BRANCH   4   5
ATOM      5  C   UNL     1      15.901  11.608  52.966  0.00  0.00    +0.000 C 
ATOM      6  C   UNL     1      16.664  11.419  51.653  0.00  0.00    +0.000 C 
BRANCH   6   7
ATOM      7  C   UNL     1      17.429  11.230  50.338  0.00  0.00    +0.000 C 
ATOM      8  C   UNL     1      18.192  11.041  49.024  0.00  0.00    +0.000 C 
BRANCH   8   9
ATOM      9  C   UNL     1      18.955  10.852  47.710  0.00  0.00    +0.000 C 
BRANCH   9  10
ATOM     10  C   UNL     1      19.719  10.663  46.396  0.00  0.00    +0.000 C 
ATOM     11  C   UNL     1      20.484  10.475  45.083  0.00  0.00    +0.000 C 
BRANCH  11  12
ATOM     12  C   UNL     1      21.249  10.287  43.769  0.00  0.00    +0.000 C 
ATOM     13  C   UNL     1      22.013  10.098  42.455  0.00  0.00    +0.000 C 
ATOM     14  C   UNL     1      22.778   9.910  41.141  0.00  0.00    +0.000 C 
ENDBRANCH  11  12
ENDBRANCH   9  10
ENDBRANCH   8   9
ENDBRANCH   6   7
ENDBRANCH   4   5
ENDBRANCH   1   3
BRANCH   2  15
ATOM     15  C   UNL     1      12.247  12.518  59.252  0.00  0.00    +0.000 C 
BRANCH  15  16
ATOM     16  C   UNL     1      11.537  12.695  60.474  0.00  0.00    +0.000 A 
ATOM     17  C   UNL     1      12.082  13.482  61.486  0.00  0.00    +0.000 A 
ATOM     18  C   UNL     1      10.299  12.080  60.651  0.00  0.00    +0.000 A 
ATOM     19  C   UNL     1       9.611  12.259  61.849  0.00  0.00    +0.000 A 
ATOM     20  C   UNL     1      11.379  13.649  62.676  0.00  0.00    +0.000 A 
ATOM     21  C   UNL     1      10.143  13.042  62.869  0.00  0.00    +0.000 A 
BRANCH  20  22
ATOM     22  O   UNL     1      11.892  14.416  63.683  0.00  0.00    +0.000 OA
ATOM     23  H   UNL     1      11.495  14.126  64.523  0.00  0.00    +0.000 HD
ENDBRANCH  20  22
BRANCH  19  24
ATOM     24  O   UNL     1       8.397  11.667  62.049  0.00  0.00    +0.000 OA
ATOM     25  H   UNL     1       7.703  12.294  61.779  0.00  0.00    +0.000 HD
ENDBRANCH  19  24
ENDBRANCH  15  16
ENDBRANCH   2  15
TORSDOF 10
ENDMDL
MODEL 3
REMARK VINA RESULT:      -2.6      5.751     17.079
REMARK  Name = 76617_Cardol.pdbqt.pdb
REMARK  10 active torsions:
REMARK  status: ('A' for Active; 'I' for Inactive)
REMARK    1  A    between atoms: C_1  and  C_2
REMARK    2  A    between atoms: C_3  and  C_4
REMARK    3  A    between atoms: C_5  and  C_6
REMARK    4  A    between atoms: C_7  and  C_8
REMARK    5  A    between atoms: C_8  and  C_9
REMARK    6  A    between atoms: C_10  and  C_11
REMARK    7  A    between atoms: C_14  and  C_15
REMARK    8  A    between atoms: C_15  and  C_16
REMARK    9  A    between atoms: C_19  and  O_24
REMARK   10  A    between atoms: C_20  and  O_22
REMARK                            x       y       z     vdW  Elec       q    Type
REMARK                         _______ _______ _______ _____ _____    ______ ____
ROOT
ATOM      1  C   UNL     1      17.154   2.813  67.119  0.00  0.00    +0.000 C 
ATOM      2  C   UNL     1      17.830   2.879  66.129  0.00  0.00    +0.000 C 
ENDROOT
BRANCH   1   3
ATOM      3  C   UNL     1      16.292   2.729  68.381  0.00  0.00    +0.000 C 
ATOM      4  C   UNL     1      15.428   2.644  69.644  0.00  0.00    +0.000 C 
BRANCH   4   5
ATOM      5  C   UNL     1      14.566   2.558  70.906  0.00  0.00    +0.000 C 
ATOM      6  C   UNL     1      13.704   2.471  72.169  0.00  0.00    +0.000 C 
BRANCH   6   7
ATOM      7  C   UNL     1      12.842   2.385  73.433  0.00  0.00    +0.000 C 
ATOM      8  C   UNL     1      11.981   2.300  74.696  0.00  0.00    +0.000 C 
BRANCH   8   9
ATOM      9  C   UNL     1      11.119   2.214  75.959  0.00  0.00    +0.000 C 
BRANCH   9  10
ATOM     10  C   UNL     1      10.259   2.129  77.224  0.00  0.00    +0.000 C 
ATOM     11  C   UNL     1       9.397   2.044  78.487  0.00  0.00    +0.000 C 
BRANCH  11  12
ATOM     12  C   UNL     1       8.536   1.960  79.751  0.00  0.00    +0.000 C 
ATOM     13  C   UNL     1       7.675   1.877  81.015  0.00  0.00    +0.000 C 
ATOM     14  C   UNL     1       6.813   1.793  82.279  0.00  0.00    +0.000 C 
ENDBRANCH  11  12
ENDBRANCH   9  10
ENDBRANCH   8   9
ENDBRANCH   6   7
ENDBRANCH   4   5
ENDBRANCH   1   3
BRANCH   2  15
ATOM     15  C   UNL     1      18.694   2.962  64.866  0.00  0.00    +0.000 C 
BRANCH  15  16
ATOM     16  C   UNL     1      19.496   3.040  63.692  0.00  0.00    +0.000 A 
ATOM     17  C   UNL     1      19.418   2.036  62.729  0.00  0.00    +0.000 A 
ATOM     18  C   UNL     1      20.356   4.122  63.512  0.00  0.00    +0.000 A 
ATOM     19  C   UNL     1      21.137   4.189  62.361  0.00  0.00    +0.000 A 
ATOM     20  C   UNL     1      20.207   2.122  61.585  0.00  0.00    +0.000 A 
ATOM     21  C   UNL     1      21.071   3.194  61.390  0.00  0.00    +0.000 A 
BRANCH  20  22
ATOM     22  O   UNL     1      20.149   1.151  60.628  0.00  0.00    +0.000 OA
ATOM     23  H   UNL     1      20.903   0.550  60.753  0.00  0.00    +0.000 HD
ENDBRANCH  20  22
BRANCH  19  24
ATOM     24  O   UNL     1      21.989   5.238  62.159  0.00  0.00    +0.000 OA
ATOM     25  H   UNL     1      21.679   5.740  61.385  0.00  0.00    +0.000 HD
ENDBRANCH  19  24
ENDBRANCH  15  16
ENDBRANCH   2  15
TORSDOF 10
ENDMDL
MODEL 4
REMARK VINA RESULT:      -2.5     11.974     12.244
REMARK  Name = 76617_Cardol.pdbqt.pdb
REMARK  10 active torsions:
REMARK  status: ('A' for Active; 'I' for Inactive)
REMARK    1  A    between atoms: C_1  and  C_2
REMARK    2  A    between atoms: C_3  and  C_4
REMARK    3  A    between atoms: C_5  and  C_6
REMARK    4  A    between atoms: C_7  and  C_8
REMARK    5  A    between atoms: C_8  and  C_9
REMARK    6  A    between atoms: C_10  and  C_11
REMARK    7  A    between atoms: C_14  and  C_15
REMARK    8  A    between atoms: C_15  and  C_16
REMARK    9  A    between atoms: C_19  and  O_24
REMARK   10  A    between atoms: C_20  and  O_22
REMARK                            x       y       z     vdW  Elec       q    Type
REMARK                         _______ _______ _______ _____ _____    ______ ____
ROOT
ATOM      1  C   UNL     1      15.448  11.326  60.289  0.00  0.00    +0.000 C 
ATOM      2  C   UNL     1      14.481  11.859  60.757  0.00  0.00    +0.000 C 
ENDROOT
BRANCH   1   3
ATOM      3  C   UNL     1      16.683  10.645  59.691  0.00  0.00    +0.000 C 
ATOM      4  C   UNL     1      17.918   9.962  59.093  0.00  0.00    +0.000 C 
BRANCH   4   5
ATOM      5  C   UNL     1      19.151   9.280  58.495  0.00  0.00    +0.000 C 
ATOM      6  C   UNL     1      20.384   8.598  57.895  0.00  0.00    +0.000 C 
BRANCH   6   7
ATOM      7  C   UNL     1      21.618   7.916  57.295  0.00  0.00    +0.000 C 
ATOM      8  C   UNL     1      22.851   7.234  56.697  0.00  0.00    +0.000 C 
BRANCH   8   9
ATOM      9  C   UNL     1      24.085   6.553  56.098  0.00  0.00    +0.000 C 
BRANCH   9  10
ATOM     10  C   UNL     1      25.319   5.872  55.498  0.00  0.00    +0.000 C 
ATOM     11  C   UNL     1      26.552   5.190  54.898  0.00  0.00    +0.000 C 
BRANCH  11  12
ATOM     12  C   UNL     1      27.787   4.509  54.299  0.00  0.00    +0.000 C 
ATOM     13  C   UNL     1      29.021   3.828  53.699  0.00  0.00    +0.000 C 
ATOM     14  C   UNL     1      30.255   3.147  53.100  0.00  0.00    +0.000 C 
ENDBRANCH  11  12
ENDBRANCH   9  10
ENDBRANCH   8   9
ENDBRANCH   6   7
ENDBRANCH   4   5
ENDBRANCH   1   3
BRANCH   2  15
ATOM     15  C   UNL     1      13.246  12.540  61.356  0.00  0.00    +0.000 C 
BRANCH  15  16
ATOM     16  C   UNL     1      12.098  13.173  61.913  0.00  0.00    +0.000 A 
ATOM     17  C   UNL     1      10.838  12.604  61.738  0.00  0.00    +0.000 A 
ATOM     18  C   UNL     1      12.240  14.359  62.631  0.00  0.00    +0.000 A 
ATOM     19  C   UNL     1      11.111  14.970  63.172  0.00  0.00    +0.000 A 
ATOM     20  C   UNL     1       9.722  13.231  62.287  0.00  0.00    +0.000 A 
ATOM     21  C   UNL     1       9.847  14.415  63.006  0.00  0.00    +0.000 A 
BRANCH  20  22
ATOM     22  O   UNL     1       8.477  12.693  62.130  0.00  0.00    +0.000 OA
ATOM     23  H   UNL     1       8.554  11.896  61.577  0.00  0.00    +0.000 HD
ENDBRANCH  20  22
BRANCH  19  24
ATOM     24  O   UNL     1      11.223  16.133  63.879  0.00  0.00    +0.000 OA
ATOM     25  H   UNL     1      10.559  16.123  64.591  0.00  0.00    +0.000 HD
ENDBRANCH  19  24
ENDBRANCH  15  16
ENDBRANCH   2  15
TORSDOF 10
ENDMDL
MODEL 5
REMARK VINA RESULT:      -2.5      6.016     17.159
REMARK  Name = 76617_Cardol.pdbqt.pdb
REMARK  10 active torsions:
REMARK  status: ('A' for Active; 'I' for Inactive)
REMARK    1  A    between atoms: C_1  and  C_2
REMARK    2  A    between atoms: C_3  and  C_4
REMARK    3  A    between atoms: C_5  and  C_6
REMARK    4  A    between atoms: C_7  and  C_8
REMARK    5  A    between atoms: C_8  and  C_9
REMARK    6  A    between atoms: C_10  and  C_11
REMARK    7  A    between atoms: C_14  and  C_15
REMARK    8  A    between atoms: C_15  and  C_16
REMARK    9  A    between atoms: C_19  and  O_24
REMARK   10  A    between atoms: C_20  and  O_22
REMARK                            x       y       z     vdW  Elec       q    Type
REMARK                         _______ _______ _______ _____ _____    ______ ____
ROOT
ATOM      1  C   UNL     1      17.059   1.130  66.983  0.00  0.00    +0.000 C 
ATOM      2  C   UNL     1      17.772   1.145  66.018  0.00  0.00    +0.000 C 
ENDROOT
BRANCH   1   3
ATOM      3  C   UNL     1      16.149   1.113  68.214  0.00  0.00    +0.000 C 
ATOM      4  C   UNL     1      15.238   1.094  69.446  0.00  0.00    +0.000 C 
BRANCH   4   5
ATOM      5  C   UNL     1      14.329   1.075  70.678  0.00  0.00    +0.000 C 
ATOM      6  C   UNL     1      13.420   1.058  71.911  0.00  0.00    +0.000 C 
BRANCH   6   7
ATOM      7  C   UNL     1      12.511   1.041  73.143  0.00  0.00    +0.000 C 
ATOM      8  C   UNL     1      11.601   1.024  74.375  0.00  0.00    +0.000 C 
BRANCH   8   9
ATOM      9  C   UNL     1      10.691   1.008  75.607  0.00  0.00    +0.000 C 
BRANCH   9  10
ATOM     10  C   UNL     1       9.782   0.990  76.839  0.00  0.00    +0.000 C 
ATOM     11  C   UNL     1       8.873   0.971  78.071  0.00  0.00    +0.000 C 
BRANCH  11  12
ATOM     12  C   UNL     1       7.963   0.952  79.304  0.00  0.00    +0.000 C 
ATOM     13  C   UNL     1       7.053   0.935  80.535  0.00  0.00    +0.000 C 
ATOM     14  C   UNL     1       6.143   0.916  81.768  0.00  0.00    +0.000 C 
ENDBRANCH  11  12
ENDBRANCH   9  10
ENDBRANCH   8   9
ENDBRANCH   6   7
ENDBRANCH   4   5
ENDBRANCH   1   3
BRANCH   2  15
ATOM     15  C   UNL     1      18.683   1.162  64.786  0.00  0.00    +0.000 C 
BRANCH  15  16
ATOM     16  C   UNL     1      19.530   1.176  63.640  0.00  0.00    +0.000 A 
ATOM     17  C   UNL     1      20.391   0.108  63.400  0.00  0.00    +0.000 A 
ATOM     18  C   UNL     1      19.492   2.260  62.765  0.00  0.00    +0.000 A 
ATOM     19  C   UNL     1      20.323   2.265  61.647  0.00  0.00    +0.000 A 
ATOM     20  C   UNL     1      21.214   0.132  62.276  0.00  0.00    +0.000 A 
ATOM     21  C   UNL     1      21.189   1.206  61.393  0.00  0.00    +0.000 A 
BRANCH  20  22
ATOM     22  O   UNL     1      22.067  -0.902  62.019  0.00  0.00    +0.000 OA
ATOM     23  H   UNL     1      22.101  -1.475  62.805  0.00  0.00    +0.000 HD
ENDBRANCH  20  22
BRANCH  19  24
ATOM     24  O   UNL     1      20.306   3.315  60.774  0.00  0.00    +0.000 OA
ATOM     25  H   UNL     1      21.136   3.812  60.877  0.00  0.00    +0.000 HD
ENDBRANCH  19  24
ENDBRANCH  15  16
ENDBRANCH   2  15
TORSDOF 10
ENDMDL
MODEL 6
REMARK VINA RESULT:      -2.5      6.439     16.756
REMARK  Name = 76617_Cardol.pdbqt.pdb
REMARK  10 active torsions:
REMARK  status: ('A' for Active; 'I' for Inactive)
REMARK    1  A    between atoms: C_1  and  C_2
REMARK    2  A    between atoms: C_3  and  C_4
REMARK    3  A    between atoms: C_5  and  C_6
REMARK    4  A    between atoms: C_7  and  C_8
REMARK    5  A    between atoms: C_8  and  C_9
REMARK    6  A    between atoms: C_10  and  C_11
REMARK    7  A    between atoms: C_14  and  C_15
REMARK    8  A    between atoms: C_15  and  C_16
REMARK    9  A    between atoms: C_19  and  O_24
REMARK   10  A    between atoms: C_20  and  O_22
REMARK                            x       y       z     vdW  Elec       q    Type
REMARK                         _______ _______ _______ _____ _____    ______ ____
ROOT
ATOM      1  C   UNL     1      16.306   3.977  68.494  0.00  0.00    +0.000 C 
ATOM      2  C   UNL     1      17.005   4.529  67.690  0.00  0.00    +0.000 C 
ENDROOT
BRANCH   1   3
ATOM      3  C   UNL     1      15.414   3.273  69.521  0.00  0.00    +0.000 C 
ATOM      4  C   UNL     1      14.520   2.568  70.547  0.00  0.00    +0.000 C 
BRANCH   4   5
ATOM      5  C   UNL     1      13.628   1.863  71.572  0.00  0.00    +0.000 C 
ATOM      6  C   UNL     1      12.734   1.158  72.597  0.00  0.00    +0.000 C 
BRANCH   6   7
ATOM      7  C   UNL     1      11.840   0.453  73.622  0.00  0.00    +0.000 C 
ATOM      8  C   UNL     1      10.946  -0.252  74.646  0.00  0.00    +0.000 C 
BRANCH   8   9
ATOM      9  C   UNL     1      10.052  -0.956  75.670  0.00  0.00    +0.000 C 
BRANCH   9  10
ATOM     10  C   UNL     1       9.157  -1.662  76.694  0.00  0.00    +0.000 C 
ATOM     11  C   UNL     1       8.262  -2.366  77.717  0.00  0.00    +0.000 C 
BRANCH  11  12
ATOM     12  C   UNL     1       7.367  -3.071  78.742  0.00  0.00    +0.000 C 
ATOM     13  C   UNL     1       6.472  -3.775  79.766  0.00  0.00    +0.000 C 
ATOM     14  C   UNL     1       5.577  -4.480  80.790  0.00  0.00    +0.000 C 
ENDBRANCH  11  12
ENDBRANCH   9  10
ENDBRANCH   8   9
ENDBRANCH   6   7
ENDBRANCH   4   5
ENDBRANCH   1   3
BRANCH   2  15
ATOM     15  C   UNL     1      17.897   5.234  66.663  0.00  0.00    +0.000 C 
BRANCH  15  16
ATOM     16  C   UNL     1      18.726   5.889  65.708  0.00  0.00    +0.000 A 
ATOM     17  C   UNL     1      19.191   5.190  64.596  0.00  0.00    +0.000 A 
ATOM     18  C   UNL     1      19.067   7.228  65.890  0.00  0.00    +0.000 A 
ATOM     19  C   UNL     1      19.878   7.861  64.951  0.00  0.00    +0.000 A 
ATOM     20  C   UNL     1      20.001   5.841  63.668  0.00  0.00    +0.000 A 
ATOM     21  C   UNL     1      20.351   7.177  63.836  0.00  0.00    +0.000 A 
BRANCH  20  22
ATOM     22  O   UNL     1      20.469   5.178  62.571  0.00  0.00    +0.000 OA
ATOM     23  H   UNL     1      21.406   4.960  62.720  0.00  0.00    +0.000 HD
ENDBRANCH  20  22
BRANCH  19  24
ATOM     24  O   UNL     1      20.228   9.172  65.105  0.00  0.00    +0.000 OA
ATOM     25  H   UNL     1      19.413   9.699  65.183  0.00  0.00    +0.000 HD
ENDBRANCH  19  24
ENDBRANCH  15  16
ENDBRANCH   2  15
TORSDOF 10
ENDMDL
MODEL 7
REMARK VINA RESULT:      -2.4      9.259     11.437
REMARK  Name = 76617_Cardol.pdbqt.pdb
REMARK  10 active torsions:
REMARK  status: ('A' for Active; 'I' for Inactive)
REMARK    1  A    between atoms: C_1  and  C_2
REMARK    2  A    between atoms: C_3  and  C_4
REMARK    3  A    between atoms: C_5  and  C_6
REMARK    4  A    between atoms: C_7  and  C_8
REMARK    5  A    between atoms: C_8  and  C_9
REMARK    6  A    between atoms: C_10  and  C_11
REMARK    7  A    between atoms: C_14  and  C_15
REMARK    8  A    between atoms: C_15  and  C_16
REMARK    9  A    between atoms: C_19  and  O_24
REMARK   10  A    between atoms: C_20  and  O_22
REMARK                            x       y       z     vdW  Elec       q    Type
REMARK                         _______ _______ _______ _____ _____    ______ ____
ROOT
ATOM      1  C   UNL     1      18.174   9.826  62.354  0.00  0.00    +0.000 C 
ATOM      2  C   UNL     1      18.162   9.941  63.549  0.00  0.00    +0.000 C 
ENDROOT
BRANCH   1   3
ATOM      3  C   UNL     1      18.188   9.680  60.830  0.00  0.00    +0.000 C 
ATOM      4  C   UNL     1      18.203   9.533  59.305  0.00  0.00    +0.000 C 
BRANCH   4   5
ATOM      5  C   UNL     1      18.217   9.385  57.781  0.00  0.00    +0.000 C 
ATOM      6  C   UNL     1      18.230   9.237  56.257  0.00  0.00    +0.000 C 
BRANCH   6   7
ATOM      7  C   UNL     1      18.243   9.088  54.732  0.00  0.00    +0.000 C 
ATOM      8  C   UNL     1      18.256   8.941  53.208  0.00  0.00    +0.000 C 
BRANCH   8   9
ATOM      9  C   UNL     1      18.269   8.794  51.684  0.00  0.00    +0.000 C 
BRANCH   9  10
ATOM     10  C   UNL     1      18.281   8.646  50.159  0.00  0.00    +0.000 C 
ATOM     11  C   UNL     1      18.293   8.496  48.635  0.00  0.00    +0.000 C 
BRANCH  11  12
ATOM     12  C   UNL     1      18.306   8.348  47.110  0.00  0.00    +0.000 C 
ATOM     13  C   UNL     1      18.319   8.198  45.586  0.00  0.00    +0.000 C 
ATOM     14  C   UNL     1      18.332   8.050  44.061  0.00  0.00    +0.000 C 
ENDBRANCH  11  12
ENDBRANCH   9  10
ENDBRANCH   8   9
ENDBRANCH   6   7
ENDBRANCH   4   5
ENDBRANCH   1   3
BRANCH   2  15
ATOM     15  C   UNL     1      18.149  10.087  65.074  0.00  0.00    +0.000 C 
BRANCH  15  16
ATOM     16  C   UNL     1      18.135  10.223  66.492  0.00  0.00    +0.000 A 
ATOM     17  C   UNL     1      17.349   9.370  67.264  0.00  0.00    +0.000 A 
ATOM     18  C   UNL     1      18.910  11.209  67.100  0.00  0.00    +0.000 A 
ATOM     19  C   UNL     1      18.890  11.335  68.487  0.00  0.00    +0.000 A 
ATOM     20  C   UNL     1      17.344   9.512  68.649  0.00  0.00    +0.000 A 
ATOM     21  C   UNL     1      18.110  10.491  69.272  0.00  0.00    +0.000 A 
BRANCH  20  22
ATOM     22  O   UNL     1      16.582   8.689  69.428  0.00  0.00    +0.000 OA
ATOM     23  H   UNL     1      15.897   8.283  68.868  0.00  0.00    +0.000 HD
ENDBRANCH  20  22
BRANCH  19  24
ATOM     24  O   UNL     1      19.639  12.293  69.109  0.00  0.00    +0.000 OA
ATOM     25  H   UNL     1      20.534  11.938  69.250  0.00  0.00    +0.000 HD
ENDBRANCH  19  24
ENDBRANCH  15  16
ENDBRANCH   2  15
TORSDOF 10
ENDMDL
MODEL 8
REMARK VINA RESULT:      -2.4     15.960     20.984
REMARK  Name = 76617_Cardol.pdbqt.pdb
REMARK  10 active torsions:
REMARK  status: ('A' for Active; 'I' for Inactive)
REMARK    1  A    between atoms: C_1  and  C_2
REMARK    2  A    between atoms: C_3  and  C_4
REMARK    3  A    between atoms: C_5  and  C_6
REMARK    4  A    between atoms: C_7  and  C_8
REMARK    5  A    between atoms: C_8  and  C_9
REMARK    6  A    between atoms: C_10  and  C_11
REMARK    7  A    between atoms: C_14  and  C_15
REMARK    8  A    between atoms: C_15  and  C_16
REMARK    9  A    between atoms: C_19  and  O_24
REMARK   10  A    between atoms: C_20  and  O_22
REMARK                            x       y       z     vdW  Elec       q    Type
REMARK                         _______ _______ _______ _____ _____    ______ ____
ROOT
ATOM      1  C   UNL     1      16.076   2.187  51.332  0.00  0.00    +0.000 C 
ATOM      2  C   UNL     1      16.876   1.881  52.172  0.00  0.00    +0.000 C 
ENDROOT
BRANCH   1   3
ATOM      3  C   UNL     1      15.055   2.579  50.261  0.00  0.00    +0.000 C 
ATOM      4  C   UNL     1      14.034   2.972  49.188  0.00  0.00    +0.000 C 
BRANCH   4   5
ATOM      5  C   UNL     1      13.014   3.363  48.115  0.00  0.00    +0.000 C 
ATOM      6  C   UNL     1      11.994   3.754  47.041  0.00  0.00    +0.000 C 
BRANCH   6   7
ATOM      7  C   UNL     1      10.974   4.146  45.967  0.00  0.00    +0.000 C 
ATOM      8  C   UNL     1       9.953   4.536  44.895  0.00  0.00    +0.000 C 
BRANCH   8   9
ATOM      9  C   UNL     1       8.933   4.927  43.822  0.00  0.00    +0.000 C 
BRANCH   9  10
ATOM     10  C   UNL     1       7.913   5.317  42.747  0.00  0.00    +0.000 C 
ATOM     11  C   UNL     1       6.893   5.705  41.673  0.00  0.00    +0.000 C 
BRANCH  11  12
ATOM     12  C   UNL     1       5.873   6.094  40.598  0.00  0.00    +0.000 C 
ATOM     13  C   UNL     1       4.854   6.484  39.524  0.00  0.00    +0.000 C 
ATOM     14  C   UNL     1       3.834   6.873  38.448  0.00  0.00    +0.000 C 
ENDBRANCH  11  12
ENDBRANCH   9  10
ENDBRANCH   8   9
ENDBRANCH   6   7
ENDBRANCH   4   5
ENDBRANCH   1   3
BRANCH   2  15
ATOM     15  C   UNL     1      17.899   1.489  53.244  0.00  0.00    +0.000 C 
BRANCH  15  16
ATOM     16  C   UNL     1      18.849   1.124  54.240  0.00  0.00    +0.000 A 
ATOM     17  C   UNL     1      20.081   1.773  54.295  0.00  0.00    +0.000 A 
ATOM     18  C   UNL     1      18.542   0.120  55.157  0.00  0.00    +0.000 A 
ATOM     19  C   UNL     1      19.477  -0.229  56.128  0.00  0.00    +0.000 A 
ATOM     20  C   UNL     1      21.003   1.410  55.274  0.00  0.00    +0.000 A 
ATOM     21  C   UNL     1      20.712   0.410  56.196  0.00  0.00    +0.000 A 
BRANCH  20  22
ATOM     22  O   UNL     1      22.216   2.031  55.349  0.00  0.00    +0.000 OA
ATOM     23  H   UNL     1      22.325   2.387  56.248  0.00  0.00    +0.000 HD
ENDBRANCH  20  22
BRANCH  19  24
ATOM     24  O   UNL     1      19.202  -1.209  57.037  0.00  0.00    +0.000 OA
ATOM     25  H   UNL     1      18.458  -1.739  56.700  0.00  0.00    +0.000 HD
ENDBRANCH  19  24
ENDBRANCH  15  16
ENDBRANCH   2  15
TORSDOF 10
ENDMDL
MODEL 9
REMARK VINA RESULT:      -2.3     15.112     20.555
REMARK  Name = 76617_Cardol.pdbqt.pdb
REMARK  10 active torsions:
REMARK  status: ('A' for Active; 'I' for Inactive)
REMARK    1  A    between atoms: C_1  and  C_2
REMARK    2  A    between atoms: C_3  and  C_4
REMARK    3  A    between atoms: C_5  and  C_6
REMARK    4  A    between atoms: C_7  and  C_8
REMARK    5  A    between atoms: C_8  and  C_9
REMARK    6  A    between atoms: C_10  and  C_11
REMARK    7  A    between atoms: C_14  and  C_15
REMARK    8  A    between atoms: C_15  and  C_16
REMARK    9  A    between atoms: C_19  and  O_24
REMARK   10  A    between atoms: C_20  and  O_22
REMARK                            x       y       z     vdW  Elec       q    Type
REMARK                         _______ _______ _______ _____ _____    ______ ____
ROOT
ATOM      1  C   UNL     1      13.551  12.199  61.005  0.00  0.00    +0.000 C 
ATOM      2  C   UNL     1      14.600  11.732  60.657  0.00  0.00    +0.000 C 
ENDROOT
BRANCH   1   3
ATOM      3  C   UNL     1      12.213  12.797  61.451  0.00  0.00    +0.000 C 
ATOM      4  C   UNL     1      10.874  13.394  61.897  0.00  0.00    +0.000 C 
BRANCH   4   5
ATOM      5  C   UNL     1       9.537  13.992  62.344  0.00  0.00    +0.000 C 
ATOM      6  C   UNL     1       8.200  14.590  62.790  0.00  0.00    +0.000 C 
BRANCH   6   7
ATOM      7  C   UNL     1       6.862  15.188  63.236  0.00  0.00    +0.000 C 
ATOM      8  C   UNL     1       5.525  15.786  63.683  0.00  0.00    +0.000 C 
BRANCH   8   9
ATOM      9  C   UNL     1       4.188  16.385  64.130  0.00  0.00    +0.000 C 
BRANCH   9  10
ATOM     10  C   UNL     1       2.850  16.982  64.576  0.00  0.00    +0.000 C 
ATOM     11  C   UNL     1       1.513  17.581  65.022  0.00  0.00    +0.000 C 
BRANCH  11  12
ATOM     12  C   UNL     1       0.175  18.178  65.470  0.00  0.00    +0.000 C 
ATOM     13  C   UNL     1      -1.162  18.777  65.916  0.00  0.00    +0.000 C 
ATOM     14  C   UNL     1      -2.500  19.375  66.363  0.00  0.00    +0.000 C 
ENDBRANCH  11  12
ENDBRANCH   9  10
ENDBRANCH   8   9
ENDBRANCH   6   7
ENDBRANCH   4   5
ENDBRANCH   1   3
BRANCH   2  15
ATOM     15  C   UNL     1      15.938  11.134  60.211  0.00  0.00    +0.000 C 
BRANCH  15  16
ATOM     16  C   UNL     1      17.182  10.578  59.797  0.00  0.00    +0.000 A 
ATOM     17  C   UNL     1      17.930   9.809  60.686  0.00  0.00    +0.000 A 
ATOM     18  C   UNL     1      17.647  10.807  58.503  0.00  0.00    +0.000 A 
ATOM     19  C   UNL     1      18.865  10.259  58.107  0.00  0.00    +0.000 A 
ATOM     20  C   UNL     1      19.145   9.270  60.271  0.00  0.00    +0.000 A 
ATOM     21  C   UNL     1      19.623   9.489  58.983  0.00  0.00    +0.000 A 
BRANCH  20  22
ATOM     22  O   UNL     1      19.895   8.513  61.124  0.00  0.00    +0.000 OA
ATOM     23  H   UNL     1      20.460   9.107  61.647  0.00  0.00    +0.000 HD
ENDBRANCH  20  22
BRANCH  19  24
ATOM     24  O   UNL     1      19.343  10.469  56.845  0.00  0.00    +0.000 OA
ATOM     25  H   UNL     1      20.315  10.483  56.885  0.00  0.00    +0.000 HD
ENDBRANCH  19  24
ENDBRANCH  15  16
ENDBRANCH   2  15
TORSDOF 10
ENDMDL
