MODEL 1
REMARK VINA RESULT:      -3.7      0.000      0.000
REMARK  Name = 85668777_Hyaluronidase.pdbqt.pdb
REMARK  5 active torsions:
REMARK  status: ('A' for Active; 'I' for Inactive)
REMARK    1  A    between atoms: N_1  and  C_13
REMARK    2  A    between atoms: C_14  and  C_15
REMARK    3  A    between atoms: C_15  and  C_16
REMARK    4  A    between atoms: C_17  and  C_19
REMARK    5  A    between atoms: C_19  and  O_20
REMARK                            x       y       z     vdW  Elec       q    Type
REMARK                         _______ _______ _______ _____ _____    ______ ____
ROOT
ATOM      1  N   UNL     1      12.555  -1.052  67.859  0.00  0.00    +0.000 N 
ATOM      2  C   UNL     1      12.554  -1.138  70.277  0.00  0.00    +0.000 C 
ATOM      3  C   UNL     1      11.155  -0.926  69.699  0.00  0.00    +0.000 A 
ATOM      4  C   UNL     1      13.408  -1.209  68.953  0.00  0.00    +0.000 C 
ATOM      5  C   UNL     1      11.228  -0.885  68.291  0.00  0.00    +0.000 A 
ATOM      6  C   UNL     1      12.933   0.090  71.165  0.00  0.00    +0.000 C 
ATOM      7  C   UNL     1      12.580  -2.483  71.073  0.00  0.00    +0.000 C 
ATOM      8  C   UNL     1       9.941  -0.783  70.356  0.00  0.00    +0.000 A 
ATOM      9  C   UNL     1      10.091  -0.702  67.525  0.00  0.00    +0.000 A 
ATOM     10  C   UNL     1      14.735  -1.385  68.787  0.00  0.00    +0.000 C 
ATOM     11  C   UNL     1       8.796  -0.598  69.583  0.00  0.00    +0.000 A 
ATOM     12  C   UNL     1       8.870  -0.559  68.184  0.00  0.00    +0.000 A 
ENDROOT
BRANCH   1  13
ATOM     13  C   UNL     1      12.947  -1.057  66.470  0.00  0.00    +0.000 C 
ATOM     14  C   UNL     1      13.358  -1.064  64.994  0.00  0.00    +0.000 C 
BRANCH  14  15
ATOM     15  C   UNL     1      13.768  -1.071  63.519  0.00  0.00    +0.000 C 
BRANCH  15  16
ATOM     16  C   UNL     1      14.178  -1.078  62.044  0.00  0.00    +0.000 C 
ATOM     17  C   UNL     1      14.589  -1.084  60.568  0.00  0.00    +0.000 C 
BRANCH  17  19
ATOM     18  O   UNL     1      16.059  -1.484  58.796  0.00  0.00    +0.000 OA
ATOM     19  C   UNL     1      14.975  -1.088  59.189  0.00  0.00    +0.000 C 
BRANCH  19  20
ATOM     20  O   UNL     1      14.032  -0.614  58.356  0.00  0.00    +0.000 OA
ATOM     21  H   UNL     1      14.353  -0.878  57.470  0.00  0.00    +0.000 HD
ENDBRANCH  19  20
ENDBRANCH  17  19
ENDBRANCH  15  16
ENDBRANCH  14  15
ENDBRANCH   1  13
TORSDOF 5
ENDMDL
MODEL 2
REMARK VINA RESULT:      -3.7     13.135     17.541
REMARK  Name = 85668777_Hyaluronidase.pdbqt.pdb
REMARK  5 active torsions:
REMARK  status: ('A' for Active; 'I' for Inactive)
REMARK    1  A    between atoms: N_1  and  C_13
REMARK    2  A    between atoms: C_14  and  C_15
REMARK    3  A    between atoms: C_15  and  C_16
REMARK    4  A    between atoms: C_17  and  C_19
REMARK    5  A    between atoms: C_19  and  O_20
REMARK                            x       y       z     vdW  Elec       q    Type
REMARK                         _______ _______ _______ _____ _____    ______ ____
ROOT
ATOM      1  N   UNL     1      18.177   9.871  55.768  0.00  0.00    +0.000 N 
ATOM      2  C   UNL     1      18.771   9.548  53.444  0.00  0.00    +0.000 C 
ATOM      3  C   UNL     1      17.503  10.384  53.613  0.00  0.00    +0.000 A 
ATOM      4  C   UNL     1      19.134   9.263  54.953  0.00  0.00    +0.000 C 
ATOM      5  C   UNL     1      17.215  10.532  54.986  0.00  0.00    +0.000 A 
ATOM      6  C   UNL     1      18.424   8.244  52.658  0.00  0.00    +0.000 C 
ATOM      7  C   UNL     1      19.858  10.410  52.725  0.00  0.00    +0.000 C 
ATOM      8  C   UNL     1      16.686  10.954  52.647  0.00  0.00    +0.000 A 
ATOM      9  C   UNL     1      16.111  11.250  55.407  0.00  0.00    +0.000 A 
ATOM     10  C   UNL     1      20.162   8.566  55.479  0.00  0.00    +0.000 C 
ATOM     11  C   UNL     1      15.573  11.678  53.073  0.00  0.00    +0.000 A 
ATOM     12  C   UNL     1      15.289  11.825  54.438  0.00  0.00    +0.000 A 
ENDROOT
BRANCH   1  13
ATOM     13  C   UNL     1      18.152   9.845  57.210  0.00  0.00    +0.000 C 
ATOM     14  C   UNL     1      18.121   9.815  58.742  0.00  0.00    +0.000 C 
BRANCH  14  15
ATOM     15  C   UNL     1      18.089   9.784  60.273  0.00  0.00    +0.000 C 
BRANCH  15  16
ATOM     16  C   UNL     1      18.057   9.755  61.803  0.00  0.00    +0.000 C 
ATOM     17  C   UNL     1      18.026   9.726  63.334  0.00  0.00    +0.000 C 
BRANCH  17  19
ATOM     18  O   UNL     1      16.967   9.619  65.414  0.00  0.00    +0.000 OA
ATOM     19  C   UNL     1      17.996   9.701  64.766  0.00  0.00    +0.000 C 
BRANCH  19  20
ATOM     20  O   UNL     1      19.209   9.779  65.340  0.00  0.00    +0.000 OA
ATOM     21  H   UNL     1      19.016   9.713  66.297  0.00  0.00    +0.000 HD
ENDBRANCH  19  20
ENDBRANCH  17  19
ENDBRANCH  15  16
ENDBRANCH  14  15
ENDBRANCH   1  13
TORSDOF 5
ENDMDL
MODEL 3
REMARK VINA RESULT:      -3.6      6.717      8.549
REMARK  Name = 85668777_Hyaluronidase.pdbqt.pdb
REMARK  5 active torsions:
REMARK  status: ('A' for Active; 'I' for Inactive)
REMARK    1  A    between atoms: N_1  and  C_13
REMARK    2  A    between atoms: C_14  and  C_15
REMARK    3  A    between atoms: C_15  and  C_16
REMARK    4  A    between atoms: C_17  and  C_19
REMARK    5  A    between atoms: C_19  and  O_20
REMARK                            x       y       z     vdW  Elec       q    Type
REMARK                         _______ _______ _______ _____ _____    ______ ____
ROOT
ATOM      1  N   UNL     1      12.333   3.658  74.688  0.00  0.00    +0.000 N 
ATOM      2  C   UNL     1      11.352   4.225  76.827  0.00  0.00    +0.000 C 
ATOM      3  C   UNL     1      11.024   2.796  76.393  0.00  0.00    +0.000 A 
ATOM      4  C   UNL     1      12.234   4.703  75.609  0.00  0.00    +0.000 C 
ATOM      5  C   UNL     1      11.624   2.534  75.144  0.00  0.00    +0.000 A 
ATOM      6  C   UNL     1      10.026   5.038  76.956  0.00  0.00    +0.000 C 
ATOM      7  C   UNL     1      12.161   4.180  78.163  0.00  0.00    +0.000 C 
ATOM      8  C   UNL     1      10.268   1.829  77.040  0.00  0.00    +0.000 A 
ATOM      9  C   UNL     1      11.477   1.303  74.529  0.00  0.00    +0.000 A 
ATOM     10  C   UNL     1      12.836   5.890  75.389  0.00  0.00    +0.000 C 
ATOM     11  C   UNL     1      10.121   0.589  76.420  0.00  0.00    +0.000 A 
ATOM     12  C   UNL     1      10.718   0.329  75.179  0.00  0.00    +0.000 A 
ENDROOT
BRANCH   1  13
ATOM     13  C   UNL     1      13.055   3.694  73.440  0.00  0.00    +0.000 C 
ATOM     14  C   UNL     1      13.820   3.727  72.113  0.00  0.00    +0.000 C 
BRANCH  14  15
ATOM     15  C   UNL     1      14.585   3.759  70.786  0.00  0.00    +0.000 C 
BRANCH  15  16
ATOM     16  C   UNL     1      15.348   3.791  69.459  0.00  0.00    +0.000 C 
ATOM     17  C   UNL     1      16.113   3.824  68.132  0.00  0.00    +0.000 C 
BRANCH  17  19
ATOM     18  O   UNL     1      17.849   4.500  66.723  0.00  0.00    +0.000 OA
ATOM     19  C   UNL     1      16.829   3.855  66.893  0.00  0.00    +0.000 C 
BRANCH  19  20
ATOM     20  O   UNL     1      16.276   3.107  65.922  0.00  0.00    +0.000 OA
ATOM     21  H   UNL     1      15.971   3.766  65.266  0.00  0.00    +0.000 HD
ENDBRANCH  19  20
ENDBRANCH  17  19
ENDBRANCH  15  16
ENDBRANCH  14  15
ENDBRANCH   1  13
TORSDOF 5
ENDMDL
MODEL 4
REMARK VINA RESULT:      -3.5     13.432     17.576
REMARK  Name = 85668777_Hyaluronidase.pdbqt.pdb
REMARK  5 active torsions:
REMARK  status: ('A' for Active; 'I' for Inactive)
REMARK    1  A    between atoms: N_1  and  C_13
REMARK    2  A    between atoms: C_14  and  C_15
REMARK    3  A    between atoms: C_15  and  C_16
REMARK    4  A    between atoms: C_17  and  C_19
REMARK    5  A    between atoms: C_19  and  O_20
REMARK                            x       y       z     vdW  Elec       q    Type
REMARK                         _______ _______ _______ _____ _____    ______ ____
ROOT
ATOM      1  N   UNL     1      20.281   8.619  55.920  0.00  0.00    +0.000 N 
ATOM      2  C   UNL     1      21.575   7.996  53.972  0.00  0.00    +0.000 C 
ATOM      3  C   UNL     1      20.164   8.461  53.612  0.00  0.00    +0.000 A 
ATOM      4  C   UNL     1      21.539   8.146  55.542  0.00  0.00    +0.000 C 
ATOM      5  C   UNL     1      19.468   8.806  54.789  0.00  0.00    +0.000 A 
ATOM      6  C   UNL     1      21.757   6.513  53.520  0.00  0.00    +0.000 C 
ATOM      7  C   UNL     1      22.614   8.957  53.308  0.00  0.00    +0.000 C 
ATOM      8  C   UNL     1      19.559   8.565  52.368  0.00  0.00    +0.000 A 
ATOM      9  C   UNL     1      18.162   9.260  54.735  0.00  0.00    +0.000 A 
ATOM     10  C   UNL     1      22.495   7.890  56.458  0.00  0.00    +0.000 C 
ATOM     11  C   UNL     1      18.243   9.022  52.315  0.00  0.00    +0.000 A 
ATOM     12  C   UNL     1      17.553   9.366  53.485  0.00  0.00    +0.000 A 
ENDROOT
BRANCH   1  13
ATOM     13  C   UNL     1      19.846   8.890  57.269  0.00  0.00    +0.000 C 
ATOM     14  C   UNL     1      19.386   9.182  58.700  0.00  0.00    +0.000 C 
BRANCH  14  15
ATOM     15  C   UNL     1      18.927   9.475  60.132  0.00  0.00    +0.000 C 
BRANCH  15  16
ATOM     16  C   UNL     1      18.467   9.769  61.562  0.00  0.00    +0.000 C 
ATOM     17  C   UNL     1      18.007  10.062  62.994  0.00  0.00    +0.000 C 
BRANCH  17  19
ATOM     18  O   UNL     1      16.995   9.528  65.030  0.00  0.00    +0.000 OA
ATOM     19  C   UNL     1      17.578  10.338  64.332  0.00  0.00    +0.000 C 
BRANCH  19  20
ATOM     20  O   UNL     1      17.875  11.579  64.757  0.00  0.00    +0.000 OA
ATOM     21  H   UNL     1      18.313  11.429  65.620  0.00  0.00    +0.000 HD
ENDBRANCH  19  20
ENDBRANCH  17  19
ENDBRANCH  15  16
ENDBRANCH  14  15
ENDBRANCH   1  13
TORSDOF 5
ENDMDL
MODEL 5
REMARK VINA RESULT:      -3.5     12.534     15.573
REMARK  Name = 85668777_Hyaluronidase.pdbqt.pdb
REMARK  5 active torsions:
REMARK  status: ('A' for Active; 'I' for Inactive)
REMARK    1  A    between atoms: N_1  and  C_13
REMARK    2  A    between atoms: C_14  and  C_15
REMARK    3  A    between atoms: C_15  and  C_16
REMARK    4  A    between atoms: C_17  and  C_19
REMARK    5  A    between atoms: C_19  and  O_20
REMARK                            x       y       z     vdW  Elec       q    Type
REMARK                         _______ _______ _______ _____ _____    ______ ____
ROOT
ATOM      1  N   UNL     1      16.772   1.461  52.752  0.00  0.00    +0.000 N 
ATOM      2  C   UNL     1      18.379   2.828  51.566  0.00  0.00    +0.000 C 
ATOM      3  C   UNL     1      18.980   2.155  52.799  0.00  0.00    +0.000 A 
ATOM      4  C   UNL     1      16.897   2.289  51.635  0.00  0.00    +0.000 C 
ATOM      5  C   UNL     1      17.994   1.378  53.441  0.00  0.00    +0.000 A 
ATOM      6  C   UNL     1      18.457   4.378  51.739  0.00  0.00    +0.000 C 
ATOM      7  C   UNL     1      19.133   2.328  50.292  0.00  0.00    +0.000 C 
ATOM      8  C   UNL     1      20.272   2.227  53.302  0.00  0.00    +0.000 A 
ATOM      9  C   UNL     1      18.286   0.664  54.589  0.00  0.00    +0.000 A 
ATOM     10  C   UNL     1      15.852   2.523  50.815  0.00  0.00    +0.000 C 
ATOM     11  C   UNL     1      20.565   1.507  54.460  0.00  0.00    +0.000 A 
ATOM     12  C   UNL     1      19.584   0.734  55.095  0.00  0.00    +0.000 A 
ENDROOT
BRANCH   1  13
ATOM     13  C   UNL     1      15.574   0.771  53.166  0.00  0.00    +0.000 C 
ATOM     14  C   UNL     1      14.304   0.038  53.610  0.00  0.00    +0.000 C 
BRANCH  14  15
ATOM     15  C   UNL     1      13.035  -0.695  54.055  0.00  0.00    +0.000 C 
BRANCH  15  16
ATOM     16  C   UNL     1      11.767  -1.428  54.500  0.00  0.00    +0.000 C 
ATOM     17  C   UNL     1      10.498  -2.161  54.946  0.00  0.00    +0.000 C 
BRANCH  17  19
ATOM     18  O   UNL     1       8.675  -3.589  54.634  0.00  0.00    +0.000 OA
ATOM     19  C   UNL     1       9.311  -2.845  55.361  0.00  0.00    +0.000 C 
BRANCH  19  20
ATOM     20  O   UNL     1       8.952  -2.596  56.633  0.00  0.00    +0.000 OA
ATOM     21  H   UNL     1       9.740  -2.856  57.151  0.00  0.00    +0.000 HD
ENDBRANCH  19  20
ENDBRANCH  17  19
ENDBRANCH  15  16
ENDBRANCH  14  15
ENDBRANCH   1  13
TORSDOF 5
ENDMDL
MODEL 6
REMARK VINA RESULT:      -3.5      5.389      6.901
REMARK  Name = 85668777_Hyaluronidase.pdbqt.pdb
REMARK  5 active torsions:
REMARK  status: ('A' for Active; 'I' for Inactive)
REMARK    1  A    between atoms: N_1  and  C_13
REMARK    2  A    between atoms: C_14  and  C_15
REMARK    3  A    between atoms: C_15  and  C_16
REMARK    4  A    between atoms: C_17  and  C_19
REMARK    5  A    between atoms: C_19  and  O_20
REMARK                            x       y       z     vdW  Elec       q    Type
REMARK                         _______ _______ _______ _____ _____    ______ ____
ROOT
ATOM      1  N   UNL     1      14.579   4.175  71.733  0.00  0.00    +0.000 N 
ATOM      2  C   UNL     1      13.900   5.466  73.664  0.00  0.00    +0.000 C 
ATOM      3  C   UNL     1      13.380   4.030  73.709  0.00  0.00    +0.000 A 
ATOM      4  C   UNL     1      14.689   5.446  72.298  0.00  0.00    +0.000 C 
ATOM      5  C   UNL     1      13.810   3.337  72.558  0.00  0.00    +0.000 A 
ATOM      6  C   UNL     1      12.687   6.449  73.636  0.00  0.00    +0.000 C 
ATOM      7  C   UNL     1      14.840   5.707  74.889  0.00  0.00    +0.000 C 
ATOM      8  C   UNL     1      12.602   3.402  74.672  0.00  0.00    +0.000 A 
ATOM      9  C   UNL     1      13.469   2.011  72.358  0.00  0.00    +0.000 A 
ATOM     10  C   UNL     1      15.384   6.427  71.686  0.00  0.00    +0.000 C 
ATOM     11  C   UNL     1      12.260   2.066  74.469  0.00  0.00    +0.000 A 
ATOM     12  C   UNL     1      12.689   1.378  73.325  0.00  0.00    +0.000 A 
ENDROOT
BRANCH   1  13
ATOM     13  C   UNL     1      15.161   3.748  70.483  0.00  0.00    +0.000 C 
ATOM     14  C   UNL     1      15.775   3.299  69.154  0.00  0.00    +0.000 C 
BRANCH  14  15
ATOM     15  C   UNL     1      16.388   2.849  67.824  0.00  0.00    +0.000 C 
BRANCH  15  16
ATOM     16  C   UNL     1      17.002   2.400  66.495  0.00  0.00    +0.000 C 
ATOM     17  C   UNL     1      17.615   1.952  65.165  0.00  0.00    +0.000 C 
BRANCH  17  19
ATOM     18  O   UNL     1      18.868   0.529  63.799  0.00  0.00    +0.000 OA
ATOM     19  C   UNL     1      18.189   1.535  63.922  0.00  0.00    +0.000 C 
BRANCH  19  20
ATOM     20  O   UNL     1      17.916   2.353  62.890  0.00  0.00    +0.000 OA
ATOM     21  H   UNL     1      17.123   2.843  63.187  0.00  0.00    +0.000 HD
ENDBRANCH  19  20
ENDBRANCH  17  19
ENDBRANCH  15  16
ENDBRANCH  14  15
ENDBRANCH   1  13
TORSDOF 5
ENDMDL
MODEL 7
REMARK VINA RESULT:      -3.5     12.732     17.442
REMARK  Name = 85668777_Hyaluronidase.pdbqt.pdb
REMARK  5 active torsions:
REMARK  status: ('A' for Active; 'I' for Inactive)
REMARK    1  A    between atoms: N_1  and  C_13
REMARK    2  A    between atoms: C_14  and  C_15
REMARK    3  A    between atoms: C_15  and  C_16
REMARK    4  A    between atoms: C_17  and  C_19
REMARK    5  A    between atoms: C_19  and  O_20
REMARK                            x       y       z     vdW  Elec       q    Type
REMARK                         _______ _______ _______ _____ _____    ______ ____
ROOT
ATOM      1  N   UNL     1      17.413  10.643  56.148  0.00  0.00    +0.000 N 
ATOM      2  C   UNL     1      16.559  11.800  54.202  0.00  0.00    +0.000 C 
ATOM      3  C   UNL     1      17.341  10.540  53.836  0.00  0.00    +0.000 A 
ATOM      4  C   UNL     1      16.672  11.766  55.776  0.00  0.00    +0.000 C 
ATOM      5  C   UNL     1      17.809   9.917  55.012  0.00  0.00    +0.000 A 
ATOM      6  C   UNL     1      17.270  13.044  53.581  0.00  0.00    +0.000 C 
ATOM      7  C   UNL     1      15.083  11.646  53.711  0.00  0.00    +0.000 C 
ATOM      8  C   UNL     1      17.613  10.001  52.586  0.00  0.00    +0.000 A 
ATOM      9  C   UNL     1      18.551   8.751  54.953  0.00  0.00    +0.000 A 
ATOM     10  C   UNL     1      16.181  12.619  56.697  0.00  0.00    +0.000 C 
ATOM     11  C   UNL     1      18.360   8.825  52.528  0.00  0.00    +0.000 A 
ATOM     12  C   UNL     1      18.823   8.207  53.697  0.00  0.00    +0.000 A 
ENDROOT
BRANCH   1  13
ATOM     13  C   UNL     1      17.740  10.253  57.499  0.00  0.00    +0.000 C 
ATOM     14  C   UNL     1      18.084   9.836  58.932  0.00  0.00    +0.000 C 
BRANCH  14  15
ATOM     15  C   UNL     1      18.426   9.419  60.366  0.00  0.00    +0.000 C 
BRANCH  15  16
ATOM     16  C   UNL     1      18.768   9.001  61.798  0.00  0.00    +0.000 C 
ATOM     17  C   UNL     1      19.109   8.582  63.232  0.00  0.00    +0.000 C 
BRANCH  17  19
ATOM     18  O   UNL     1      20.569   8.104  64.992  0.00  0.00    +0.000 OA
ATOM     19  C   UNL     1      19.428   8.189  64.571  0.00  0.00    +0.000 C 
BRANCH  19  20
ATOM     20  O   UNL     1      18.354   7.918  65.333  0.00  0.00    +0.000 OA
ATOM     21  H   UNL     1      18.213   8.745  65.837  0.00  0.00    +0.000 HD
ENDBRANCH  19  20
ENDBRANCH  17  19
ENDBRANCH  15  16
ENDBRANCH  14  15
ENDBRANCH   1  13
TORSDOF 5
ENDMDL
MODEL 8
REMARK VINA RESULT:      -3.5      9.743     13.206
REMARK  Name = 85668777_Hyaluronidase.pdbqt.pdb
REMARK  5 active torsions:
REMARK  status: ('A' for Active; 'I' for Inactive)
REMARK    1  A    between atoms: N_1  and  C_13
REMARK    2  A    between atoms: C_14  and  C_15
REMARK    3  A    between atoms: C_15  and  C_16
REMARK    4  A    between atoms: C_17  and  C_19
REMARK    5  A    between atoms: C_19  and  O_20
REMARK                            x       y       z     vdW  Elec       q    Type
REMARK                         _______ _______ _______ _____ _____    ______ ____
ROOT
ATOM      1  N   UNL     1       5.890   3.710  60.091  0.00  0.00    +0.000 N 
ATOM      2  C   UNL     1       6.254   4.822  57.972  0.00  0.00    +0.000 C 
ATOM      3  C   UNL     1       7.208   3.647  58.187  0.00  0.00    +0.000 A 
ATOM      4  C   UNL     1       5.419   4.766  59.310  0.00  0.00    +0.000 C 
ATOM      5  C   UNL     1       6.942   3.047  59.436  0.00  0.00    +0.000 A 
ATOM      6  C   UNL     1       7.084   6.138  57.843  0.00  0.00    +0.000 C 
ATOM      7  C   UNL     1       5.374   4.541  56.711  0.00  0.00    +0.000 C 
ATOM      8  C   UNL     1       8.210   3.161  57.360  0.00  0.00    +0.000 A 
ATOM      9  C   UNL     1       7.674   1.956  59.870  0.00  0.00    +0.000 A 
ATOM     10  C   UNL     1       4.406   5.552  59.730  0.00  0.00    +0.000 C 
ATOM     11  C   UNL     1       8.947   2.062  57.799  0.00  0.00    +0.000 A 
ATOM     12  C   UNL     1       8.681   1.466  59.039  0.00  0.00    +0.000 A 
ENDROOT
BRANCH   1  13
ATOM     13  C   UNL     1       5.389   3.325  61.388  0.00  0.00    +0.000 C 
ATOM     14  C   UNL     1       4.852   2.917  62.763  0.00  0.00    +0.000 C 
BRANCH  14  15
ATOM     15  C   UNL     1       4.315   2.510  64.139  0.00  0.00    +0.000 C 
BRANCH  15  16
ATOM     16  C   UNL     1       3.777   2.104  65.513  0.00  0.00    +0.000 C 
ATOM     17  C   UNL     1       3.239   1.697  66.889  0.00  0.00    +0.000 C 
BRANCH  17  19
ATOM     18  O   UNL     1       3.048   0.280  68.736  0.00  0.00    +0.000 OA
ATOM     19  C   UNL     1       2.738   1.316  68.175  0.00  0.00    +0.000 C 
BRANCH  19  20
ATOM     20  O   UNL     1       1.887   2.205  68.716  0.00  0.00    +0.000 OA
ATOM     21  H   UNL     1       1.942   2.024  69.676  0.00  0.00    +0.000 HD
ENDBRANCH  19  20
ENDBRANCH  17  19
ENDBRANCH  15  16
ENDBRANCH  14  15
ENDBRANCH   1  13
TORSDOF 5
ENDMDL
MODEL 9
REMARK VINA RESULT:      -3.4      6.245      8.163
REMARK  Name = 85668777_Hyaluronidase.pdbqt.pdb
REMARK  5 active torsions:
REMARK  status: ('A' for Active; 'I' for Inactive)
REMARK    1  A    between atoms: N_1  and  C_13
REMARK    2  A    between atoms: C_14  and  C_15
REMARK    3  A    between atoms: C_15  and  C_16
REMARK    4  A    between atoms: C_17  and  C_19
REMARK    5  A    between atoms: C_19  and  O_20
REMARK                            x       y       z     vdW  Elec       q    Type
REMARK                         _______ _______ _______ _____ _____    ______ ____
ROOT
ATOM      1  N   UNL     1      12.005   1.976  74.380  0.00  0.00    +0.000 N 
ATOM      2  C   UNL     1      10.618   0.990  76.100  0.00  0.00    +0.000 C 
ATOM      3  C   UNL     1      10.840   2.487  76.314  0.00  0.00    +0.000 A 
ATOM      4  C   UNL     1      11.443   0.761  74.775  0.00  0.00    +0.000 C 
ATOM      5  C   UNL     1      11.654   2.995  75.281  0.00  0.00    +0.000 A 
ATOM      6  C   UNL     1      11.210   0.206  77.314  0.00  0.00    +0.000 C 
ATOM      7  C   UNL     1       9.091   0.724  75.902  0.00  0.00    +0.000 C 
ATOM      8  C   UNL     1      10.370   3.314  77.325  0.00  0.00    +0.000 A 
ATOM      9  C   UNL     1      12.005   4.333  75.245  0.00  0.00    +0.000 A 
ATOM     10  C   UNL     1      11.641  -0.368  74.064  0.00  0.00    +0.000 C 
ATOM     11  C   UNL     1      10.725   4.662  77.288  0.00  0.00    +0.000 A 
ATOM     12  C   UNL     1      11.532   5.165  76.259  0.00  0.00    +0.000 A 
ENDROOT
BRANCH   1  13
ATOM     13  C   UNL     1      12.831   2.189  73.216  0.00  0.00    +0.000 C 
ATOM     14  C   UNL     1      13.704   2.419  71.978  0.00  0.00    +0.000 C 
BRANCH  14  15
ATOM     15  C   UNL     1      14.576   2.648  70.740  0.00  0.00    +0.000 C 
BRANCH  15  16
ATOM     16  C   UNL     1      15.447   2.878  69.502  0.00  0.00    +0.000 C 
ATOM     17  C   UNL     1      16.319   3.109  68.264  0.00  0.00    +0.000 C 
BRANCH  17  19
ATOM     18  O   UNL     1      18.343   3.489  67.159  0.00  0.00    +0.000 OA
ATOM     19  C   UNL     1      17.136   3.324  67.108  0.00  0.00    +0.000 C 
BRANCH  19  20
ATOM     20  O   UNL     1      16.454   3.331  65.949  0.00  0.00    +0.000 OA
ATOM     21  H   UNL     1      16.712   4.179  65.533  0.00  0.00    +0.000 HD
ENDBRANCH  19  20
ENDBRANCH  17  19
ENDBRANCH  15  16
ENDBRANCH  14  15
ENDBRANCH   1  13
TORSDOF 5
ENDMDL
