MODEL 1
REMARK VINA RESULT:      -3.0      0.000      0.000
REMARK  Name = 86311066_OplopantriolA.pdbqt.pdb
REMARK  12 active torsions:
REMARK  status: ('A' for Active; 'I' for Inactive)
REMARK    1  A    between atoms: C_1  and  C_3
REMARK    2  A    between atoms: C_2  and  C_13
REMARK    3  A    between atoms: C_4  and  C_5
REMARK    4  A    between atoms: C_6  and  C_7
REMARK    5  A    between atoms: C_8  and  C_9
REMARK    6  A    between atoms: C_10  and  O_11
REMARK    7  A    between atoms: C_13  and  O_14
REMARK    8  A    between atoms: C_13  and  C_16
REMARK    9  A    between atoms: C_17  and  C_18
REMARK   10  A    between atoms: C_19  and  C_20
REMARK   11  A    between atoms: C_20  and  C_21
REMARK   12  A    between atoms: C_20  and  O_23
REMARK                            x       y       z     vdW  Elec       q    Type
REMARK                         _______ _______ _______ _____ _____    ______ ____
ROOT
ATOM      1  C   UNL     1      15.838  -1.514  58.481  0.00  0.00    +0.000 C 
ATOM      2  C   UNL     1      16.313  -1.560  57.379  0.00  0.00    +0.000 C 
ENDROOT
BRANCH   1   3
ATOM      3  C   UNL     1      15.232  -1.455  59.885  0.00  0.00    +0.000 C 
ATOM      4  C   UNL     1      14.626  -1.398  61.291  0.00  0.00    +0.000 C 
BRANCH   4   5
ATOM      5  C   UNL     1      14.018  -1.341  62.696  0.00  0.00    +0.000 C 
ATOM      6  C   UNL     1      13.411  -1.286  64.101  0.00  0.00    +0.000 C 
BRANCH   6   7
ATOM      7  C   UNL     1      12.803  -1.230  65.506  0.00  0.00    +0.000 C 
ATOM      8  C   UNL     1      12.195  -1.174  66.910  0.00  0.00    +0.000 C 
BRANCH   8   9
ATOM      9  C   UNL     1      11.588  -1.117  68.315  0.00  0.00    +0.000 C 
ATOM     10  C   UNL     1      10.980  -1.059  69.720  0.00  0.00    +0.000 C 
BRANCH  10  11
ATOM     11  O   UNL     1      10.454  -1.010  70.938  0.00  0.00    +0.000 OA
ATOM     12  H   UNL     1      10.653  -1.827  71.426  0.00  0.00    +0.000 HD
ENDBRANCH  10  11
ENDBRANCH   8   9
ENDBRANCH   6   7
ENDBRANCH   4   5
ENDBRANCH   1   3
BRANCH   2  13
ATOM     13  C   UNL     1      16.872  -1.614  56.078  0.00  0.00    +0.000 C 
BRANCH  13  14
ATOM     14  O   UNL     1      16.457  -2.630  55.249  0.00  0.00    +0.000 OA
ATOM     15  H   UNL     1      17.134  -2.854  54.589  0.00  0.00    +0.000 HD
ENDBRANCH  13  14
BRANCH  13  16
ATOM     16  C   UNL     1      17.828  -0.684  55.594  0.00  0.00    +0.000 C 
ATOM     17  C   UNL     1      18.637   0.103  55.185  0.00  0.00    +0.000 C 
BRANCH  17  18
ATOM     18  C   UNL     1      19.668   1.109  54.665  0.00  0.00    +0.000 C 
ATOM     19  C   UNL     1      20.476   1.897  54.257  0.00  0.00    +0.000 C 
BRANCH  19  20
ATOM     20  C   UNL     1      21.433   2.829  53.776  0.00  0.00    +0.000 C 
BRANCH  20  21
ATOM     21  C   UNL     1      22.460   3.386  54.589  0.00  0.00    +0.000 C 
ATOM     22  C   UNL     1      23.417   3.922  55.349  0.00  0.00    +0.000 C 
ENDBRANCH  20  21
BRANCH  20  23
ATOM     23  O   UNL     1      21.363   3.215  52.452  0.00  0.00    +0.000 OA
ATOM     24  H   UNL     1      21.579   4.157  52.338  0.00  0.00    +0.000 HD
ENDBRANCH  20  23
ENDBRANCH  19  20
ENDBRANCH  17  18
ENDBRANCH  13  16
ENDBRANCH   2  13
TORSDOF 12
ENDMDL
MODEL 2
REMARK VINA RESULT:      -3.0      2.043      2.126
REMARK  Name = 86311066_OplopantriolA.pdbqt.pdb
REMARK  12 active torsions:
REMARK  status: ('A' for Active; 'I' for Inactive)
REMARK    1  A    between atoms: C_1  and  C_3
REMARK    2  A    between atoms: C_2  and  C_13
REMARK    3  A    between atoms: C_4  and  C_5
REMARK    4  A    between atoms: C_6  and  C_7
REMARK    5  A    between atoms: C_8  and  C_9
REMARK    6  A    between atoms: C_10  and  O_11
REMARK    7  A    between atoms: C_13  and  O_14
REMARK    8  A    between atoms: C_13  and  C_16
REMARK    9  A    between atoms: C_17  and  C_18
REMARK   10  A    between atoms: C_19  and  C_20
REMARK   11  A    between atoms: C_20  and  C_21
REMARK   12  A    between atoms: C_20  and  O_23
REMARK                            x       y       z     vdW  Elec       q    Type
REMARK                         _______ _______ _______ _____ _____    ______ ____
ROOT
ATOM      1  C   UNL     1      17.047  -1.674  59.575  0.00  0.00    +0.000 C 
ATOM      2  C   UNL     1      17.798  -1.769  58.642  0.00  0.00    +0.000 C 
ENDROOT
BRANCH   1   3
ATOM      3  C   UNL     1      16.091  -1.555  60.764  0.00  0.00    +0.000 C 
ATOM      4  C   UNL     1      15.135  -1.436  61.955  0.00  0.00    +0.000 C 
BRANCH   4   5
ATOM      5  C   UNL     1      14.179  -1.317  63.146  0.00  0.00    +0.000 C 
ATOM      6  C   UNL     1      13.223  -1.201  64.337  0.00  0.00    +0.000 C 
BRANCH   6   7
ATOM      7  C   UNL     1      12.267  -1.084  65.528  0.00  0.00    +0.000 C 
ATOM      8  C   UNL     1      11.311  -0.967  66.719  0.00  0.00    +0.000 C 
BRANCH   8   9
ATOM      9  C   UNL     1      10.355  -0.851  67.910  0.00  0.00    +0.000 C 
ATOM     10  C   UNL     1       9.401  -0.736  69.102  0.00  0.00    +0.000 C 
BRANCH  10  11
ATOM     11  O   UNL     1       8.573  -0.635  70.135  0.00  0.00    +0.000 OA
ATOM     12  H   UNL     1       7.950   0.099  69.999  0.00  0.00    +0.000 HD
ENDBRANCH  10  11
ENDBRANCH   8   9
ENDBRANCH   6   7
ENDBRANCH   4   5
ENDBRANCH   1   3
BRANCH   2  13
ATOM     13  C   UNL     1      18.683  -1.881  57.541  0.00  0.00    +0.000 C 
BRANCH  13  14
ATOM     14  O   UNL     1      19.536  -2.960  57.519  0.00  0.00    +0.000 OA
ATOM     15  H   UNL     1      19.721  -3.252  56.611  0.00  0.00    +0.000 HD
ENDBRANCH  13  14
BRANCH  13  16
ATOM     16  C   UNL     1      18.732  -0.948  56.474  0.00  0.00    +0.000 C 
ATOM     17  C   UNL     1      18.775  -0.160  55.569  0.00  0.00    +0.000 C 
BRANCH  17  18
ATOM     18  C   UNL     1      18.830   0.844  54.415  0.00  0.00    +0.000 C 
ATOM     19  C   UNL     1      18.874   1.632  53.510  0.00  0.00    +0.000 C 
BRANCH  19  20
ATOM     20  C   UNL     1      18.926   2.563  52.439  0.00  0.00    +0.000 C 
BRANCH  20  21
ATOM     21  C   UNL     1      19.915   3.581  52.335  0.00  0.00    +0.000 C 
ATOM     22  C   UNL     1      20.838   4.540  52.252  0.00  0.00    +0.000 C 
ENDBRANCH  20  21
BRANCH  20  23
ATOM     23  O   UNL     1      17.968   2.476  51.449  0.00  0.00    +0.000 OA
ATOM     24  H   UNL     1      17.527   3.329  51.296  0.00  0.00    +0.000 HD
ENDBRANCH  20  23
ENDBRANCH  19  20
ENDBRANCH  17  18
ENDBRANCH  13  16
ENDBRANCH   2  13
TORSDOF 12
ENDMDL
MODEL 3
REMARK VINA RESULT:      -3.0     14.076     18.130
REMARK  Name = 86311066_OplopantriolA.pdbqt.pdb
REMARK  12 active torsions:
REMARK  status: ('A' for Active; 'I' for Inactive)
REMARK    1  A    between atoms: C_1  and  C_3
REMARK    2  A    between atoms: C_2  and  C_13
REMARK    3  A    between atoms: C_4  and  C_5
REMARK    4  A    between atoms: C_6  and  C_7
REMARK    5  A    between atoms: C_8  and  C_9
REMARK    6  A    between atoms: C_10  and  O_11
REMARK    7  A    between atoms: C_13  and  O_14
REMARK    8  A    between atoms: C_13  and  C_16
REMARK    9  A    between atoms: C_17  and  C_18
REMARK   10  A    between atoms: C_19  and  C_20
REMARK   11  A    between atoms: C_20  and  C_21
REMARK   12  A    between atoms: C_20  and  O_23
REMARK                            x       y       z     vdW  Elec       q    Type
REMARK                         _______ _______ _______ _____ _____    ______ ____
ROOT
ATOM      1  C   UNL     1       1.940   7.191  67.112  0.00  0.00    +0.000 C 
ATOM      2  C   UNL     1       2.116   6.676  66.041  0.00  0.00    +0.000 C 
ENDROOT
BRANCH   1   3
ATOM      3  C   UNL     1       1.716   7.849  68.476  0.00  0.00    +0.000 C 
ATOM      4  C   UNL     1       1.493   8.507  69.841  0.00  0.00    +0.000 C 
BRANCH   4   5
ATOM      5  C   UNL     1       1.269   9.164  71.207  0.00  0.00    +0.000 C 
ATOM      6  C   UNL     1       1.046   9.819  72.573  0.00  0.00    +0.000 C 
BRANCH   6   7
ATOM      7  C   UNL     1       0.822  10.475  73.939  0.00  0.00    +0.000 C 
ATOM      8  C   UNL     1       0.599  11.131  75.305  0.00  0.00    +0.000 C 
BRANCH   8   9
ATOM      9  C   UNL     1       0.374  11.787  76.670  0.00  0.00    +0.000 C 
ATOM     10  C   UNL     1       0.149  12.445  78.035  0.00  0.00    +0.000 C 
BRANCH  10  11
ATOM     11  O   UNL     1      -0.046  13.014  79.219  0.00  0.00    +0.000 OA
ATOM     12  H   UNL     1       0.042  13.980  79.148  0.00  0.00    +0.000 HD
ENDBRANCH  10  11
ENDBRANCH   8   9
ENDBRANCH   6   7
ENDBRANCH   4   5
ENDBRANCH   1   3
BRANCH   2  13
ATOM     13  C   UNL     1       2.325   6.069  64.778  0.00  0.00    +0.000 C 
BRANCH  13  14
ATOM     14  O   UNL     1       1.477   5.047  64.416  0.00  0.00    +0.000 OA
ATOM     15  H   UNL     1       1.598   4.795  63.486  0.00  0.00    +0.000 HD
ENDBRANCH  13  14
BRANCH  13  16
ATOM     16  C   UNL     1       3.351   6.457  63.879  0.00  0.00    +0.000 C 
ATOM     17  C   UNL     1       4.220   6.785  63.118  0.00  0.00    +0.000 C 
BRANCH  17  18
ATOM     18  C   UNL     1       5.330   7.201  62.150  0.00  0.00    +0.000 C 
ATOM     19  C   UNL     1       6.200   7.528  61.390  0.00  0.00    +0.000 C 
BRANCH  19  20
ATOM     20  C   UNL     1       7.230   7.914  60.491  0.00  0.00    +0.000 C 
BRANCH  20  21
ATOM     21  C   UNL     1       7.468   7.261  59.249  0.00  0.00    +0.000 C 
ATOM     22  C   UNL     1       7.704   6.642  58.091  0.00  0.00    +0.000 C 
ENDBRANCH  20  21
BRANCH  20  23
ATOM     23  O   UNL     1       8.042   8.974  60.841  0.00  0.00    +0.000 OA
ATOM     24  H   UNL     1       7.994   9.167  61.793  0.00  0.00    +0.000 HD
ENDBRANCH  20  23
ENDBRANCH  19  20
ENDBRANCH  17  18
ENDBRANCH  13  16
ENDBRANCH   2  13
TORSDOF 12
ENDMDL
MODEL 4
REMARK VINA RESULT:      -2.9     13.267     13.792
REMARK  Name = 86311066_OplopantriolA.pdbqt.pdb
REMARK  12 active torsions:
REMARK  status: ('A' for Active; 'I' for Inactive)
REMARK    1  A    between atoms: C_1  and  C_3
REMARK    2  A    between atoms: C_2  and  C_13
REMARK    3  A    between atoms: C_4  and  C_5
REMARK    4  A    between atoms: C_6  and  C_7
REMARK    5  A    between atoms: C_8  and  C_9
REMARK    6  A    between atoms: C_10  and  O_11
REMARK    7  A    between atoms: C_13  and  O_14
REMARK    8  A    between atoms: C_13  and  C_16
REMARK    9  A    between atoms: C_17  and  C_18
REMARK   10  A    between atoms: C_19  and  C_20
REMARK   11  A    between atoms: C_20  and  C_21
REMARK   12  A    between atoms: C_20  and  O_23
REMARK                            x       y       z     vdW  Elec       q    Type
REMARK                         _______ _______ _______ _____ _____    ______ ____
ROOT
ATOM      1  C   UNL     1       6.571   8.515  60.931  0.00  0.00    +0.000 C 
ATOM      2  C   UNL     1       7.106   9.453  60.405  0.00  0.00    +0.000 C 
ENDROOT
BRANCH   1   3
ATOM      3  C   UNL     1       5.888   7.319  61.600  0.00  0.00    +0.000 C 
ATOM      4  C   UNL     1       5.204   6.123  62.269  0.00  0.00    +0.000 C 
BRANCH   4   5
ATOM      5  C   UNL     1       4.519   4.927  62.937  0.00  0.00    +0.000 C 
ATOM      6  C   UNL     1       3.835   3.730  63.604  0.00  0.00    +0.000 C 
BRANCH   6   7
ATOM      7  C   UNL     1       3.150   2.533  64.272  0.00  0.00    +0.000 C 
ATOM      8  C   UNL     1       2.465   1.337  64.939  0.00  0.00    +0.000 C 
BRANCH   8   9
ATOM      9  C   UNL     1       1.779   0.141  65.607  0.00  0.00    +0.000 C 
ATOM     10  C   UNL     1       1.092  -1.054  66.274  0.00  0.00    +0.000 C 
BRANCH  10  11
ATOM     11  O   UNL     1       0.498  -2.091  66.852  0.00  0.00    +0.000 OA
ATOM     12  H   UNL     1      -0.466  -2.035  66.738  0.00  0.00    +0.000 HD
ENDBRANCH  10  11
ENDBRANCH   8   9
ENDBRANCH   6   7
ENDBRANCH   4   5
ENDBRANCH   1   3
BRANCH   2  13
ATOM     13  C   UNL     1       7.737  10.560  59.787  0.00  0.00    +0.000 C 
BRANCH  13  14
ATOM     14  O   UNL     1       7.196  11.024  58.610  0.00  0.00    +0.000 OA
ATOM     15  H   UNL     1       7.882  11.188  57.941  0.00  0.00    +0.000 HD
ENDBRANCH  13  14
BRANCH  13  16
ATOM     16  C   UNL     1       8.884  11.207  60.314  0.00  0.00    +0.000 C 
ATOM     17  C   UNL     1       9.856  11.755  60.758  0.00  0.00    +0.000 C 
BRANCH  17  18
ATOM     18  C   UNL     1      11.094  12.454  61.324  0.00  0.00    +0.000 C 
ATOM     19  C   UNL     1      12.066  13.003  61.767  0.00  0.00    +0.000 C 
BRANCH  19  20
ATOM     20  C   UNL     1      13.215  13.651  62.293  0.00  0.00    +0.000 C 
BRANCH  20  21
ATOM     21  C   UNL     1      14.544  13.326  61.901  0.00  0.00    +0.000 C 
ATOM     22  C   UNL     1      15.787  13.027  61.520  0.00  0.00    +0.000 C 
ENDBRANCH  20  21
BRANCH  20  23
ATOM     23  O   UNL     1      13.033  14.646  63.232  0.00  0.00    +0.000 OA
ATOM     24  H   UNL     1      12.290  15.230  63.002  0.00  0.00    +0.000 HD
ENDBRANCH  20  23
ENDBRANCH  19  20
ENDBRANCH  17  18
ENDBRANCH  13  16
ENDBRANCH   2  13
TORSDOF 12
ENDMDL
MODEL 5
REMARK VINA RESULT:      -2.8     13.101     17.643
REMARK  Name = 86311066_OplopantriolA.pdbqt.pdb
REMARK  12 active torsions:
REMARK  status: ('A' for Active; 'I' for Inactive)
REMARK    1  A    between atoms: C_1  and  C_3
REMARK    2  A    between atoms: C_2  and  C_13
REMARK    3  A    between atoms: C_4  and  C_5
REMARK    4  A    between atoms: C_6  and  C_7
REMARK    5  A    between atoms: C_8  and  C_9
REMARK    6  A    between atoms: C_10  and  O_11
REMARK    7  A    between atoms: C_13  and  O_14
REMARK    8  A    between atoms: C_13  and  C_16
REMARK    9  A    between atoms: C_17  and  C_18
REMARK   10  A    between atoms: C_19  and  C_20
REMARK   11  A    between atoms: C_20  and  C_21
REMARK   12  A    between atoms: C_20  and  O_23
REMARK                            x       y       z     vdW  Elec       q    Type
REMARK                         _______ _______ _______ _____ _____    ______ ____
ROOT
ATOM      1  C   UNL     1       4.280   4.403  63.185  0.00  0.00    +0.000 C 
ATOM      2  C   UNL     1       3.723   3.458  63.674  0.00  0.00    +0.000 C 
ENDROOT
BRANCH   1   3
ATOM      3  C   UNL     1       4.991   5.607  62.561  0.00  0.00    +0.000 C 
ATOM      4  C   UNL     1       5.703   6.811  61.937  0.00  0.00    +0.000 C 
BRANCH   4   5
ATOM      5  C   UNL     1       6.416   8.015  61.312  0.00  0.00    +0.000 C 
ATOM      6  C   UNL     1       7.128   9.217  60.685  0.00  0.00    +0.000 C 
BRANCH   6   7
ATOM      7  C   UNL     1       7.841  10.420  60.060  0.00  0.00    +0.000 C 
ATOM      8  C   UNL     1       8.554  11.622  59.434  0.00  0.00    +0.000 C 
BRANCH   8   9
ATOM      9  C   UNL     1       9.266  12.825  58.808  0.00  0.00    +0.000 C 
ATOM     10  C   UNL     1       9.978  14.028  58.182  0.00  0.00    +0.000 C 
BRANCH  10  11
ATOM     11  O   UNL     1      10.595  15.071  57.639  0.00  0.00    +0.000 OA
ATOM     12  H   UNL     1      11.279  14.773  57.016  0.00  0.00    +0.000 HD
ENDBRANCH  10  11
ENDBRANCH   8   9
ENDBRANCH   6   7
ENDBRANCH   4   5
ENDBRANCH   1   3
BRANCH   2  13
ATOM     13  C   UNL     1       3.065   2.345  64.252  0.00  0.00    +0.000 C 
BRANCH  13  14
ATOM     14  O   UNL     1       1.757   2.120  63.889  0.00  0.00    +0.000 OA
ATOM     15  H   UNL     1       1.490   1.202  64.063  0.00  0.00    +0.000 HD
ENDBRANCH  13  14
BRANCH  13  16
ATOM     16  C   UNL     1       3.679   1.461  65.176  0.00  0.00    +0.000 C 
ATOM     17  C   UNL     1       4.200   0.713  65.957  0.00  0.00    +0.000 C 
BRANCH  17  18
ATOM     18  C   UNL     1       4.865  -0.242  66.952  0.00  0.00    +0.000 C 
ATOM     19  C   UNL     1       5.387  -0.991  67.732  0.00  0.00    +0.000 C 
BRANCH  19  20
ATOM     20  C   UNL     1       6.004  -1.877  68.655  0.00  0.00    +0.000 C 
BRANCH  20  21
ATOM     21  C   UNL     1       7.158  -1.536  69.414  0.00  0.00    +0.000 C 
ATOM     22  C   UNL     1       8.231  -1.215  70.140  0.00  0.00    +0.000 C 
ENDBRANCH  20  21
BRANCH  20  23
ATOM     23  O   UNL     1       5.457  -3.133  68.821  0.00  0.00    +0.000 OA
ATOM     24  H   UNL     1       5.226  -3.543  67.970  0.00  0.00    +0.000 HD
ENDBRANCH  20  23
ENDBRANCH  19  20
ENDBRANCH  17  18
ENDBRANCH  13  16
ENDBRANCH   2  13
TORSDOF 12
ENDMDL
MODEL 6
REMARK VINA RESULT:      -2.8     10.886     14.794
REMARK  Name = 86311066_OplopantriolA.pdbqt.pdb
REMARK  12 active torsions:
REMARK  status: ('A' for Active; 'I' for Inactive)
REMARK    1  A    between atoms: C_1  and  C_3
REMARK    2  A    between atoms: C_2  and  C_13
REMARK    3  A    between atoms: C_4  and  C_5
REMARK    4  A    between atoms: C_6  and  C_7
REMARK    5  A    between atoms: C_8  and  C_9
REMARK    6  A    between atoms: C_10  and  O_11
REMARK    7  A    between atoms: C_13  and  O_14
REMARK    8  A    between atoms: C_13  and  C_16
REMARK    9  A    between atoms: C_17  and  C_18
REMARK   10  A    between atoms: C_19  and  C_20
REMARK   11  A    between atoms: C_20  and  C_21
REMARK   12  A    between atoms: C_20  and  O_23
REMARK                            x       y       z     vdW  Elec       q    Type
REMARK                         _______ _______ _______ _____ _____    ______ ____
ROOT
ATOM      1  C   UNL     1       4.167   0.934  65.686  0.00  0.00    +0.000 C 
ATOM      2  C   UNL     1       5.082   0.526  65.023  0.00  0.00    +0.000 C 
ENDROOT
BRANCH   1   3
ATOM      3  C   UNL     1       3.000   1.453  66.530  0.00  0.00    +0.000 C 
ATOM      4  C   UNL     1       1.832   1.971  67.374  0.00  0.00    +0.000 C 
BRANCH   4   5
ATOM      5  C   UNL     1       0.663   2.490  68.217  0.00  0.00    +0.000 C 
ATOM      6  C   UNL     1      -0.504   3.009  69.062  0.00  0.00    +0.000 C 
BRANCH   6   7
ATOM      7  C   UNL     1      -1.672   3.528  69.907  0.00  0.00    +0.000 C 
ATOM      8  C   UNL     1      -2.840   4.047  70.752  0.00  0.00    +0.000 C 
BRANCH   8   9
ATOM      9  C   UNL     1      -4.007   4.564  71.597  0.00  0.00    +0.000 C 
ATOM     10  C   UNL     1      -5.176   5.081  72.441  0.00  0.00    +0.000 C 
BRANCH  10  11
ATOM     11  O   UNL     1      -6.188   5.529  73.174  0.00  0.00    +0.000 OA
ATOM     12  H   UNL     1      -5.874   5.810  74.050  0.00  0.00    +0.000 HD
ENDBRANCH  10  11
ENDBRANCH   8   9
ENDBRANCH   6   7
ENDBRANCH   4   5
ENDBRANCH   1   3
BRANCH   2  13
ATOM     13  C   UNL     1       6.161   0.047  64.241  0.00  0.00    +0.000 C 
BRANCH  13  14
ATOM     14  O   UNL     1       6.835  -1.062  64.699  0.00  0.00    +0.000 OA
ATOM     15  H   UNL     1       6.507  -1.347  65.568  0.00  0.00    +0.000 HD
ENDBRANCH  13  14
BRANCH  13  16
ATOM     16  C   UNL     1       6.578   0.645  63.024  0.00  0.00    +0.000 C 
ATOM     17  C   UNL     1       6.931   1.151  61.994  0.00  0.00    +0.000 C 
BRANCH  17  18
ATOM     18  C   UNL     1       7.383   1.795  60.680  0.00  0.00    +0.000 C 
ATOM     19  C   UNL     1       7.737   2.299  59.650  0.00  0.00    +0.000 C 
BRANCH  19  20
ATOM     20  C   UNL     1       8.156   2.895  58.431  0.00  0.00    +0.000 C 
BRANCH  20  21
ATOM     21  C   UNL     1       9.225   3.830  58.345  0.00  0.00    +0.000 C 
ATOM     22  C   UNL     1      10.235   4.697  58.254  0.00  0.00    +0.000 C 
ENDBRANCH  20  21
BRANCH  20  23
ATOM     23  O   UNL     1       7.492   2.550  57.271  0.00  0.00    +0.000 OA
ATOM     24  H   UNL     1       6.816   1.868  57.430  0.00  0.00    +0.000 HD
ENDBRANCH  20  23
ENDBRANCH  19  20
ENDBRANCH  17  18
ENDBRANCH  13  16
ENDBRANCH   2  13
TORSDOF 12
ENDMDL
MODEL 7
REMARK VINA RESULT:      -2.8     14.366     21.920
REMARK  Name = 86311066_OplopantriolA.pdbqt.pdb
REMARK  12 active torsions:
REMARK  status: ('A' for Active; 'I' for Inactive)
REMARK    1  A    between atoms: C_1  and  C_3
REMARK    2  A    between atoms: C_2  and  C_13
REMARK    3  A    between atoms: C_4  and  C_5
REMARK    4  A    between atoms: C_6  and  C_7
REMARK    5  A    between atoms: C_8  and  C_9
REMARK    6  A    between atoms: C_10  and  O_11
REMARK    7  A    between atoms: C_13  and  O_14
REMARK    8  A    between atoms: C_13  and  C_16
REMARK    9  A    between atoms: C_17  and  C_18
REMARK   10  A    between atoms: C_19  and  C_20
REMARK   11  A    between atoms: C_20  and  C_21
REMARK   12  A    between atoms: C_20  and  O_23
REMARK                            x       y       z     vdW  Elec       q    Type
REMARK                         _______ _______ _______ _____ _____    ______ ____
ROOT
ATOM      1  C   UNL     1       4.065  11.793  65.385  0.00  0.00    +0.000 C 
ATOM      2  C   UNL     1       3.185  11.692  66.197  0.00  0.00    +0.000 C 
ENDROOT
BRANCH   1   3
ATOM      3  C   UNL     1       5.186  11.923  64.351  0.00  0.00    +0.000 C 
ATOM      4  C   UNL     1       6.307  12.053  63.316  0.00  0.00    +0.000 C 
BRANCH   4   5
ATOM      5  C   UNL     1       7.429  12.181  62.281  0.00  0.00    +0.000 C 
ATOM      6  C   UNL     1       8.551  12.312  61.246  0.00  0.00    +0.000 C 
BRANCH   6   7
ATOM      7  C   UNL     1       9.673  12.443  60.211  0.00  0.00    +0.000 C 
ATOM      8  C   UNL     1      10.794  12.573  59.176  0.00  0.00    +0.000 C 
BRANCH   8   9
ATOM      9  C   UNL     1      11.916  12.704  58.141  0.00  0.00    +0.000 C 
ATOM     10  C   UNL     1      13.037  12.836  57.106  0.00  0.00    +0.000 C 
BRANCH  10  11
ATOM     11  O   UNL     1      14.009  12.950  56.209  0.00  0.00    +0.000 OA
ATOM     12  H   UNL     1      14.259  13.883  56.098  0.00  0.00    +0.000 HD
ENDBRANCH  10  11
ENDBRANCH   8   9
ENDBRANCH   6   7
ENDBRANCH   4   5
ENDBRANCH   1   3
BRANCH   2  13
ATOM     13  C   UNL     1       2.146  11.572  67.152  0.00  0.00    +0.000 C 
BRANCH  13  14
ATOM     14  O   UNL     1       0.940  12.166  66.858  0.00  0.00    +0.000 OA
ATOM     15  H   UNL     1       0.344  12.165  67.626  0.00  0.00    +0.000 HD
ENDBRANCH  13  14
BRANCH  13  16
ATOM     16  C   UNL     1       2.285  10.879  68.382  0.00  0.00    +0.000 C 
ATOM     17  C   UNL     1       2.403  10.293  69.423  0.00  0.00    +0.000 C 
BRANCH  17  18
ATOM     18  C   UNL     1       2.556   9.547  70.751  0.00  0.00    +0.000 C 
ATOM     19  C   UNL     1       2.676   8.962  71.793  0.00  0.00    +0.000 C 
BRANCH  19  20
ATOM     20  C   UNL     1       2.816   8.270  73.025  0.00  0.00    +0.000 C 
BRANCH  20  21
ATOM     21  C   UNL     1       1.993   8.518  74.159  0.00  0.00    +0.000 C 
ATOM     22  C   UNL     1       1.211   8.739  75.219  0.00  0.00    +0.000 C 
ENDBRANCH  20  21
BRANCH  20  23
ATOM     23  O   UNL     1       3.802   7.310  73.129  0.00  0.00    +0.000 OA
ATOM     24  H   UNL     1       4.381   7.300  72.347  0.00  0.00    +0.000 HD
ENDBRANCH  20  23
ENDBRANCH  19  20
ENDBRANCH  17  18
ENDBRANCH  13  16
ENDBRANCH   2  13
TORSDOF 12
ENDMDL
MODEL 8
REMARK VINA RESULT:      -2.8     12.660     13.031
REMARK  Name = 86311066_OplopantriolA.pdbqt.pdb
REMARK  12 active torsions:
REMARK  status: ('A' for Active; 'I' for Inactive)
REMARK    1  A    between atoms: C_1  and  C_3
REMARK    2  A    between atoms: C_2  and  C_13
REMARK    3  A    between atoms: C_4  and  C_5
REMARK    4  A    between atoms: C_6  and  C_7
REMARK    5  A    between atoms: C_8  and  C_9
REMARK    6  A    between atoms: C_10  and  O_11
REMARK    7  A    between atoms: C_13  and  O_14
REMARK    8  A    between atoms: C_13  and  C_16
REMARK    9  A    between atoms: C_17  and  C_18
REMARK   10  A    between atoms: C_19  and  C_20
REMARK   11  A    between atoms: C_20  and  C_21
REMARK   12  A    between atoms: C_20  and  O_23
REMARK                            x       y       z     vdW  Elec       q    Type
REMARK                         _______ _______ _______ _____ _____    ______ ____
ROOT
ATOM      1  C   UNL     1       8.264  10.911  59.996  0.00  0.00    +0.000 C 
ATOM      2  C   UNL     1       8.864  11.845  59.536  0.00  0.00    +0.000 C 
ENDROOT
BRANCH   1   3
ATOM      3  C   UNL     1       7.500   9.722  60.584  0.00  0.00    +0.000 C 
ATOM      4  C   UNL     1       6.735   8.532  61.171  0.00  0.00    +0.000 C 
BRANCH   4   5
ATOM      5  C   UNL     1       5.970   7.342  61.759  0.00  0.00    +0.000 C 
ATOM      6  C   UNL     1       5.204   6.152  62.344  0.00  0.00    +0.000 C 
BRANCH   6   7
ATOM      7  C   UNL     1       4.439   4.962  62.930  0.00  0.00    +0.000 C 
ATOM      8  C   UNL     1       3.673   3.772  63.516  0.00  0.00    +0.000 C 
BRANCH   8   9
ATOM      9  C   UNL     1       2.907   2.581  64.101  0.00  0.00    +0.000 C 
ATOM     10  C   UNL     1       2.140   1.391  64.686  0.00  0.00    +0.000 C 
BRANCH  10  11
ATOM     11  O   UNL     1       1.475   0.360  65.192  0.00  0.00    +0.000 OA
ATOM     12  H   UNL     1       1.898  -0.476  64.931  0.00  0.00    +0.000 HD
ENDBRANCH  10  11
ENDBRANCH   8   9
ENDBRANCH   6   7
ENDBRANCH   4   5
ENDBRANCH   1   3
BRANCH   2  13
ATOM     13  C   UNL     1       9.572  12.944  58.993  0.00  0.00    +0.000 C 
BRANCH  13  14
ATOM     14  O   UNL     1       8.955  14.174  59.020  0.00  0.00    +0.000 OA
ATOM     15  H   UNL     1       8.810  14.522  58.124  0.00  0.00    +0.000 HD
ENDBRANCH  13  14
BRANCH  13  16
ATOM     16  C   UNL     1      10.870  12.843  58.429  0.00  0.00    +0.000 C 
ATOM     17  C   UNL     1      11.969  12.757  57.952  0.00  0.00    +0.000 C 
BRANCH  17  18
ATOM     18  C   UNL     1      13.370  12.645  57.346  0.00  0.00    +0.000 C 
ATOM     19  C   UNL     1      14.469  12.557  56.870  0.00  0.00    +0.000 C 
BRANCH  19  20
ATOM     20  C   UNL     1      15.769  12.452  56.308  0.00  0.00    +0.000 C 
BRANCH  20  21
ATOM     21  C   UNL     1      16.346  13.457  55.482  0.00  0.00    +0.000 C 
ATOM     22  C   UNL     1      16.898  14.388  54.702  0.00  0.00    +0.000 C 
ENDBRANCH  20  21
BRANCH  20  23
ATOM     23  O   UNL     1      16.509  11.318  56.576  0.00  0.00    +0.000 OA
ATOM     24  H   UNL     1      17.344  11.305  56.077  0.00  0.00    +0.000 HD
ENDBRANCH  20  23
ENDBRANCH  19  20
ENDBRANCH  17  18
ENDBRANCH  13  16
ENDBRANCH   2  13
TORSDOF 12
ENDMDL
MODEL 9
REMARK VINA RESULT:      -2.8     11.750     16.136
REMARK  Name = 86311066_OplopantriolA.pdbqt.pdb
REMARK  12 active torsions:
REMARK  status: ('A' for Active; 'I' for Inactive)
REMARK    1  A    between atoms: C_1  and  C_3
REMARK    2  A    between atoms: C_2  and  C_13
REMARK    3  A    between atoms: C_4  and  C_5
REMARK    4  A    between atoms: C_6  and  C_7
REMARK    5  A    between atoms: C_8  and  C_9
REMARK    6  A    between atoms: C_10  and  O_11
REMARK    7  A    between atoms: C_13  and  O_14
REMARK    8  A    between atoms: C_13  and  C_16
REMARK    9  A    between atoms: C_17  and  C_18
REMARK   10  A    between atoms: C_19  and  C_20
REMARK   11  A    between atoms: C_20  and  C_21
REMARK   12  A    between atoms: C_20  and  O_23
REMARK                            x       y       z     vdW  Elec       q    Type
REMARK                         _______ _______ _______ _____ _____    ______ ____
ROOT
ATOM      1  C   UNL     1       7.848  -1.008  67.787  0.00  0.00    +0.000 C 
ATOM      2  C   UNL     1       6.664  -1.012  67.584  0.00  0.00    +0.000 C 
ENDROOT
BRANCH   1   3
ATOM      3  C   UNL     1       9.357  -1.003  68.046  0.00  0.00    +0.000 C 
ATOM      4  C   UNL     1      10.867  -0.997  68.304  0.00  0.00    +0.000 C 
BRANCH   4   5
ATOM      5  C   UNL     1      12.377  -0.991  68.562  0.00  0.00    +0.000 C 
ATOM      6  C   UNL     1      13.887  -0.987  68.819  0.00  0.00    +0.000 C 
BRANCH   6   7
ATOM      7  C   UNL     1      15.397  -0.982  69.076  0.00  0.00    +0.000 C 
ATOM      8  C   UNL     1      16.907  -0.978  69.334  0.00  0.00    +0.000 C 
BRANCH   8   9
ATOM      9  C   UNL     1      18.417  -0.973  69.590  0.00  0.00    +0.000 C 
ATOM     10  C   UNL     1      19.927  -0.968  69.846  0.00  0.00    +0.000 C 
BRANCH  10  11
ATOM     11  O   UNL     1      21.235  -0.965  70.069  0.00  0.00    +0.000 OA
ATOM     12  H   UNL     1      21.642  -1.772  69.711  0.00  0.00    +0.000 HD
ENDBRANCH  10  11
ENDBRANCH   8   9
ENDBRANCH   6   7
ENDBRANCH   4   5
ENDBRANCH   1   3
BRANCH   2  13
ATOM     13  C   UNL     1       5.268  -1.015  67.344  0.00  0.00    +0.000 C 
BRANCH  13  14
ATOM     14  O   UNL     1       4.659  -2.235  67.157  0.00  0.00    +0.000 OA
ATOM     15  H   UNL     1       3.851  -2.317  67.690  0.00  0.00    +0.000 HD
ENDBRANCH  13  14
BRANCH  13  16
ATOM     16  C   UNL     1       4.477   0.161  67.287  0.00  0.00    +0.000 C 
ATOM     17  C   UNL     1       3.808   1.156  67.238  0.00  0.00    +0.000 C 
BRANCH  17  18
ATOM     18  C   UNL     1       2.956   2.427  67.176  0.00  0.00    +0.000 C 
ATOM     19  C   UNL     1       2.288   3.423  67.127  0.00  0.00    +0.000 C 
BRANCH  19  20
ATOM     20  C   UNL     1       1.497   4.601  67.069  0.00  0.00    +0.000 C 
BRANCH  20  21
ATOM     21  C   UNL     1       1.890   5.836  67.656  0.00  0.00    +0.000 C 
ATOM     22  C   UNL     1       2.266   6.987  68.218  0.00  0.00    +0.000 C 
ENDBRANCH  20  21
BRANCH  20  23
ATOM     23  O   UNL     1       0.284   4.544  66.412  0.00  0.00    +0.000 OA
ATOM     24  H   UNL     1       0.192   5.261  65.761  0.00  0.00    +0.000 HD
ENDBRANCH  20  23
ENDBRANCH  19  20
ENDBRANCH  17  18
ENDBRANCH  13  16
ENDBRANCH   2  13
TORSDOF 12
ENDMDL
