MODEL 1
REMARK VINA RESULT:      -5.8      0.000      0.000
REMARK  Name = 91746246_sitosterol.pdbqt.pdb
REMARK  10 active torsions:
REMARK  status: ('A' for Active; 'I' for Inactive)
REMARK    1  A    between atoms: C_5  and  C_20
REMARK    2  A    between atoms: C_19  and  O_30
REMARK    3  A    between atoms: C_20  and  C_22
REMARK    4  A    between atoms: C_23  and  C_24
REMARK    5  A    between atoms: C_24  and  C_28
REMARK    6  A    between atoms: O_30  and  C_32
REMARK    7  A    between atoms: C_32  and  C_33
REMARK    8  A    between atoms: C_34  and  C_35
REMARK    9  A    between atoms: C_38  and  O_41
REMARK   10  A    between atoms: C_40  and  O_43
REMARK                            x       y       z     vdW  Elec       q    Type
REMARK                         _______ _______ _______ _____ _____    ______ ____
ROOT
ATOM      1  C   UNL     1       6.289   3.756  58.991  0.00  0.00    +0.000 C 
ATOM      2  C   UNL     1       6.785   5.082  58.202  0.00  0.00    +0.000 C 
ATOM      3  C   UNL     1       6.377   6.442  58.610  0.00  0.00    +0.000 C 
ATOM      4  C   UNL     1       5.695   6.811  59.904  0.00  0.00    +0.000 C 
ATOM      5  C   UNL     1       7.556   2.915  59.080  0.00  0.00    +0.000 C 
ATOM      6  C   UNL     1       5.787   4.255  60.271  0.00  0.00    +0.000 C 
ATOM      7  C   UNL     1       5.239   8.251  60.256  0.00  0.00    +0.000 C 
ATOM      8  C   UNL     1       8.121   4.836  57.755  0.00  0.00    +0.000 C 
ATOM      9  C   UNL     1       5.476   5.665  60.713  0.00  0.00    +0.000 C 
ATOM     10  C   UNL     1       8.596   3.524  58.318  0.00  0.00    +0.000 C 
ATOM     11  C   UNL     1       6.749   7.576  57.847  0.00  0.00    +0.000 C 
ATOM     12  C   UNL     1       5.221   3.071  58.098  0.00  0.00    +0.000 C 
ATOM     13  C   UNL     1       5.949   9.424  59.335  0.00  0.00    +0.000 C 
ATOM     14  C   UNL     1       5.648   8.601  61.648  0.00  0.00    +0.000 C 
ATOM     15  C   UNL     1       6.518   9.002  58.248  0.00  0.00    +0.000 C 
ATOM     16  C   UNL     1       3.701   8.370  60.049  0.00  0.00    +0.000 C 
ATOM     17  C   UNL     1       6.611  10.475  60.074  0.00  0.00    +0.000 C 
ATOM     18  C   UNL     1       6.428   9.772  62.268  0.00  0.00    +0.000 C 
ATOM     19  C   UNL     1       6.953  10.815  61.431  0.00  0.00    +0.000 C 
ENDROOT
BRANCH   5  20
ATOM     20  C   UNL     1       7.608   1.596  59.623  0.00  0.00    +0.000 C 
ATOM     21  C   UNL     1       7.918   0.389  58.778  0.00  0.00    +0.000 C 
BRANCH  20  22
ATOM     22  C   UNL     1       7.124   1.324  60.934  0.00  0.00    +0.000 C 
ATOM     23  C   UNL     1       6.602   1.027  62.348  0.00  0.00    +0.000 C 
BRANCH  23  24
ATOM     24  C   UNL     1       6.103   0.743  63.655  0.00  0.00    +0.000 C 
ATOM     25  C   UNL     1       4.904   1.383  64.154  0.00  0.00    +0.000 C 
ATOM     26  C   UNL     1       4.355   1.150  65.545  0.00  0.00    +0.000 C 
ATOM     27  C   UNL     1       4.084   2.347  63.322  0.00  0.00    +0.000 C 
BRANCH  24  28
ATOM     28  C   UNL     1       6.795  -0.182  64.482  0.00  0.00    +0.000 C 
ATOM     29  C   UNL     1       7.594  -1.135  65.378  0.00  0.00    +0.000 C 
ENDBRANCH  24  28
ENDBRANCH  23  24
ENDBRANCH  20  22
ENDBRANCH   5  20
BRANCH  19  30
ATOM     30  O   UNL     1       6.871  12.148  61.819  0.00  0.00    +0.000 OA
BRANCH  30  32
ATOM     31  O   UNL     1       7.964  12.835  63.753  0.00  0.00    +0.000 OA
ATOM     32  C   UNL     1       7.947  12.519  62.573  0.00  0.00    +0.000 C 
BRANCH  32  33
ATOM     33  C   UNL     1       9.168  12.475  61.808  0.00  0.00    +0.000 C 
ATOM     34  C   UNL     1      10.177  12.444  61.156  0.00  0.00    +0.000 C 
BRANCH  34  35
ATOM     35  C   UNL     1      11.363  12.411  60.366  0.00  0.00    +0.000 A 
ATOM     36  C   UNL     1      12.604  12.272  60.986  0.00  0.00    +0.000 A 
ATOM     37  C   UNL     1      11.283  12.525  58.980  0.00  0.00    +0.000 A 
ATOM     38  C   UNL     1      13.779  12.243  60.230  0.00  0.00    +0.000 A 
ATOM     39  C   UNL     1      12.446  12.498  58.214  0.00  0.00    +0.000 A 
ATOM     40  C   UNL     1      13.684  12.359  58.841  0.00  0.00    +0.000 A 
BRANCH  38  41
ATOM     41  O   UNL     1      15.039  12.111  60.761  0.00  0.00    +0.000 OA
ATOM     42  C   UNL     1      15.421  10.802  61.094  0.00  0.00    +0.000 C 
ENDBRANCH  38  41
BRANCH  40  43
ATOM     43  O   UNL     1      14.823  12.336  58.083  0.00  0.00    +0.000 OA
ATOM     44  H   UNL     1      14.861  11.487  57.603  0.00  0.00    +0.000 HD
ENDBRANCH  40  43
ENDBRANCH  34  35
ENDBRANCH  32  33
ENDBRANCH  30  32
ENDBRANCH  19  30
TORSDOF 10
ENDMDL
MODEL 2
REMARK VINA RESULT:      -5.6     11.290     15.175
REMARK  Name = 91746246_sitosterol.pdbqt.pdb
REMARK  10 active torsions:
REMARK  status: ('A' for Active; 'I' for Inactive)
REMARK    1  A    between atoms: C_5  and  C_20
REMARK    2  A    between atoms: C_19  and  O_30
REMARK    3  A    between atoms: C_20  and  C_22
REMARK    4  A    between atoms: C_23  and  C_24
REMARK    5  A    between atoms: C_24  and  C_28
REMARK    6  A    between atoms: O_30  and  C_32
REMARK    7  A    between atoms: C_32  and  C_33
REMARK    8  A    between atoms: C_34  and  C_35
REMARK    9  A    between atoms: C_38  and  O_41
REMARK   10  A    between atoms: C_40  and  O_43
REMARK                            x       y       z     vdW  Elec       q    Type
REMARK                         _______ _______ _______ _____ _____    ______ ____
ROOT
ATOM      1  C   UNL     1      13.355   2.891  74.436  0.00  0.00    +0.000 C 
ATOM      2  C   UNL     1      14.015   2.763  72.961  0.00  0.00    +0.000 C 
ATOM      3  C   UNL     1      13.799   1.582  72.100  0.00  0.00    +0.000 C 
ATOM      4  C   UNL     1      12.779   0.495  72.328  0.00  0.00    +0.000 C 
ATOM      5  C   UNL     1      12.864   4.333  74.469  0.00  0.00    +0.000 C 
ATOM      6  C   UNL     1      12.301   1.878  74.457  0.00  0.00    +0.000 C 
ATOM      7  C   UNL     1      12.633  -0.753  71.418  0.00  0.00    +0.000 C 
ATOM      8  C   UNL     1      14.039   4.074  72.391  0.00  0.00    +0.000 C 
ATOM      9  C   UNL     1      12.026   0.738  73.508  0.00  0.00    +0.000 C 
ATOM     10  C   UNL     1      13.310   5.023  73.303  0.00  0.00    +0.000 C 
ATOM     11  C   UNL     1      14.462   1.455  70.855  0.00  0.00    +0.000 C 
ATOM     12  C   UNL     1      14.496   2.662  75.464  0.00  0.00    +0.000 C 
ATOM     13  C   UNL     1      13.349  -0.593  69.940  0.00  0.00    +0.000 C 
ATOM     14  C   UNL     1      11.196  -0.993  71.091  0.00  0.00    +0.000 C 
ATOM     15  C   UNL     1      14.203   0.379  69.843  0.00  0.00    +0.000 C 
ATOM     16  C   UNL     1      13.288  -1.980  72.118  0.00  0.00    +0.000 C 
ATOM     17  C   UNL     1      12.489  -0.845  68.805  0.00  0.00    +0.000 C 
ATOM     18  C   UNL     1      10.421  -1.187  69.777  0.00  0.00    +0.000 C 
ATOM     19  C   UNL     1      11.107  -1.124  68.517  0.00  0.00    +0.000 C 
ENDROOT
BRANCH   5  20
ATOM     20  C   UNL     1      12.279   4.956  75.612  0.00  0.00    +0.000 C 
ATOM     21  C   UNL     1      13.040   5.921  76.481  0.00  0.00    +0.000 C 
BRANCH  20  22
ATOM     22  C   UNL     1      11.033   4.509  76.133  0.00  0.00    +0.000 C 
ATOM     23  C   UNL     1       9.688   4.024  76.696  0.00  0.00    +0.000 C 
BRANCH  23  24
ATOM     24  C   UNL     1       8.442   3.557  77.213  0.00  0.00    +0.000 C 
ATOM     25  C   UNL     1       7.997   2.198  76.983  0.00  0.00    +0.000 C 
ATOM     26  C   UNL     1       6.669   1.664  77.473  0.00  0.00    +0.000 C 
ATOM     27  C   UNL     1       8.829   1.181  76.230  0.00  0.00    +0.000 C 
BRANCH  24  28
ATOM     28  C   UNL     1       7.623   4.440  77.966  0.00  0.00    +0.000 C 
ATOM     29  C   UNL     1       6.764   5.446  78.741  0.00  0.00    +0.000 C 
ENDBRANCH  24  28
ENDBRANCH  23  24
ENDBRANCH  20  22
ENDBRANCH   5  20
BRANCH  19  30
ATOM     30  O   UNL     1      10.812  -2.027  67.500  0.00  0.00    +0.000 OA
BRANCH  30  32
ATOM     31  O   UNL     1       9.560  -1.024  65.817  0.00  0.00    +0.000 OA
ATOM     32  C   UNL     1      10.616  -1.394  66.306  0.00  0.00    +0.000 C 
BRANCH  32  33
ATOM     33  C   UNL     1      11.864  -1.149  65.627  0.00  0.00    +0.000 C 
ATOM     34  C   UNL     1      12.913  -0.943  65.077  0.00  0.00    +0.000 C 
BRANCH  34  35
ATOM     35  C   UNL     1      14.166  -0.696  64.443  0.00  0.00    +0.000 A 
ATOM     36  C   UNL     1      15.229  -0.187  65.186  0.00  0.00    +0.000 A 
ATOM     37  C   UNL     1      14.324  -0.958  63.084  0.00  0.00    +0.000 A 
ATOM     38  C   UNL     1      16.464   0.067  64.581  0.00  0.00    +0.000 A 
ATOM     39  C   UNL     1      15.548  -0.710  62.468  0.00  0.00    +0.000 A 
ATOM     40  C   UNL     1      16.608  -0.199  63.217  0.00  0.00    +0.000 A 
BRANCH  38  41
ATOM     41  O   UNL     1      17.560   0.569  65.239  0.00  0.00    +0.000 OA
ATOM     42  C   UNL     1      17.473   1.919  65.616  0.00  0.00    +0.000 C 
ENDBRANCH  38  41
BRANCH  40  43
ATOM     43  O   UNL     1      17.808   0.044  62.606  0.00  0.00    +0.000 OA
ATOM     44  H   UNL     1      18.358  -0.759  62.667  0.00  0.00    +0.000 HD
ENDBRANCH  40  43
ENDBRANCH  34  35
ENDBRANCH  32  33
ENDBRANCH  30  32
ENDBRANCH  19  30
TORSDOF 10
ENDMDL
MODEL 3
REMARK VINA RESULT:      -5.4     11.761     16.197
REMARK  Name = 91746246_sitosterol.pdbqt.pdb
REMARK  10 active torsions:
REMARK  status: ('A' for Active; 'I' for Inactive)
REMARK    1  A    between atoms: C_5  and  C_20
REMARK    2  A    between atoms: C_19  and  O_30
REMARK    3  A    between atoms: C_20  and  C_22
REMARK    4  A    between atoms: C_23  and  C_24
REMARK    5  A    between atoms: C_24  and  C_28
REMARK    6  A    between atoms: O_30  and  C_32
REMARK    7  A    between atoms: C_32  and  C_33
REMARK    8  A    between atoms: C_34  and  C_35
REMARK    9  A    between atoms: C_38  and  O_41
REMARK   10  A    between atoms: C_40  and  O_43
REMARK                            x       y       z     vdW  Elec       q    Type
REMARK                         _______ _______ _______ _____ _____    ______ ____
ROOT
ATOM      1  C   UNL     1       3.460   9.791  73.326  0.00  0.00    +0.000 C 
ATOM      2  C   UNL     1       4.430   9.830  74.624  0.00  0.00    +0.000 C 
ATOM      3  C   UNL     1       4.519   8.705  75.577  0.00  0.00    +0.000 C 
ATOM      4  C   UNL     1       3.961   7.319  75.365  0.00  0.00    +0.000 C 
ATOM      5  C   UNL     1       4.337  10.371  72.224  0.00  0.00    +0.000 C 
ATOM      6  C   UNL     1       3.117   8.378  73.165  0.00  0.00    +0.000 C 
ATOM      7  C   UNL     1       4.038   6.190  76.426  0.00  0.00    +0.000 C 
ATOM      8  C   UNL     1       5.607  10.554  74.254  0.00  0.00    +0.000 C 
ATOM      9  C   UNL     1       3.313   7.215  74.106  0.00  0.00    +0.000 C 
ATOM     10  C   UNL     1       5.556  10.857  72.781  0.00  0.00    +0.000 C 
ATOM     11  C   UNL     1       5.304   8.803  76.752  0.00  0.00    +0.000 C 
ATOM     12  C   UNL     1       2.255  10.720  73.634  0.00  0.00    +0.000 C 
ATOM     13  C   UNL     1       5.157   6.455  77.609  0.00  0.00    +0.000 C 
ATOM     14  C   UNL     1       4.486   4.913  75.795  0.00  0.00    +0.000 C 
ATOM     15  C   UNL     1       5.583   7.677  77.703  0.00  0.00    +0.000 C 
ATOM     16  C   UNL     1       2.654   6.045  77.124  0.00  0.00    +0.000 C 
ATOM     17  C   UNL     1       6.120   5.393  77.799  0.00  0.00    +0.000 C 
ATOM     18  C   UNL     1       5.607   3.907  76.106  0.00  0.00    +0.000 C 
ATOM     19  C   UNL     1       6.504   4.141  77.202  0.00  0.00    +0.000 C 
ENDROOT
BRANCH   5  20
ATOM     20  C   UNL     1       3.890  10.624  70.892  0.00  0.00    +0.000 C 
ATOM     21  C   UNL     1       4.127  11.940  70.200  0.00  0.00    +0.000 C 
BRANCH  20  22
ATOM     22  C   UNL     1       2.984   9.740  70.243  0.00  0.00    +0.000 C 
ATOM     23  C   UNL     1       2.005   8.787  69.539  0.00  0.00    +0.000 C 
BRANCH  23  24
ATOM     24  C   UNL     1       1.087   7.915  68.880  0.00  0.00    +0.000 C 
ATOM     25  C   UNL     1      -0.342   8.055  69.062  0.00  0.00    +0.000 C 
ATOM     26  C   UNL     1      -1.356   7.133  68.421  0.00  0.00    +0.000 C 
ATOM     27  C   UNL     1      -0.955   9.146  69.916  0.00  0.00    +0.000 C 
BRANCH  24  28
ATOM     28  C   UNL     1       1.584   6.891  68.029  0.00  0.00    +0.000 C 
ATOM     29  C   UNL     1       2.085   5.816  67.058  0.00  0.00    +0.000 C 
ENDBRANCH  24  28
ENDBRANCH  23  24
ENDBRANCH  20  22
ENDBRANCH   5  20
BRANCH  19  30
ATOM     30  O   UNL     1       6.890   3.100  78.041  0.00  0.00    +0.000 OA
BRANCH  30  32
ATOM     31  O   UNL     1       8.393   3.586  79.747  0.00  0.00    +0.000 OA
ATOM     32  C   UNL     1       8.121   3.322  78.586  0.00  0.00    +0.000 C 
BRANCH  32  33
ATOM     33  C   UNL     1       9.167   3.176  77.604  0.00  0.00    +0.000 C 
ATOM     34  C   UNL     1      10.026   3.057  76.772  0.00  0.00    +0.000 C 
BRANCH  34  35
ATOM     35  C   UNL     1      11.032   2.917  75.771  0.00  0.00    +0.000 A 
ATOM     36  C   UNL     1      11.194   1.695  75.119  0.00  0.00    +0.000 A 
ATOM     37  C   UNL     1      11.854   3.994  75.451  0.00  0.00    +0.000 A 
ATOM     38  C   UNL     1      12.177   1.536  74.139  0.00  0.00    +0.000 A 
ATOM     39  C   UNL     1      12.838   3.850  74.476  0.00  0.00    +0.000 A 
ATOM     40  C   UNL     1      12.996   2.625  73.829  0.00  0.00    +0.000 A 
BRANCH  38  41
ATOM     41  O   UNL     1      12.404   0.368  73.452  0.00  0.00    +0.000 OA
ATOM     42  C   UNL     1      12.276  -0.811  74.204  0.00  0.00    +0.000 C 
ENDBRANCH  38  41
BRANCH  40  43
ATOM     43  O   UNL     1      13.966   2.489  72.874  0.00  0.00    +0.000 OA
ATOM     44  H   UNL     1      14.508   1.707  73.088  0.00  0.00    +0.000 HD
ENDBRANCH  40  43
ENDBRANCH  34  35
ENDBRANCH  32  33
ENDBRANCH  30  32
ENDBRANCH  19  30
TORSDOF 10
ENDMDL
MODEL 4
REMARK VINA RESULT:      -5.4      4.904      9.952
REMARK  Name = 91746246_sitosterol.pdbqt.pdb
REMARK  10 active torsions:
REMARK  status: ('A' for Active; 'I' for Inactive)
REMARK    1  A    between atoms: C_5  and  C_20
REMARK    2  A    between atoms: C_19  and  O_30
REMARK    3  A    between atoms: C_20  and  C_22
REMARK    4  A    between atoms: C_23  and  C_24
REMARK    5  A    between atoms: C_24  and  C_28
REMARK    6  A    between atoms: O_30  and  C_32
REMARK    7  A    between atoms: C_32  and  C_33
REMARK    8  A    between atoms: C_34  and  C_35
REMARK    9  A    between atoms: C_38  and  O_41
REMARK   10  A    between atoms: C_40  and  O_43
REMARK                            x       y       z     vdW  Elec       q    Type
REMARK                         _______ _______ _______ _____ _____    ______ ____
ROOT
ATOM      1  C   UNL     1       8.139  -1.738  67.773  0.00  0.00    +0.000 C 
ATOM      2  C   UNL     1       8.243  -1.098  66.288  0.00  0.00    +0.000 C 
ATOM      3  C   UNL     1       7.053  -0.658  65.532  0.00  0.00    +0.000 C 
ATOM      4  C   UNL     1       5.661  -0.495  66.090  0.00  0.00    +0.000 C 
ATOM      5  C   UNL     1       9.279  -1.059  68.521  0.00  0.00    +0.000 C 
ATOM      6  C   UNL     1       6.798  -1.381  68.234  0.00  0.00    +0.000 C 
ATOM      7  C   UNL     1       4.434  -0.082  65.235  0.00  0.00    +0.000 C 
ATOM      8  C   UNL     1       9.450  -0.331  66.239  0.00  0.00    +0.000 C 
ATOM      9  C   UNL     1       5.620  -0.828  67.470  0.00  0.00    +0.000 C 
ATOM     10  C   UNL     1      10.063  -0.287  67.613  0.00  0.00    +0.000 C 
ATOM     11  C   UNL     1       7.165  -0.190  64.200  0.00  0.00    +0.000 C 
ATOM     12  C   UNL     1       8.390  -3.262  67.628  0.00  0.00    +0.000 C 
ATOM     13  C   UNL     1       4.826   0.605  63.787  0.00  0.00    +0.000 C 
ATOM     14  C   UNL     1       3.651   0.982  65.930  0.00  0.00    +0.000 C 
ATOM     15  C   UNL     1       6.051   0.417  63.400  0.00  0.00    +0.000 C 
ATOM     16  C   UNL     1       3.572  -1.341  64.930  0.00  0.00    +0.000 C 
ATOM     17  C   UNL     1       4.237   1.901  63.537  0.00  0.00    +0.000 C 
ATOM     18  C   UNL     1       3.143   2.374  65.517  0.00  0.00    +0.000 C 
ATOM     19  C   UNL     1       3.440   2.892  64.211  0.00  0.00    +0.000 C 
ENDROOT
BRANCH   5  20
ATOM     20  C   UNL     1       9.653  -1.364  69.865  0.00  0.00    +0.000 C 
ATOM     21  C   UNL     1       8.806  -2.230  70.758  0.00  0.00    +0.000 C 
BRANCH  20  22
ATOM     22  C   UNL     1      10.711  -0.664  70.508  0.00  0.00    +0.000 C 
ATOM     23  C   UNL     1      11.857   0.091  71.201  0.00  0.00    +0.000 C 
BRANCH  23  24
ATOM     24  C   UNL     1      12.926   0.776  71.852  0.00  0.00    +0.000 C 
ATOM     25  C   UNL     1      14.219   0.921  71.218  0.00  0.00    +0.000 C 
ATOM     26  C   UNL     1      15.398   1.601  71.879  0.00  0.00    +0.000 C 
ATOM     27  C   UNL     1      14.509   0.405  69.823  0.00  0.00    +0.000 C 
BRANCH  24  28
ATOM     28  C   UNL     1      12.720   1.325  73.146  0.00  0.00    +0.000 C 
ATOM     29  C   UNL     1      12.560   1.893  74.560  0.00  0.00    +0.000 C 
ENDBRANCH  24  28
ENDBRANCH  23  24
ENDBRANCH  20  22
ENDBRANCH   5  20
BRANCH  19  30
ATOM     30  O   UNL     1       2.471   3.572  63.478  0.00  0.00    +0.000 OA
BRANCH  30  32
ATOM     31  O   UNL     1       1.399   5.176  64.777  0.00  0.00    +0.000 OA
ATOM     32  C   UNL     1       2.252   4.824  63.975  0.00  0.00    +0.000 C 
BRANCH  32  33
ATOM     33  C   UNL     1       3.207   5.773  63.459  0.00  0.00    +0.000 C 
ATOM     34  C   UNL     1       4.010   6.550  63.016  0.00  0.00    +0.000 C 
BRANCH  34  35
ATOM     35  C   UNL     1       4.969   7.459  62.479  0.00  0.00    +0.000 A 
ATOM     36  C   UNL     1       5.824   7.040  61.461  0.00  0.00    +0.000 A 
ATOM     37  C   UNL     1       5.055   8.757  62.975  0.00  0.00    +0.000 A 
ATOM     38  C   UNL     1       6.774   7.913  60.925  0.00  0.00    +0.000 A 
ATOM     39  C   UNL     1       5.998   9.638  62.450  0.00  0.00    +0.000 A 
ATOM     40  C   UNL     1       6.850   9.213  61.432  0.00  0.00    +0.000 A 
BRANCH  38  41
ATOM     41  O   UNL     1       7.653   7.581  59.923  0.00  0.00    +0.000 OA
ATOM     42  C   UNL     1       7.078   7.358  58.662  0.00  0.00    +0.000 C 
ENDBRANCH  38  41
BRANCH  40  43
ATOM     43  O   UNL     1       7.775  10.082  60.923  0.00  0.00    +0.000 OA
ATOM     44  H   UNL     1       8.319   9.610  60.264  0.00  0.00    +0.000 HD
ENDBRANCH  40  43
ENDBRANCH  34  35
ENDBRANCH  32  33
ENDBRANCH  30  32
ENDBRANCH  19  30
TORSDOF 10
ENDMDL
MODEL 5
REMARK VINA RESULT:      -5.3      5.704     10.954
REMARK  Name = 91746246_sitosterol.pdbqt.pdb
REMARK  10 active torsions:
REMARK  status: ('A' for Active; 'I' for Inactive)
REMARK    1  A    between atoms: C_5  and  C_20
REMARK    2  A    between atoms: C_19  and  O_30
REMARK    3  A    between atoms: C_20  and  C_22
REMARK    4  A    between atoms: C_23  and  C_24
REMARK    5  A    between atoms: C_24  and  C_28
REMARK    6  A    between atoms: O_30  and  C_32
REMARK    7  A    between atoms: C_32  and  C_33
REMARK    8  A    between atoms: C_34  and  C_35
REMARK    9  A    between atoms: C_38  and  O_41
REMARK   10  A    between atoms: C_40  and  O_43
REMARK                            x       y       z     vdW  Elec       q    Type
REMARK                         _______ _______ _______ _____ _____    ______ ____
ROOT
ATOM      1  C   UNL     1       7.451  -1.984  69.189  0.00  0.00    +0.000 C 
ATOM      2  C   UNL     1       8.015  -1.382  67.794  0.00  0.00    +0.000 C 
ATOM      3  C   UNL     1       7.122  -1.005  66.679  0.00  0.00    +0.000 C 
ATOM      4  C   UNL     1       5.621  -0.875  66.751  0.00  0.00    +0.000 C 
ATOM      5  C   UNL     1       8.271  -1.245  70.238  0.00  0.00    +0.000 C 
ATOM      6  C   UNL     1       6.025  -1.660  69.179  0.00  0.00    +0.000 C 
ATOM      7  C   UNL     1       4.728  -0.528  65.531  0.00  0.00    +0.000 C 
ATOM      8  C   UNL     1       9.154  -0.576  68.108  0.00  0.00    +0.000 C 
ATOM      9  C   UNL     1       5.144  -1.170  68.056  0.00  0.00    +0.000 C 
ATOM     10  C   UNL     1       9.288  -0.473  69.603  0.00  0.00    +0.000 C 
ATOM     11  C   UNL     1       7.648  -0.571  65.437  0.00  0.00    +0.000 C 
ATOM     12  C   UNL     1       7.771  -3.502  69.190  0.00  0.00    +0.000 C 
ATOM     13  C   UNL     1       5.551   0.131  64.262  0.00  0.00    +0.000 C 
ATOM     14  C   UNL     1       3.737   0.527  65.896  0.00  0.00    +0.000 C 
ATOM     15  C   UNL     1       6.839  -0.025  64.298  0.00  0.00    +0.000 C 
ATOM     16  C   UNL     1       4.040  -1.825  65.012  0.00  0.00    +0.000 C 
ATOM     17  C   UNL     1       5.044   1.399  63.787  0.00  0.00    +0.000 C 
ATOM     18  C   UNL     1       3.358   1.888  65.289  0.00  0.00    +0.000 C 
ATOM     19  C   UNL     1       4.049   2.380  64.130  0.00  0.00    +0.000 C 
ENDROOT
BRANCH   5  20
ATOM     20  C   UNL     1       8.197  -1.499  71.641  0.00  0.00    +0.000 C 
ATOM     21  C   UNL     1       6.936  -1.982  72.306  0.00  0.00    +0.000 C 
BRANCH  20  22
ATOM     22  C   UNL     1       9.232  -1.072  72.519  0.00  0.00    +0.000 C 
ATOM     23  C   UNL     1      10.352  -0.611  73.465  0.00  0.00    +0.000 C 
BRANCH  23  24
ATOM     24  C   UNL     1      11.401  -0.198  74.340  0.00  0.00    +0.000 C 
ATOM     25  C   UNL     1      12.448  -1.114  74.740  0.00  0.00    +0.000 C 
ATOM     26  C   UNL     1      13.559  -0.740  75.696  0.00  0.00    +0.000 C 
ATOM     27  C   UNL     1      12.528  -2.538  74.229  0.00  0.00    +0.000 C 
BRANCH  24  28
ATOM     28  C   UNL     1      11.418   1.136  74.829  0.00  0.00    +0.000 C 
ATOM     29  C   UNL     1      11.393   2.555  75.408  0.00  0.00    +0.000 C 
ENDBRANCH  24  28
ENDBRANCH  23  24
ENDBRANCH  20  22
ENDBRANCH   5  20
BRANCH  19  30
ATOM     30  O   UNL     1       3.353   3.006  63.099  0.00  0.00    +0.000 OA
BRANCH  30  32
ATOM     31  O   UNL     1       3.296   5.211  63.836  0.00  0.00    +0.000 OA
ATOM     32  C   UNL     1       3.629   4.341  63.044  0.00  0.00    +0.000 C 
BRANCH  32  33
ATOM     33  C   UNL     1       4.439   4.667  61.897  0.00  0.00    +0.000 C 
ATOM     34  C   UNL     1       5.123   4.951  60.951  0.00  0.00    +0.000 C 
BRANCH  34  35
ATOM     35  C   UNL     1       5.943   5.303  59.839  0.00  0.00    +0.000 A 
ATOM     36  C   UNL     1       6.432   4.305  58.997  0.00  0.00    +0.000 A 
ATOM     37  C   UNL     1       6.260   6.637  59.599  0.00  0.00    +0.000 A 
ATOM     38  C   UNL     1       7.242   4.628  57.905  0.00  0.00    +0.000 A 
ATOM     39  C   UNL     1       7.067   6.974  58.514  0.00  0.00    +0.000 A 
ATOM     40  C   UNL     1       7.553   5.971  57.677  0.00  0.00    +0.000 A 
BRANCH  38  41
ATOM     41  O   UNL     1       7.766   3.708  57.030  0.00  0.00    +0.000 OA
ATOM     42  C   UNL     1       6.834   3.063  56.201  0.00  0.00    +0.000 C 
ENDBRANCH  38  41
BRANCH  40  43
ATOM     43  O   UNL     1       8.347   6.308  56.614  0.00  0.00    +0.000 OA
ATOM     44  H   UNL     1       9.082   5.670  56.559  0.00  0.00    +0.000 HD
ENDBRANCH  40  43
ENDBRANCH  34  35
ENDBRANCH  32  33
ENDBRANCH  30  32
ENDBRANCH  19  30
TORSDOF 10
ENDMDL
MODEL 6
REMARK VINA RESULT:      -5.3     11.170     16.180
REMARK  Name = 91746246_sitosterol.pdbqt.pdb
REMARK  10 active torsions:
REMARK  status: ('A' for Active; 'I' for Inactive)
REMARK    1  A    between atoms: C_5  and  C_20
REMARK    2  A    between atoms: C_19  and  O_30
REMARK    3  A    between atoms: C_20  and  C_22
REMARK    4  A    between atoms: C_23  and  C_24
REMARK    5  A    between atoms: C_24  and  C_28
REMARK    6  A    between atoms: O_30  and  C_32
REMARK    7  A    between atoms: C_32  and  C_33
REMARK    8  A    between atoms: C_34  and  C_35
REMARK    9  A    between atoms: C_38  and  O_41
REMARK   10  A    between atoms: C_40  and  O_43
REMARK                            x       y       z     vdW  Elec       q    Type
REMARK                         _______ _______ _______ _____ _____    ______ ____
ROOT
ATOM      1  C   UNL     1      19.488   1.865  52.560  0.00  0.00    +0.000 C 
ATOM      2  C   UNL     1      18.970   0.858  53.720  0.00  0.00    +0.000 C 
ATOM      3  C   UNL     1      19.788   0.534  54.907  0.00  0.00    +0.000 C 
ATOM      4  C   UNL     1      21.044   1.250  55.338  0.00  0.00    +0.000 C 
ATOM      5  C   UNL     1      18.258   2.716  52.270  0.00  0.00    +0.000 C 
ATOM      6  C   UNL     1      20.608   2.582  53.168  0.00  0.00    +0.000 C 
ATOM      7  C   UNL     1      21.894   0.831  56.567  0.00  0.00    +0.000 C 
ATOM      8  C   UNL     1      17.559   1.048  53.849  0.00  0.00    +0.000 C 
ATOM      9  C   UNL     1      21.367   2.303  54.442  0.00  0.00    +0.000 C 
ATOM     10  C   UNL     1      17.135   2.203  52.982  0.00  0.00    +0.000 C 
ATOM     11  C   UNL     1      19.351  -0.420  55.857  0.00  0.00    +0.000 C 
ATOM     12  C   UNL     1      19.867   0.989  51.336  0.00  0.00    +0.000 C 
ATOM     13  C   UNL     1      21.100  -0.152  57.628  0.00  0.00    +0.000 C 
ATOM     14  C   UNL     1      22.245   2.027  57.388  0.00  0.00    +0.000 C 
ATOM     15  C   UNL     1      20.025  -0.712  57.164  0.00  0.00    +0.000 C 
ATOM     16  C   UNL     1      23.157   0.062  56.080  0.00  0.00    +0.000 C 
ATOM     17  C   UNL     1      21.078   0.307  58.999  0.00  0.00    +0.000 C 
ATOM     18  C   UNL     1      22.092   2.380  58.877  0.00  0.00    +0.000 C 
ATOM     19  C   UNL     1      21.469   1.451  59.779  0.00  0.00    +0.000 C 
ENDROOT
BRANCH   5  20
ATOM     20  C   UNL     1      18.191   3.706  51.244  0.00  0.00    +0.000 C 
ATOM     21  C   UNL     1      18.312   3.361  49.784  0.00  0.00    +0.000 C 
BRANCH  20  22
ATOM     22  C   UNL     1      18.257   5.092  51.558  0.00  0.00    +0.000 C 
ATOM     23  C   UNL     1      18.329   6.589  51.899  0.00  0.00    +0.000 C 
BRANCH  23  24
ATOM     24  C   UNL     1      18.386   7.976  52.230  0.00  0.00    +0.000 C 
ATOM     25  C   UNL     1      18.330   8.995  51.203  0.00  0.00    +0.000 C 
ATOM     26  C   UNL     1      18.427  10.476  51.495  0.00  0.00    +0.000 C 
ATOM     27  C   UNL     1      18.163   8.667  49.734  0.00  0.00    +0.000 C 
BRANCH  24  28
ATOM     28  C   UNL     1      18.502   8.366  53.592  0.00  0.00    +0.000 C 
ATOM     29  C   UNL     1      18.689   8.812  55.046  0.00  0.00    +0.000 C 
ENDBRANCH  24  28
ENDBRANCH  23  24
ENDBRANCH  20  22
ENDBRANCH   5  20
BRANCH  19  30
ATOM     30  O   UNL     1      21.990   1.238  61.052  0.00  0.00    +0.000 OA
BRANCH  30  32
ATOM     31  O   UNL     1      21.724   2.989  62.559  0.00  0.00    +0.000 OA
ATOM     32  C   UNL     1      21.335   1.978  61.994  0.00  0.00    +0.000 C 
BRANCH  32  33
ATOM     33  C   UNL     1      20.024   1.443  62.268  0.00  0.00    +0.000 C 
ATOM     34  C   UNL     1      18.925   1.015  62.494  0.00  0.00    +0.000 C 
BRANCH  34  35
ATOM     35  C   UNL     1      17.612   0.525  62.761  0.00  0.00    +0.000 A 
ATOM     36  C   UNL     1      17.299   0.043  64.030  0.00  0.00    +0.000 A 
ATOM     37  C   UNL     1      16.650   0.522  61.754  0.00  0.00    +0.000 A 
ATOM     38  C   UNL     1      16.020  -0.446  64.310  0.00  0.00    +0.000 A 
ATOM     39  C   UNL     1      15.372   0.037  62.019  0.00  0.00    +0.000 A 
ATOM     40  C   UNL     1      15.065  -0.445  63.290  0.00  0.00    +0.000 A 
BRANCH  38  41
ATOM     41  O   UNL     1      15.630  -0.940  65.531  0.00  0.00    +0.000 OA
ATOM     42  C   UNL     1      15.947  -0.136  66.638  0.00  0.00    +0.000 C 
ENDBRANCH  38  41
BRANCH  40  43
ATOM     43  O   UNL     1      13.808  -0.922  63.544  0.00  0.00    +0.000 OA
ATOM     44  H   UNL     1      13.156  -0.286  63.194  0.00  0.00    +0.000 HD
ENDBRANCH  40  43
ENDBRANCH  34  35
ENDBRANCH  32  33
ENDBRANCH  30  32
ENDBRANCH  19  30
TORSDOF 10
ENDMDL
MODEL 7
REMARK VINA RESULT:      -5.3      4.332     12.143
REMARK  Name = 91746246_sitosterol.pdbqt.pdb
REMARK  10 active torsions:
REMARK  status: ('A' for Active; 'I' for Inactive)
REMARK    1  A    between atoms: C_5  and  C_20
REMARK    2  A    between atoms: C_19  and  O_30
REMARK    3  A    between atoms: C_20  and  C_22
REMARK    4  A    between atoms: C_23  and  C_24
REMARK    5  A    between atoms: C_24  and  C_28
REMARK    6  A    between atoms: O_30  and  C_32
REMARK    7  A    between atoms: C_32  and  C_33
REMARK    8  A    between atoms: C_34  and  C_35
REMARK    9  A    between atoms: C_38  and  O_41
REMARK   10  A    between atoms: C_40  and  O_43
REMARK                            x       y       z     vdW  Elec       q    Type
REMARK                         _______ _______ _______ _____ _____    ______ ____
ROOT
ATOM      1  C   UNL     1      18.154  11.302  58.711  0.00  0.00    +0.000 C 
ATOM      2  C   UNL     1      17.578  11.571  60.201  0.00  0.00    +0.000 C 
ATOM      3  C   UNL     1      16.325  12.315  60.441  0.00  0.00    +0.000 C 
ATOM      4  C   UNL     1      15.303  12.689  59.396  0.00  0.00    +0.000 C 
ATOM      5  C   UNL     1      18.597   9.846  58.771  0.00  0.00    +0.000 C 
ATOM      6  C   UNL     1      17.021  11.567  57.825  0.00  0.00    +0.000 C 
ATOM      7  C   UNL     1      14.029  13.520  59.697  0.00  0.00    +0.000 C 
ATOM      8  C   UNL     1      17.896  10.423  60.994  0.00  0.00    +0.000 C 
ATOM      9  C   UNL     1      15.697  12.234  58.110  0.00  0.00    +0.000 C 
ATOM     10  C   UNL     1      18.492   9.362  60.108  0.00  0.00    +0.000 C 
ATOM     11  C   UNL     1      15.894  12.617  61.757  0.00  0.00    +0.000 C 
ATOM     12  C   UNL     1      19.366  12.251  58.515  0.00  0.00    +0.000 C 
ATOM     13  C   UNL     1      13.629  13.581  61.297  0.00  0.00    +0.000 C 
ATOM     14  C   UNL     1      12.834  12.891  59.059  0.00  0.00    +0.000 C 
ATOM     15  C   UNL     1      14.574  13.230  62.115  0.00  0.00    +0.000 C 
ATOM     16  C   UNL     1      14.246  14.986  59.219  0.00  0.00    +0.000 C 
ATOM     17  C   UNL     1      12.280  13.169  61.615  0.00  0.00    +0.000 C 
ATOM     18  C   UNL     1      11.455  12.453  59.578  0.00  0.00    +0.000 C 
ATOM     19  C   UNL     1      11.124  12.607  60.968  0.00  0.00    +0.000 C 
ENDROOT
BRANCH   5  20
ATOM     20  C   UNL     1      19.260   9.163  57.706  0.00  0.00    +0.000 C 
ATOM     21  C   UNL     1      20.597   8.497  57.887  0.00  0.00    +0.000 C 
BRANCH  20  22
ATOM     22  C   UNL     1      18.811   9.292  56.362  0.00  0.00    +0.000 C 
ATOM     23  C   UNL     1      18.327   9.433  54.911  0.00  0.00    +0.000 C 
BRANCH  23  24
ATOM     24  C   UNL     1      17.862   9.572  53.568  0.00  0.00    +0.000 C 
ATOM     25  C   UNL     1      18.372   8.730  52.507  0.00  0.00    +0.000 C 
ATOM     26  C   UNL     1      17.945   8.862  51.062  0.00  0.00    +0.000 C 
ATOM     27  C   UNL     1      19.385   7.630  52.751  0.00  0.00    +0.000 C 
BRANCH  24  28
ATOM     28  C   UNL     1      16.881  10.555  53.267  0.00  0.00    +0.000 C 
ATOM     29  C   UNL     1      15.806  11.616  53.009  0.00  0.00    +0.000 C 
ENDBRANCH  24  28
ENDBRANCH  23  24
ENDBRANCH  20  22
ENDBRANCH   5  20
BRANCH  19  30
ATOM     30  O   UNL     1       9.865  13.057  61.354  0.00  0.00    +0.000 OA
BRANCH  30  32
ATOM     31  O   UNL     1       8.661  13.668  59.460  0.00  0.00    +0.000 OA
ATOM     32  C   UNL     1       8.945  12.891  60.359  0.00  0.00    +0.000 C 
BRANCH  32  33
ATOM     33  C   UNL     1       8.303  11.603  60.444  0.00  0.00    +0.000 C 
ATOM     34  C   UNL     1       7.783  10.522  60.522  0.00  0.00    +0.000 C 
BRANCH  34  35
ATOM     35  C   UNL     1       7.184   9.232  60.622  0.00  0.00    +0.000 A 
ATOM     36  C   UNL     1       7.312   8.326  59.570  0.00  0.00    +0.000 A 
ATOM     37  C   UNL     1       6.467   8.881  61.762  0.00  0.00    +0.000 A 
ATOM     38  C   UNL     1       6.727   7.059  59.645  0.00  0.00    +0.000 A 
ATOM     39  C   UNL     1       5.878   7.622  61.851  0.00  0.00    +0.000 A 
ATOM     40  C   UNL     1       6.009   6.721  60.796  0.00  0.00    +0.000 A 
BRANCH  38  41
ATOM     41  O   UNL     1       6.804   6.111  58.655  0.00  0.00    +0.000 OA
ATOM     42  C   UNL     1       8.086   5.890  58.127  0.00  0.00    +0.000 C 
ENDBRANCH  38  41
BRANCH  40  43
ATOM     43  O   UNL     1       5.427   5.487  60.888  0.00  0.00    +0.000 OA
ATOM     44  H   UNL     1       6.046   4.822  60.531  0.00  0.00    +0.000 HD
ENDBRANCH  40  43
ENDBRANCH  34  35
ENDBRANCH  32  33
ENDBRANCH  30  32
ENDBRANCH  19  30
TORSDOF 10
ENDMDL
MODEL 8
REMARK VINA RESULT:      -5.0     10.203     13.079
REMARK  Name = 91746246_sitosterol.pdbqt.pdb
REMARK  10 active torsions:
REMARK  status: ('A' for Active; 'I' for Inactive)
REMARK    1  A    between atoms: C_5  and  C_20
REMARK    2  A    between atoms: C_19  and  O_30
REMARK    3  A    between atoms: C_20  and  C_22
REMARK    4  A    between atoms: C_23  and  C_24
REMARK    5  A    between atoms: C_24  and  C_28
REMARK    6  A    between atoms: O_30  and  C_32
REMARK    7  A    between atoms: C_32  and  C_33
REMARK    8  A    between atoms: C_34  and  C_35
REMARK    9  A    between atoms: C_38  and  O_41
REMARK   10  A    between atoms: C_40  and  O_43
REMARK                            x       y       z     vdW  Elec       q    Type
REMARK                         _______ _______ _______ _____ _____    ______ ____
ROOT
ATOM      1  C   UNL     1      16.289  -2.172  60.019  0.00  0.00    +0.000 C 
ATOM      2  C   UNL     1      15.491  -1.484  61.250  0.00  0.00    +0.000 C 
ATOM      3  C   UNL     1      16.188  -0.905  62.417  0.00  0.00    +0.000 C 
ATOM      4  C   UNL     1      17.668  -0.635  62.520  0.00  0.00    +0.000 C 
ATOM      5  C   UNL     1      15.561  -1.633  58.794  0.00  0.00    +0.000 C 
ATOM      6  C   UNL     1      17.668  -1.710  60.170  0.00  0.00    +0.000 C 
ATOM      7  C   UNL     1      18.354  -0.074  63.793  0.00  0.00    +0.000 C 
ATOM      8  C   UNL     1      14.342  -0.832  60.702  0.00  0.00    +0.000 C 
ATOM      9  C   UNL     1      18.342  -1.019  61.330  0.00  0.00    +0.000 C 
ATOM     10  C   UNL     1      14.405  -0.902  59.200  0.00  0.00    +0.000 C 
ATOM     11  C   UNL     1      15.463  -0.395  63.522  0.00  0.00    +0.000 C 
ATOM     12  C   UNL     1      16.100  -3.706  60.157  0.00  0.00    +0.000 C 
ATOM     13  C   UNL     1      17.313   0.632  64.861  0.00  0.00    +0.000 C 
ATOM     14  C   UNL     1      19.294   1.029  63.435  0.00  0.00    +0.000 C 
ATOM     15  C   UNL     1      16.060   0.346  64.681  0.00  0.00    +0.000 C 
ATOM     16  C   UNL     1      19.070  -1.234  64.545  0.00  0.00    +0.000 C 
ATOM     17  C   UNL     1      17.643   1.986  65.243  0.00  0.00    +0.000 C 
ATOM     18  C   UNL     1      19.471   2.477  63.919  0.00  0.00    +0.000 C 
ATOM     19  C   UNL     1      18.590   3.019  64.915  0.00  0.00    +0.000 C 
ENDROOT
BRANCH   5  20
ATOM     20  C   UNL     1      15.847  -2.027  57.452  0.00  0.00    +0.000 C 
ATOM     21  C   UNL     1      15.418  -3.357  56.894  0.00  0.00    +0.000 C 
BRANCH  20  22
ATOM     22  C   UNL     1      16.766  -1.291  56.653  0.00  0.00    +0.000 C 
ATOM     23  C   UNL     1      17.758  -0.493  55.792  0.00  0.00    +0.000 C 
BRANCH  23  24
ATOM     24  C   UNL     1      18.665   0.255  54.983  0.00  0.00    +0.000 C 
ATOM     25  C   UNL     1      19.990   0.593  55.459  0.00  0.00    +0.000 C 
ATOM     26  C   UNL     1      20.975   1.419  54.661  0.00  0.00    +0.000 C 
ATOM     27  C   UNL     1      20.513   0.146  56.808  0.00  0.00    +0.000 C 
BRANCH  24  28
ATOM     28  C   UNL     1      18.262   0.677  53.687  0.00  0.00    +0.000 C 
ATOM     29  C   UNL     1      17.761   1.118  52.307  0.00  0.00    +0.000 C 
ENDBRANCH  24  28
ENDBRANCH  23  24
ENDBRANCH  20  22
ENDBRANCH   5  20
BRANCH  19  30
ATOM     30  O   UNL     1      19.083   3.816  65.944  0.00  0.00    +0.000 OA
BRANCH  30  32
ATOM     31  O   UNL     1      17.720   5.530  66.725  0.00  0.00    +0.000 OA
ATOM     32  C   UNL     1      18.520   5.059  65.931  0.00  0.00    +0.000 C 
BRANCH  32  33
ATOM     33  C   UNL     1      19.012   5.850  64.830  0.00  0.00    +0.000 C 
ATOM     34  C   UNL     1      19.438   6.500  63.914  0.00  0.00    +0.000 C 
BRANCH  34  35
ATOM     35  C   UNL     1      19.960   7.262  62.828  0.00  0.00    +0.000 A 
ATOM     36  C   UNL     1      21.177   6.901  62.251  0.00  0.00    +0.000 A 
ATOM     37  C   UNL     1      19.261   8.367  62.350  0.00  0.00    +0.000 A 
ATOM     38  C   UNL     1      21.709   7.638  61.189  0.00  0.00    +0.000 A 
ATOM     39  C   UNL     1      19.779   9.111  61.292  0.00  0.00    +0.000 A 
ATOM     40  C   UNL     1      20.997   8.745  60.720  0.00  0.00    +0.000 A 
BRANCH  38  41
ATOM     41  O   UNL     1      22.899   7.351  60.567  0.00  0.00    +0.000 OA
ATOM     42  C   UNL     1      22.910   6.180  59.792  0.00  0.00    +0.000 C 
ENDBRANCH  38  41
BRANCH  40  43
ATOM     43  O   UNL     1      21.502   9.481  59.683  0.00  0.00    +0.000 OA
ATOM     44  H   UNL     1      20.774   9.696  59.070  0.00  0.00    +0.000 HD
ENDBRANCH  40  43
ENDBRANCH  34  35
ENDBRANCH  32  33
ENDBRANCH  30  32
ENDBRANCH  19  30
TORSDOF 10
ENDMDL
MODEL 9
REMARK VINA RESULT:      -4.9     11.938     14.653
REMARK  Name = 91746246_sitosterol.pdbqt.pdb
REMARK  10 active torsions:
REMARK  status: ('A' for Active; 'I' for Inactive)
REMARK    1  A    between atoms: C_5  and  C_20
REMARK    2  A    between atoms: C_19  and  O_30
REMARK    3  A    between atoms: C_20  and  C_22
REMARK    4  A    between atoms: C_23  and  C_24
REMARK    5  A    between atoms: C_24  and  C_28
REMARK    6  A    between atoms: O_30  and  C_32
REMARK    7  A    between atoms: C_32  and  C_33
REMARK    8  A    between atoms: C_34  and  C_35
REMARK    9  A    between atoms: C_38  and  O_41
REMARK   10  A    between atoms: C_40  and  O_43
REMARK                            x       y       z     vdW  Elec       q    Type
REMARK                         _______ _______ _______ _____ _____    ______ ____
ROOT
ATOM      1  C   UNL     1      13.262   3.641  74.995  0.00  0.00    +0.000 C 
ATOM      2  C   UNL     1      14.301   4.873  74.823  0.00  0.00    +0.000 C 
ATOM      3  C   UNL     1      15.182   5.003  73.646  0.00  0.00    +0.000 C 
ATOM      4  C   UNL     1      15.075   4.210  72.367  0.00  0.00    +0.000 C 
ATOM      5  C   UNL     1      12.000   4.324  75.505  0.00  0.00    +0.000 C 
ATOM      6  C   UNL     1      13.153   3.062  73.656  0.00  0.00    +0.000 C 
ATOM      7  C   UNL     1      16.064   4.352  71.181  0.00  0.00    +0.000 C 
ATOM      8  C   UNL     1      13.684   6.031  75.393  0.00  0.00    +0.000 C 
ATOM      9  C   UNL     1      13.998   3.287  72.426  0.00  0.00    +0.000 C 
ATOM     10  C   UNL     1      12.270   5.697  75.782  0.00  0.00    +0.000 C 
ATOM     11  C   UNL     1      16.146   6.038  73.566  0.00  0.00    +0.000 C 
ATOM     12  C   UNL     1      13.859   2.690  76.066  0.00  0.00    +0.000 C 
ATOM     13  C   UNL     1      16.963   5.736  71.218  0.00  0.00    +0.000 C 
ATOM     14  C   UNL     1      15.320   4.450  69.891  0.00  0.00    +0.000 C 
ATOM     15  C   UNL     1      16.982   6.351  72.361  0.00  0.00    +0.000 C 
ATOM     16  C   UNL     1      17.060   3.156  71.195  0.00  0.00    +0.000 C 
ATOM     17  C   UNL     1      16.902   6.547  70.022  0.00  0.00    +0.000 C 
ATOM     18  C   UNL     1      15.341   5.447  68.721  0.00  0.00    +0.000 C 
ATOM     19  C   UNL     1      16.205   6.593  68.764  0.00  0.00    +0.000 C 
ENDROOT
BRANCH   5  20
ATOM     20  C   UNL     1      10.812   3.632  75.893  0.00  0.00    +0.000 C 
ATOM     21  C   UNL     1       9.877   4.166  76.945  0.00  0.00    +0.000 C 
BRANCH  20  22
ATOM     22  C   UNL     1      10.583   2.288  75.488  0.00  0.00    +0.000 C 
ATOM     23  C   UNL     1      10.334   0.835  75.053  0.00  0.00    +0.000 C 
BRANCH  23  24
ATOM     24  C   UNL     1      10.117  -0.520  74.660  0.00  0.00    +0.000 C 
ATOM     25  C   UNL     1      10.724  -1.059  73.461  0.00  0.00    +0.000 C 
ATOM     26  C   UNL     1      10.494  -2.474  72.977  0.00  0.00    +0.000 C 
ATOM     27  C   UNL     1      11.652  -0.250  72.579  0.00  0.00    +0.000 C 
BRANCH  24  28
ATOM     28  C   UNL     1       9.290  -1.355  75.458  0.00  0.00    +0.000 C 
ATOM     29  C   UNL     1       8.385  -2.295  76.262  0.00  0.00    +0.000 C 
ENDBRANCH  24  28
ENDBRANCH  23  24
ENDBRANCH  20  22
ENDBRANCH   5  20
BRANCH  19  30
ATOM     30  O   UNL     1      16.909   6.996  67.633  0.00  0.00    +0.000 OA
BRANCH  30  32
ATOM     31  O   UNL     1      19.163   6.761  68.158  0.00  0.00    +0.000 OA
ATOM     32  C   UNL     1      18.144   6.417  67.577  0.00  0.00    +0.000 C 
BRANCH  32  33
ATOM     33  C   UNL     1      18.143   5.250  66.729  0.00  0.00    +0.000 C 
ATOM     34  C   UNL     1      18.129   4.270  66.034  0.00  0.00    +0.000 C 
BRANCH  34  35
ATOM     35  C   UNL     1      18.099   3.099  65.221  0.00  0.00    +0.000 A 
ATOM     36  C   UNL     1      18.560   3.158  63.907  0.00  0.00    +0.000 A 
ATOM     37  C   UNL     1      17.604   1.904  65.736  0.00  0.00    +0.000 A 
ATOM     38  C   UNL     1      18.534   2.023  63.092  0.00  0.00    +0.000 A 
ATOM     39  C   UNL     1      17.571   0.765  64.935  0.00  0.00    +0.000 A 
ATOM     40  C   UNL     1      18.034   0.830  63.621  0.00  0.00    +0.000 A 
BRANCH  38  41
ATOM     41  O   UNL     1      18.967   1.995  61.789  0.00  0.00    +0.000 OA
ATOM     42  C   UNL     1      20.343   2.207  61.603  0.00  0.00    +0.000 C 
ENDBRANCH  38  41
BRANCH  40  43
ATOM     43  O   UNL     1      17.998  -0.292  62.839  0.00  0.00    +0.000 OA
ATOM     44  H   UNL     1      18.402  -0.084  61.976  0.00  0.00    +0.000 HD
ENDBRANCH  40  43
ENDBRANCH  34  35
ENDBRANCH  32  33
ENDBRANCH  30  32
ENDBRANCH  19  30
TORSDOF 10
ENDMDL
