MODEL 1
REMARK VINA RESULT:      -2.6      0.000      0.000
REMARK  Name = 92041_2Ethoxy5fluorouracil.pdbqt.pdb
REMARK  2 active torsions:
REMARK  status: ('A' for Active; 'I' for Inactive)
REMARK    1  A    between atoms: C_5  and  O_10
REMARK    2  A    between atoms: O_10  and  C_11
REMARK                            x       y       z     vdW  Elec       q    Type
REMARK                         _______ _______ _______ _____ _____    ______ ____
ROOT
ATOM      1  F   UNL     1      14.725   7.262  70.644  0.00  0.00    +0.000 F 
ATOM      2  O   UNL     1      14.206   7.608  67.861  0.00  0.00    +0.000 OA
ATOM      3  N   UNL     1      13.540   9.760  68.318  0.00  0.00    +0.000 N 
ATOM      4  N   UNL     1      13.701  10.738  70.465  0.00  0.00    +0.000 NA
ATOM      5  C   UNL     1      13.334  10.803  69.216  0.00  0.00    +0.000 C 
ATOM      6  C   UNL     1      14.122   8.536  68.655  0.00  0.00    +0.000 C 
ATOM      7  C   UNL     1      14.605   8.471  70.071  0.00  0.00    +0.000 C 
ATOM      8  C   UNL     1      14.281   9.553  70.698  0.00  0.00    +0.000 C 
ATOM      9  H   UNL     1      13.201   9.847  67.371  0.00  0.00    +0.000 HD
ENDROOT
BRANCH   5  10
ATOM     10  O   UNL     1      12.720  11.866  68.646  0.00  0.00    +0.000 OA
BRANCH  10  11
ATOM     11  C   UNL     1      11.429  12.015  68.926  0.00  0.00    +0.000 C 
ATOM     12  C   UNL     1       9.957  12.233  69.289  0.00  0.00    +0.000 C 
ENDBRANCH  10  11
ENDBRANCH   5  10
TORSDOF 2
ENDMDL
MODEL 2
REMARK VINA RESULT:      -2.5      8.984     10.224
REMARK  Name = 92041_2Ethoxy5fluorouracil.pdbqt.pdb
REMARK  2 active torsions:
REMARK  status: ('A' for Active; 'I' for Inactive)
REMARK    1  A    between atoms: C_5  and  O_10
REMARK    2  A    between atoms: O_10  and  C_11
REMARK                            x       y       z     vdW  Elec       q    Type
REMARK                         _______ _______ _______ _____ _____    ______ ____
ROOT
ATOM      1  F   UNL     1       1.055   8.867  70.493  0.00  0.00    +0.000 F 
ATOM      2  O   UNL     1       2.247  11.412  70.007  0.00  0.00    +0.000 OA
ATOM      3  N   UNL     1       4.202  10.595  70.897  0.00  0.00    +0.000 N 
ATOM      4  N   UNL     1       4.483   8.341  71.556  0.00  0.00    +0.000 NA
ATOM      5  C   UNL     1       4.941   9.557  71.459  0.00  0.00    +0.000 C 
ATOM      6  C   UNL     1       2.899  10.459  70.412  0.00  0.00    +0.000 C 
ATOM      7  C   UNL     1       2.385   9.054  70.461  0.00  0.00    +0.000 C 
ATOM      8  C   UNL     1       3.249   8.287  71.039  0.00  0.00    +0.000 C 
ATOM      9  H   UNL     1       4.590  11.527  70.882  0.00  0.00    +0.000 HD
ENDROOT
BRANCH   5  10
ATOM     10  O   UNL     1       6.162   9.959  71.882  0.00  0.00    +0.000 OA
BRANCH  10  11
ATOM     11  C   UNL     1       6.197  11.091  72.578  0.00  0.00    +0.000 C 
ATOM     12  C   UNL     1       6.298  12.402  73.365  0.00  0.00    +0.000 C 
ENDBRANCH  10  11
ENDBRANCH   5  10
TORSDOF 2
ENDMDL
MODEL 3
REMARK VINA RESULT:      -2.5      9.582     10.431
REMARK  Name = 92041_2Ethoxy5fluorouracil.pdbqt.pdb
REMARK  2 active torsions:
REMARK  status: ('A' for Active; 'I' for Inactive)
REMARK    1  A    between atoms: C_5  and  O_10
REMARK    2  A    between atoms: O_10  and  C_11
REMARK                            x       y       z     vdW  Elec       q    Type
REMARK                         _______ _______ _______ _____ _____    ______ ____
ROOT
ATOM      1  F   UNL     1      21.636   9.774  60.027  0.00  0.00    +0.000 F 
ATOM      2  O   UNL     1      20.437   8.635  62.351  0.00  0.00    +0.000 OA
ATOM      3  N   UNL     1      18.383   8.959  61.372  0.00  0.00    +0.000 N 
ATOM      4  N   UNL     1      18.112   9.764  59.165  0.00  0.00    +0.000 NA
ATOM      5  C   UNL     1      17.601   9.383  60.301  0.00  0.00    +0.000 C 
ATOM      6  C   UNL     1      19.780   8.928  61.361  0.00  0.00    +0.000 C 
ATOM      7  C   UNL     1      20.378   9.305  60.041  0.00  0.00    +0.000 C 
ATOM      8  C   UNL     1      19.447   9.670  59.223  0.00  0.00    +0.000 C 
ATOM      9  H   UNL     1      17.938   8.711  62.243  0.00  0.00    +0.000 HD
ENDROOT
BRANCH   5  10
ATOM     10  O   UNL     1      16.277   9.350  60.580  0.00  0.00    +0.000 OA
BRANCH  10  11
ATOM     11  C   UNL     1      15.708  10.519  60.856  0.00  0.00    +0.000 C 
ATOM     12  C   UNL     1      14.996  11.840  61.166  0.00  0.00    +0.000 C 
ENDBRANCH  10  11
ENDBRANCH   5  10
TORSDOF 2
ENDMDL
MODEL 4
REMARK VINA RESULT:      -2.4      9.424     10.638
REMARK  Name = 92041_2Ethoxy5fluorouracil.pdbqt.pdb
REMARK  2 active torsions:
REMARK  status: ('A' for Active; 'I' for Inactive)
REMARK    1  A    between atoms: C_5  and  O_10
REMARK    2  A    between atoms: O_10  and  C_11
REMARK                            x       y       z     vdW  Elec       q    Type
REMARK                         _______ _______ _______ _____ _____    ______ ____
ROOT
ATOM      1  F   UNL     1      14.529  13.342  58.831  0.00  0.00    +0.000 F 
ATOM      2  O   UNL     1      13.685  11.771  61.056  0.00  0.00    +0.000 OA
ATOM      3  N   UNL     1      15.596  10.517  60.815  0.00  0.00    +0.000 N 
ATOM      4  N   UNL     1      17.295  11.033  59.254  0.00  0.00    +0.000 NA
ATOM      5  C   UNL     1      16.800  10.250  60.170  0.00  0.00    +0.000 C 
ATOM      6  C   UNL     1      14.780  11.616  60.533  0.00  0.00    +0.000 C 
ATOM      7  C   UNL     1      15.367  12.556  59.526  0.00  0.00    +0.000 C 
ATOM      8  C   UNL     1      16.477  12.077  59.069  0.00  0.00    +0.000 C 
ATOM      9  H   UNL     1      15.238   9.857  61.489  0.00  0.00    +0.000 HD
ENDROOT
BRANCH   5  10
ATOM     10  O   UNL     1      17.379   9.106  60.603  0.00  0.00    +0.000 OA
BRANCH  10  11
ATOM     11  C   UNL     1      18.437   9.248  61.395  0.00  0.00    +0.000 C 
ATOM     12  C   UNL     1      19.689   9.376  62.269  0.00  0.00    +0.000 C 
ENDBRANCH  10  11
ENDBRANCH   5  10
TORSDOF 2
ENDMDL
MODEL 5
REMARK VINA RESULT:      -2.4      9.408     10.529
REMARK  Name = 92041_2Ethoxy5fluorouracil.pdbqt.pdb
REMARK  2 active torsions:
REMARK  status: ('A' for Active; 'I' for Inactive)
REMARK    1  A    between atoms: C_5  and  O_10
REMARK    2  A    between atoms: O_10  and  C_11
REMARK                            x       y       z     vdW  Elec       q    Type
REMARK                         _______ _______ _______ _____ _____    ______ ____
ROOT
ATOM      1  F   UNL     1      10.971  12.249  58.799  0.00  0.00    +0.000 F 
ATOM      2  O   UNL     1      11.479  12.354  61.603  0.00  0.00    +0.000 OA
ATOM      3  N   UNL     1      13.724  12.189  61.139  0.00  0.00    +0.000 N 
ATOM      4  N   UNL     1      14.596  12.201  58.940  0.00  0.00    +0.000 NA
ATOM      5  C   UNL     1      14.772  12.097  60.227  0.00  0.00    +0.000 C 
ATOM      6  C   UNL     1      12.386  12.367  60.781  0.00  0.00    +0.000 C 
ATOM      7  C   UNL     1      12.177  12.550  59.309  0.00  0.00    +0.000 C 
ATOM      8  C   UNL     1      13.298  12.405  58.683  0.00  0.00    +0.000 C 
ATOM      9  H   UNL     1      13.911  12.063  62.122  0.00  0.00    +0.000 HD
ENDROOT
BRANCH   5  10
ATOM     10  O   UNL     1      15.967  11.891  60.829  0.00  0.00    +0.000 OA
BRANCH  10  11
ATOM     11  C   UNL     1      16.648  10.822  60.427  0.00  0.00    +0.000 C 
ATOM     12  C   UNL     1      17.465   9.593  60.018  0.00  0.00    +0.000 C 
ENDBRANCH  10  11
ENDBRANCH   5  10
TORSDOF 2
ENDMDL
MODEL 6
REMARK VINA RESULT:      -2.3     12.117     13.187
REMARK  Name = 92041_2Ethoxy5fluorouracil.pdbqt.pdb
REMARK  2 active torsions:
REMARK  status: ('A' for Active; 'I' for Inactive)
REMARK    1  A    between atoms: C_5  and  O_10
REMARK    2  A    between atoms: O_10  and  C_11
REMARK                            x       y       z     vdW  Elec       q    Type
REMARK                         _______ _______ _______ _____ _____    ______ ____
ROOT
ATOM      1  F   UNL     1      20.980   8.943  55.221  0.00  0.00    +0.000 F 
ATOM      2  O   UNL     1      21.409   7.776  57.788  0.00  0.00    +0.000 OA
ATOM      3  N   UNL     1      19.457   8.762  58.493  0.00  0.00    +0.000 N 
ATOM      4  N   UNL     1      18.017   9.962  57.050  0.00  0.00    +0.000 NA
ATOM      5  C   UNL     1      18.329   9.539  58.243  0.00  0.00    +0.000 C 
ATOM      6  C   UNL     1      20.382   8.383  57.517  0.00  0.00    +0.000 C 
ATOM      7  C   UNL     1      20.002   8.810  56.133  0.00  0.00    +0.000 C 
ATOM      8  C   UNL     1      18.929   9.527  56.170  0.00  0.00    +0.000 C 
ATOM      9  H   UNL     1      19.674   8.495  59.441  0.00  0.00    +0.000 HD
ENDROOT
BRANCH   5  10
ATOM     10  O   UNL     1      17.616   9.795  59.364  0.00  0.00    +0.000 OA
BRANCH  10  11
ATOM     11  C   UNL     1      18.173   9.419  60.511  0.00  0.00    +0.000 C 
ATOM     12  C   UNL     1      18.768   8.944  61.840  0.00  0.00    +0.000 C 
ENDBRANCH  10  11
ENDBRANCH   5  10
TORSDOF 2
ENDMDL
MODEL 7
REMARK VINA RESULT:      -2.3      8.234     10.255
REMARK  Name = 92041_2Ethoxy5fluorouracil.pdbqt.pdb
REMARK  2 active torsions:
REMARK  status: ('A' for Active; 'I' for Inactive)
REMARK    1  A    between atoms: C_5  and  O_10
REMARK    2  A    between atoms: O_10  and  C_11
REMARK                            x       y       z     vdW  Elec       q    Type
REMARK                         _______ _______ _______ _____ _____    ______ ____
ROOT
ATOM      1  F   UNL     1      17.954   6.165  66.767  0.00  0.00    +0.000 F 
ATOM      2  O   UNL     1      16.425   3.757  66.809  0.00  0.00    +0.000 OA
ATOM      3  N   UNL     1      17.578   3.068  64.944  0.00  0.00    +0.000 N 
ATOM      4  N   UNL     1      19.377   4.286  64.010  0.00  0.00    +0.000 NA
ATOM      5  C   UNL     1      18.555   3.275  63.974  0.00  0.00    +0.000 C 
ATOM      6  C   UNL     1      17.351   3.922  66.025  0.00  0.00    +0.000 C 
ATOM      7  C   UNL     1      18.328   5.053  66.112  0.00  0.00    +0.000 C 
ATOM      8  C   UNL     1      19.119   5.033  65.091  0.00  0.00    +0.000 C 
ATOM      9  H   UNL     1      16.942   2.290  64.848  0.00  0.00    +0.000 HD
ENDROOT
BRANCH   5  10
ATOM     10  O   UNL     1      18.546   2.321  63.015  0.00  0.00    +0.000 OA
BRANCH  10  11
ATOM     11  C   UNL     1      19.697   2.117  62.381  0.00  0.00    +0.000 C 
ATOM     12  C   UNL     1      21.000   1.826  61.631  0.00  0.00    +0.000 C 
ENDBRANCH  10  11
ENDBRANCH   5  10
TORSDOF 2
ENDMDL
MODEL 8
REMARK VINA RESULT:      -2.2     13.887     14.540
REMARK  Name = 92041_2Ethoxy5fluorouracil.pdbqt.pdb
REMARK  2 active torsions:
REMARK  status: ('A' for Active; 'I' for Inactive)
REMARK    1  A    between atoms: C_5  and  O_10
REMARK    2  A    between atoms: O_10  and  C_11
REMARK                            x       y       z     vdW  Elec       q    Type
REMARK                         _______ _______ _______ _____ _____    ______ ____
ROOT
ATOM      1  F   UNL     1       3.555   2.308  65.705  0.00  0.00    +0.000 F 
ATOM      2  O   UNL     1       2.201   2.962  68.128  0.00  0.00    +0.000 OA
ATOM      3  N   UNL     1       2.807   0.903  68.949  0.00  0.00    +0.000 N 
ATOM      4  N   UNL     1       4.217  -0.593  67.780  0.00  0.00    +0.000 NA
ATOM      5  C   UNL     1       3.461  -0.317  68.805  0.00  0.00    +0.000 C 
ATOM      6  C   UNL     1       2.860   1.938  68.012  0.00  0.00    +0.000 C 
ATOM      7  C   UNL     1       3.774   1.658  66.860  0.00  0.00    +0.000 C 
ATOM      8  C   UNL     1       4.244   0.458  66.951  0.00  0.00    +0.000 C 
ATOM      9  H   UNL     1       2.202   1.050  69.743  0.00  0.00    +0.000 HD
ENDROOT
BRANCH   5  10
ATOM     10  O   UNL     1       3.220  -1.161  69.836  0.00  0.00    +0.000 OA
BRANCH  10  11
ATOM     11  C   UNL     1       1.956  -1.246  70.239  0.00  0.00    +0.000 C 
ATOM     12  C   UNL     1       0.503  -1.284  70.723  0.00  0.00    +0.000 C 
ENDBRANCH  10  11
ENDBRANCH   5  10
TORSDOF 2
ENDMDL
MODEL 9
REMARK VINA RESULT:      -2.2     11.079     11.872
REMARK  Name = 92041_2Ethoxy5fluorouracil.pdbqt.pdb
REMARK  2 active torsions:
REMARK  status: ('A' for Active; 'I' for Inactive)
REMARK    1  A    between atoms: C_5  and  O_10
REMARK    2  A    between atoms: O_10  and  C_11
REMARK                            x       y       z     vdW  Elec       q    Type
REMARK                         _______ _______ _______ _____ _____    ______ ____
ROOT
ATOM      1  F   UNL     1       6.457  10.383  58.387  0.00  0.00    +0.000 F 
ATOM      2  O   UNL     1       8.457  10.091  60.399  0.00  0.00    +0.000 OA
ATOM      3  N   UNL     1       7.097   8.557  61.438  0.00  0.00    +0.000 N 
ATOM      4  N   UNL     1       5.054   7.804  60.517  0.00  0.00    +0.000 NA
ATOM      5  C   UNL     1       5.920   7.815  61.490  0.00  0.00    +0.000 C 
ATOM      6  C   UNL     1       7.458   9.384  60.372  0.00  0.00    +0.000 C 
ATOM      7  C   UNL     1       6.502   9.332  59.221  0.00  0.00    +0.000 C 
ATOM      8  C   UNL     1       5.489   8.588  59.522  0.00  0.00    +0.000 C 
ATOM      9  H   UNL     1       7.715   8.562  62.236  0.00  0.00    +0.000 HD
ENDROOT
BRANCH   5  10
ATOM     10  O   UNL     1       5.792   7.125  62.647  0.00  0.00    +0.000 OA
BRANCH  10  11
ATOM     11  C   UNL     1       4.550   6.815  63.008  0.00  0.00    +0.000 C 
ATOM     12  C   UNL     1       3.144   6.424  63.472  0.00  0.00    +0.000 C 
ENDBRANCH  10  11
ENDBRANCH   5  10
TORSDOF 2
ENDMDL
