MODEL 1
REMARK VINA RESULT:      -2.9      0.000      0.000
REMARK  Name = 95716_6Bromoisatin.pdbqt.pdb
REMARK  0 active torsions:
REMARK  status: ('A' for Active; 'I' for Inactive)
REMARK                            x       y       z     vdW  Elec       q    Type
REMARK                         _______ _______ _______ _____ _____    ______ ____
ROOT
ATOM      1 BR   UNL     1       0.093  13.019  69.345  0.00  0.00    +0.000 Br
ATOM      2  O   UNL     1       5.618   9.348  71.524  0.00  0.00    +0.000 OA
ATOM      3  O   UNL     1       3.745   7.470  72.951  0.00  0.00    +0.000 OA
ATOM      4  N   UNL     1       2.173   8.933  72.041  0.00  0.00    +0.000 N 
ATOM      5  C   UNL     1       2.235  10.074  71.246  0.00  0.00    +0.000 A 
ATOM      6  C   UNL     1       3.550  10.405  70.929  0.00  0.00    +0.000 A 
ATOM      7  C   UNL     1       4.412   9.408  71.563  0.00  0.00    +0.000 C 
ATOM      8  C   UNL     1       1.174  10.828  70.793  0.00  0.00    +0.000 A 
ATOM      9  C   UNL     1       3.880  11.495  70.151  0.00  0.00    +0.000 A 
ATOM     10  C   UNL     1       3.439   8.441  72.298  0.00  0.00    +0.000 C 
ATOM     11  C   UNL     1       1.489  11.936  70.003  0.00  0.00    +0.000 A 
ATOM     12  C   UNL     1       2.817  12.269  69.684  0.00  0.00    +0.000 A 
ATOM     13  H   UNL     1       1.334   8.499  72.398  0.00  0.00    +0.000 HD
ENDROOT
TORSDOF 0
ENDMDL
MODEL 2
REMARK VINA RESULT:      -2.9     18.863     19.834
REMARK  Name = 95716_6Bromoisatin.pdbqt.pdb
REMARK  0 active torsions:
REMARK  status: ('A' for Active; 'I' for Inactive)
REMARK                            x       y       z     vdW  Elec       q    Type
REMARK                         _______ _______ _______ _____ _____    ______ ____
ROOT
ATOM      1 BR   UNL     1      19.982  11.156  55.192  0.00  0.00    +0.000 Br
ATOM      2  O   UNL     1      18.490   8.801  61.593  0.00  0.00    +0.000 OA
ATOM      3  O   UNL     1      15.737   9.996  61.337  0.00  0.00    +0.000 OA
ATOM      4  N   UNL     1      16.599  10.612  59.259  0.00  0.00    +0.000 N 
ATOM      5  C   UNL     1      17.815  10.436  58.606  0.00  0.00    +0.000 A 
ATOM      6  C   UNL     1      18.718   9.722  59.392  0.00  0.00    +0.000 A 
ATOM      7  C   UNL     1      18.042   9.409  60.650  0.00  0.00    +0.000 C 
ATOM      8  C   UNL     1      18.154  10.882  57.347  0.00  0.00    +0.000 A 
ATOM      9  C   UNL     1      19.995   9.415  58.971  0.00  0.00    +0.000 A 
ATOM     10  C   UNL     1      16.621  10.029  60.512  0.00  0.00    +0.000 C 
ATOM     11  C   UNL     1      19.443  10.580  56.904  0.00  0.00    +0.000 A 
ATOM     12  C   UNL     1      20.353   9.860  57.698  0.00  0.00    +0.000 A 
ATOM     13  H   UNL     1      15.790  11.096  58.895  0.00  0.00    +0.000 HD
ENDROOT
TORSDOF 0
ENDMDL
MODEL 3
REMARK VINA RESULT:      -2.9     14.866     15.949
REMARK  Name = 95716_6Bromoisatin.pdbqt.pdb
REMARK  0 active torsions:
REMARK  status: ('A' for Active; 'I' for Inactive)
REMARK                            x       y       z     vdW  Elec       q    Type
REMARK                         _______ _______ _______ _____ _____    ______ ____
ROOT
ATOM      1 BR   UNL     1      10.230  12.742  58.675  0.00  0.00    +0.000 Br
ATOM      2  O   UNL     1      16.108  12.248  62.409  0.00  0.00    +0.000 OA
ATOM      3  O   UNL     1      17.600  11.574  59.881  0.00  0.00    +0.000 OA
ATOM      4  N   UNL     1      15.460  11.828  58.988  0.00  0.00    +0.000 N 
ATOM      5  C   UNL     1      14.207  12.140  59.507  0.00  0.00    +0.000 A 
ATOM      6  C   UNL     1      14.262  12.348  60.884  0.00  0.00    +0.000 A 
ATOM      7  C   UNL     1      15.653  12.156  61.294  0.00  0.00    +0.000 C 
ATOM      8  C   UNL     1      13.023  12.249  58.810  0.00  0.00    +0.000 A 
ATOM      9  C   UNL     1      13.153  12.671  61.636  0.00  0.00    +0.000 A 
ATOM     10  C   UNL     1      16.418  11.808  59.984  0.00  0.00    +0.000 C 
ATOM     11  C   UNL     1      11.888  12.575  59.556  0.00  0.00    +0.000 A 
ATOM     12  C   UNL     1      11.945  12.784  60.945  0.00  0.00    +0.000 A 
ATOM     13  H   UNL     1      15.673  11.635  58.019  0.00  0.00    +0.000 HD
ENDROOT
TORSDOF 0
ENDMDL
MODEL 4
REMARK VINA RESULT:      -2.8      2.836      3.193
REMARK  Name = 95716_6Bromoisatin.pdbqt.pdb
REMARK  0 active torsions:
REMARK  status: ('A' for Active; 'I' for Inactive)
REMARK                            x       y       z     vdW  Elec       q    Type
REMARK                         _______ _______ _______ _____ _____    ______ ____
ROOT
ATOM      1 BR   UNL     1      -1.017   7.731  67.588  0.00  0.00    +0.000 Br
ATOM      2  O   UNL     1       4.778   8.514  71.401  0.00  0.00    +0.000 OA
ATOM      3  O   UNL     1       3.295  10.452  73.167  0.00  0.00    +0.000 OA
ATOM      4  N   UNL     1       1.582   9.934  71.672  0.00  0.00    +0.000 N 
ATOM      5  C   UNL     1       1.464   9.109  70.557  0.00  0.00    +0.000 A 
ATOM      6  C   UNL     1       2.659   8.445  70.285  0.00  0.00    +0.000 A 
ATOM      7  C   UNL     1       3.628   8.867  71.295  0.00  0.00    +0.000 C 
ATOM      8  C   UNL     1       0.344   8.923  69.776  0.00  0.00    +0.000 A 
ATOM      9  C   UNL     1       2.803   7.568  69.230  0.00  0.00    +0.000 A 
ATOM     10  C   UNL     1       2.856   9.867  72.204  0.00  0.00    +0.000 C 
ATOM     11  C   UNL     1       0.472   8.038  68.703  0.00  0.00    +0.000 A 
ATOM     12  C   UNL     1       1.677   7.369  68.429  0.00  0.00    +0.000 A 
ATOM     13  H   UNL     1       0.854  10.515  72.064  0.00  0.00    +0.000 HD
ENDROOT
TORSDOF 0
ENDMDL
MODEL 5
REMARK VINA RESULT:      -2.7     20.237     20.974
REMARK  Name = 95716_6Bromoisatin.pdbqt.pdb
REMARK  0 active torsions:
REMARK  status: ('A' for Active; 'I' for Inactive)
REMARK                            x       y       z     vdW  Elec       q    Type
REMARK                         _______ _______ _______ _____ _____    ______ ____
ROOT
ATOM      1 BR   UNL     1      19.166  11.726  60.762  0.00  0.00    +0.000 Br
ATOM      2  O   UNL     1      17.997   8.424  54.723  0.00  0.00    +0.000 OA
ATOM      3  O   UNL     1      15.968  10.536  54.018  0.00  0.00    +0.000 OA
ATOM      4  N   UNL     1      16.626  11.342  56.105  0.00  0.00    +0.000 N 
ATOM      5  C   UNL     1      17.530  10.930  57.080  0.00  0.00    +0.000 A 
ATOM      6  C   UNL     1      18.188   9.761  56.703  0.00  0.00    +0.000 A 
ATOM      7  C   UNL     1      17.676   9.381  55.387  0.00  0.00    +0.000 C 
ATOM      8  C   UNL     1      17.794  11.548  58.283  0.00  0.00    +0.000 A 
ATOM      9  C   UNL     1      19.135   9.147  57.496  0.00  0.00    +0.000 A 
ATOM     10  C   UNL     1      16.629  10.475  55.029  0.00  0.00    +0.000 C 
ATOM     11  C   UNL     1      18.750  10.940  59.099  0.00  0.00    +0.000 A 
ATOM     12  C   UNL     1      19.413   9.761  58.719  0.00  0.00    +0.000 A 
ATOM     13  H   UNL     1      16.033  12.159  56.149  0.00  0.00    +0.000 HD
ENDROOT
TORSDOF 0
ENDMDL
MODEL 6
REMARK VINA RESULT:      -2.7      9.281     10.307
REMARK  Name = 95716_6Bromoisatin.pdbqt.pdb
REMARK  0 active torsions:
REMARK  status: ('A' for Active; 'I' for Inactive)
REMARK                            x       y       z     vdW  Elec       q    Type
REMARK                         _______ _______ _______ _____ _____    ______ ____
ROOT
ATOM      1 BR   UNL     1       5.439  -1.314  66.212  0.00  0.00    +0.000 Br
ATOM      2  O   UNL     1       1.416   4.050  68.160  0.00  0.00    +0.000 OA
ATOM      3  O   UNL     1       1.817   5.275  65.437  0.00  0.00    +0.000 OA
ATOM      4  N   UNL     1       3.091   3.341  65.160  0.00  0.00    +0.000 N 
ATOM      5  C   UNL     1       3.410   2.249  65.962  0.00  0.00    +0.000 A 
ATOM      6  C   UNL     1       2.824   2.352  67.221  0.00  0.00    +0.000 A 
ATOM      7  C   UNL     1       2.065   3.602  67.245  0.00  0.00    +0.000 C 
ATOM      8  C   UNL     1       4.198   1.171  65.621  0.00  0.00    +0.000 A 
ATOM      9  C   UNL     1       2.987   1.396  68.202  0.00  0.00    +0.000 A 
ATOM     10  C   UNL     1       2.276   4.230  65.836  0.00  0.00    +0.000 C 
ATOM     11  C   UNL     1       4.374   0.193  66.603  0.00  0.00    +0.000 A 
ATOM     12  C   UNL     1       3.782   0.298  67.873  0.00  0.00    +0.000 A 
ATOM     13  H   UNL     1       3.396   3.493  64.209  0.00  0.00    +0.000 HD
ENDROOT
TORSDOF 0
ENDMDL
MODEL 7
REMARK VINA RESULT:      -2.6     12.588     13.644
REMARK  Name = 95716_6Bromoisatin.pdbqt.pdb
REMARK  0 active torsions:
REMARK  status: ('A' for Active; 'I' for Inactive)
REMARK                            x       y       z     vdW  Elec       q    Type
REMARK                         _______ _______ _______ _____ _____    ______ ____
ROOT
ATOM      1 BR   UNL     1      14.561  13.434  61.233  0.00  0.00    +0.000 Br
ATOM      2  O   UNL     1       8.235  11.761  58.798  0.00  0.00    +0.000 OA
ATOM      3  O   UNL     1       7.257  11.532  61.638  0.00  0.00    +0.000 OA
ATOM      4  N   UNL     1       9.475  12.115  62.060  0.00  0.00    +0.000 N 
ATOM      5  C   UNL     1      10.586  12.397  61.271  0.00  0.00    +0.000 A 
ATOM      6  C   UNL     1      10.285  12.306  59.914  0.00  0.00    +0.000 A 
ATOM      7  C   UNL     1       8.874  11.937  59.808  0.00  0.00    +0.000 C 
ATOM      8  C   UNL     1      11.851  12.731  61.706  0.00  0.00    +0.000 A 
ATOM      9  C   UNL     1      11.216  12.540  58.924  0.00  0.00    +0.000 A 
ATOM     10  C   UNL     1       8.374  11.820  61.278  0.00  0.00    +0.000 C 
ATOM     11  C   UNL     1      12.807  12.972  60.718  0.00  0.00    +0.000 A 
ATOM     12  C   UNL     1      12.502  12.879  59.349  0.00  0.00    +0.000 A 
ATOM     13  H   UNL     1       9.444  12.116  63.070  0.00  0.00    +0.000 HD
ENDROOT
TORSDOF 0
ENDMDL
MODEL 8
REMARK VINA RESULT:      -2.6      4.143      5.336
REMARK  Name = 95716_6Bromoisatin.pdbqt.pdb
REMARK  0 active torsions:
REMARK  status: ('A' for Active; 'I' for Inactive)
REMARK                            x       y       z     vdW  Elec       q    Type
REMARK                         _______ _______ _______ _____ _____    ______ ____
ROOT
ATOM      1 BR   UNL     1       2.604   9.806  71.393  0.00  0.00    +0.000 Br
ATOM      2  O   UNL     1       1.577   6.569  77.492  0.00  0.00    +0.000 OA
ATOM      3  O   UNL     1       3.923   4.780  76.881  0.00  0.00    +0.000 OA
ATOM      4  N   UNL     1       3.947   6.089  74.951  0.00  0.00    +0.000 N 
ATOM      5  C   UNL     1       3.179   7.145  74.467  0.00  0.00    +0.000 A 
ATOM      6  C   UNL     1       2.164   7.487  75.358  0.00  0.00    +0.000 A 
ATOM      7  C   UNL     1       2.276   6.590  76.507  0.00  0.00    +0.000 C 
ATOM      8  C   UNL     1       3.345   7.812  73.273  0.00  0.00    +0.000 A 
ATOM      9  C   UNL     1       1.265   8.504  75.111  0.00  0.00    +0.000 A 
ATOM     10  C   UNL     1       3.489   5.669  76.186  0.00  0.00    +0.000 C 
ATOM     11  C   UNL     1       2.443   8.845  73.006  0.00  0.00    +0.000 A 
ATOM     12  C   UNL     1       1.419   9.190  73.905  0.00  0.00    +0.000 A 
ATOM     13  H   UNL     1       4.737   5.664  74.487  0.00  0.00    +0.000 HD
ENDROOT
TORSDOF 0
ENDMDL
MODEL 9
REMARK VINA RESULT:      -2.5     15.416     16.590
REMARK  Name = 95716_6Bromoisatin.pdbqt.pdb
REMARK  0 active torsions:
REMARK  status: ('A' for Active; 'I' for Inactive)
REMARK                            x       y       z     vdW  Elec       q    Type
REMARK                         _______ _______ _______ _____ _____    ______ ____
ROOT
ATOM      1 BR   UNL     1      14.617  11.820  60.816  0.00  0.00    +0.000 Br
ATOM      2  O   UNL     1       8.847  13.327  57.186  0.00  0.00    +0.000 OA
ATOM      3  O   UNL     1      10.520  13.478  54.685  0.00  0.00    +0.000 OA
ATOM      4  N   UNL     1      12.199  12.960  56.219  0.00  0.00    +0.000 N 
ATOM      5  C   UNL     1      12.242  12.727  57.590  0.00  0.00    +0.000 A 
ATOM      6  C   UNL     1      10.977  12.830  58.166  0.00  0.00    +0.000 A 
ATOM      7  C   UNL     1      10.039  13.155  57.092  0.00  0.00    +0.000 C 
ATOM      8  C   UNL     1      13.354  12.427  58.347  0.00  0.00    +0.000 A 
ATOM      9  C   UNL     1      10.752  12.643  59.513  0.00  0.00    +0.000 A 
ATOM     10  C   UNL     1      10.909  13.232  55.803  0.00  0.00    +0.000 C 
ATOM     11  C   UNL     1      13.144  12.234  59.714  0.00  0.00    +0.000 A 
ATOM     12  C   UNL     1      11.868  12.338  60.294  0.00  0.00    +0.000 A 
ATOM     13  H   UNL     1      12.986  12.941  55.585  0.00  0.00    +0.000 HD
ENDROOT
TORSDOF 0
ENDMDL
