MODEL 1
REMARK VINA RESULT:      -4.1      0.000      0.000
REMARK  Name = 969516_Curcumin.pdbqt.pdb
REMARK  8 active torsions:
REMARK  status: ('A' for Active; 'I' for Inactive)
REMARK    1  A    between atoms: C_3  and  C_5
REMARK    2  A    between atoms: C_4  and  C_6
REMARK    3  A    between atoms: C_8  and  O_12
REMARK    4  A    between atoms: C_10  and  O_14
REMARK    5  A    between atoms: C_17  and  C_19
REMARK    6  A    between atoms: C_18  and  C_20
REMARK    7  A    between atoms: C_22  and  O_26
REMARK    8  A    between atoms: C_24  and  O_28
REMARK                            x       y       z     vdW  Elec       q    Type
REMARK                         _______ _______ _______ _____ _____    ______ ____
ROOT
ATOM      1  C   UNL     1       3.363   5.945  63.889  0.00  0.00    +0.000 C 
ATOM      2  O   UNL     1       5.076   7.318  63.229  0.00  0.00    +0.000 OA
ATOM      3  C   UNL     1       4.472   6.271  63.053  0.00  0.00    +0.000 C 
ATOM      4  O   UNL     1       1.468   4.753  64.378  0.00  0.00    +0.000 OA
ATOM      5  C   UNL     1       2.254   5.624  64.722  0.00  0.00    +0.000 C 
ENDROOT
BRANCH   3   7
ATOM      6  C   UNL     1       5.208   4.603  61.140  0.00  0.00    +0.000 C 
ATOM      7  C   UNL     1       4.873   5.362  62.009  0.00  0.00    +0.000 C 
BRANCH   6   8
ATOM      8  C   UNL     1       5.606   3.701  60.108  0.00  0.00    +0.000 A 
ATOM      9  C   UNL     1       6.743   3.973  59.348  0.00  0.00    +0.000 A 
ATOM     10  C   UNL     1       7.147   3.100  58.334  0.00  0.00    +0.000 A 
ATOM     11  C   UNL     1       4.858   2.553  59.861  0.00  0.00    +0.000 A 
ATOM     12  C   UNL     1       6.389   1.949  58.095  0.00  0.00    +0.000 A 
ATOM     13  C   UNL     1       5.251   1.676  58.854  0.00  0.00    +0.000 A 
BRANCH  10  14
ATOM     14  O   UNL     1       8.253   3.300  57.547  0.00  0.00    +0.000 OA
ATOM     15  C   UNL     1       9.493   3.104  58.167  0.00  0.00    +0.000 C 
ENDBRANCH  10  14
BRANCH  12  16
ATOM     16  O   UNL     1       6.705   1.038  57.126  0.00  0.00    +0.000 OA
ATOM     17  H   UNL     1       6.391   0.152  57.373  0.00  0.00    +0.000 HD
ENDBRANCH  12  16
ENDBRANCH   6   8
ENDBRANCH   3   7
BRANCH   5  19
ATOM     18  C   UNL     1       1.908   6.908  67.005  0.00  0.00    +0.000 C 
ATOM     19  C   UNL     1       2.066   6.326  65.966  0.00  0.00    +0.000 C 
BRANCH  18  20
ATOM     20  C   UNL     1       1.716   7.597  68.239  0.00  0.00    +0.000 A 
ATOM     21  C   UNL     1       2.710   7.562  69.216  0.00  0.00    +0.000 A 
ATOM     22  C   UNL     1       2.537   8.233  70.430  0.00  0.00    +0.000 A 
ATOM     23  C   UNL     1       0.537   8.304  68.466  0.00  0.00    +0.000 A 
ATOM     24  C   UNL     1       1.350   8.938  70.643  0.00  0.00    +0.000 A 
ATOM     25  C   UNL     1       0.352   8.975  69.670  0.00  0.00    +0.000 A 
BRANCH  22  26
ATOM     26  O   UNL     1       3.464   8.250  71.444  0.00  0.00    +0.000 OA
ATOM     27  C   UNL     1       4.558   9.107  71.249  0.00  0.00    +0.000 C 
ENDBRANCH  22  26
BRANCH  24  28
ATOM     28  O   UNL     1       1.161   9.601  71.825  0.00  0.00    +0.000 OA
ATOM     29  H   UNL     1       0.271   9.999  71.822  0.00  0.00    +0.000 HD
ENDBRANCH  24  28
ENDBRANCH  18  20
ENDBRANCH   5  19
TORSDOF 8
ENDMDL
MODEL 2
REMARK VINA RESULT:      -4.1      7.140     11.320
REMARK  Name = 969516_Curcumin.pdbqt.pdb
REMARK  8 active torsions:
REMARK  status: ('A' for Active; 'I' for Inactive)
REMARK    1  A    between atoms: C_3  and  C_5
REMARK    2  A    between atoms: C_4  and  C_6
REMARK    3  A    between atoms: C_8  and  O_12
REMARK    4  A    between atoms: C_10  and  O_14
REMARK    5  A    between atoms: C_17  and  C_19
REMARK    6  A    between atoms: C_18  and  C_20
REMARK    7  A    between atoms: C_22  and  O_26
REMARK    8  A    between atoms: C_24  and  O_28
REMARK                            x       y       z     vdW  Elec       q    Type
REMARK                         _______ _______ _______ _____ _____    ______ ____
ROOT
ATOM      1  C   UNL     1       7.617   9.552  60.610  0.00  0.00    +0.000 C 
ATOM      2  O   UNL     1       7.931   7.552  59.536  0.00  0.00    +0.000 OA
ATOM      3  C   UNL     1       7.331   8.171  60.401  0.00  0.00    +0.000 C 
ATOM      4  O   UNL     1       7.121  11.626  61.448  0.00  0.00    +0.000 OA
ATOM      5  C   UNL     1       7.902  10.933  60.814  0.00  0.00    +0.000 C 
ENDROOT
BRANCH   3   7
ATOM      6  C   UNL     1       5.512   6.966  61.892  0.00  0.00    +0.000 C 
ATOM      7  C   UNL     1       6.339   7.514  61.215  0.00  0.00    +0.000 C 
BRANCH   6   8
ATOM      8  C   UNL     1       4.530   6.314  62.696  0.00  0.00    +0.000 A 
ATOM      9  C   UNL     1       4.473   4.922  62.729  0.00  0.00    +0.000 A 
ATOM     10  C   UNL     1       3.517   4.267  63.512  0.00  0.00    +0.000 A 
ATOM     11  C   UNL     1       3.631   7.069  63.445  0.00  0.00    +0.000 A 
ATOM     12  C   UNL     1       2.620   5.034  64.260  0.00  0.00    +0.000 A 
ATOM     13  C   UNL     1       2.676   6.427  64.228  0.00  0.00    +0.000 A 
BRANCH  10  14
ATOM     14  O   UNL     1       3.401   2.901  63.595  0.00  0.00    +0.000 OA
ATOM     15  C   UNL     1       4.427   2.237  64.278  0.00  0.00    +0.000 C 
ENDBRANCH  10  14
BRANCH  12  16
ATOM     16  O   UNL     1       1.652   4.484  65.054  0.00  0.00    +0.000 OA
ATOM     17  H   UNL     1       0.878   4.229  64.524  0.00  0.00    +0.000 HD
ENDBRANCH  12  16
ENDBRANCH   6   8
ENDBRANCH   3   7
BRANCH   5  19
ATOM     18  C   UNL     1      10.114  11.980  59.819  0.00  0.00    +0.000 C 
ATOM     19  C   UNL     1       9.109  11.502  60.272  0.00  0.00    +0.000 C 
BRANCH  18  20
ATOM     20  C   UNL     1      11.305  12.547  59.275  0.00  0.00    +0.000 A 
ATOM     21  C   UNL     1      12.516  12.392  59.947  0.00  0.00    +0.000 A 
ATOM     22  C   UNL     1      13.692  12.941  59.427  0.00  0.00    +0.000 A 
ATOM     23  C   UNL     1      11.255  13.252  58.074  0.00  0.00    +0.000 A 
ATOM     24  C   UNL     1      13.628  13.646  58.222  0.00  0.00    +0.000 A 
ATOM     25  C   UNL     1      12.419  13.803  57.547  0.00  0.00    +0.000 A 
BRANCH  22  26
ATOM     26  O   UNL     1      14.925  12.837  60.024  0.00  0.00    +0.000 OA
ATOM     27  C   UNL     1      15.404  11.529  60.199  0.00  0.00    +0.000 C 
ENDBRANCH  22  26
BRANCH  24  28
ATOM     28  O   UNL     1      14.768  14.190  57.697  0.00  0.00    +0.000 OA
ATOM     29  H   UNL     1      14.562  14.556  56.816  0.00  0.00    +0.000 HD
ENDBRANCH  24  28
ENDBRANCH  18  20
ENDBRANCH   5  19
TORSDOF 8
ENDMDL
MODEL 3
REMARK VINA RESULT:      -4.1     12.260     13.265
REMARK  Name = 969516_Curcumin.pdbqt.pdb
REMARK  8 active torsions:
REMARK  status: ('A' for Active; 'I' for Inactive)
REMARK    1  A    between atoms: C_3  and  C_5
REMARK    2  A    between atoms: C_4  and  C_6
REMARK    3  A    between atoms: C_8  and  O_12
REMARK    4  A    between atoms: C_10  and  O_14
REMARK    5  A    between atoms: C_17  and  C_19
REMARK    6  A    between atoms: C_18  and  C_20
REMARK    7  A    between atoms: C_22  and  O_26
REMARK    8  A    between atoms: C_24  and  O_28
REMARK                            x       y       z     vdW  Elec       q    Type
REMARK                         _______ _______ _______ _____ _____    ______ ____
ROOT
ATOM      1  C   UNL     1      15.750   3.415  68.698  0.00  0.00    +0.000 C 
ATOM      2  O   UNL     1      15.782   5.450  67.642  0.00  0.00    +0.000 OA
ATOM      3  C   UNL     1      16.200   4.303  67.676  0.00  0.00    +0.000 C 
ATOM      4  O   UNL     1      15.462   1.326  69.593  0.00  0.00    +0.000 OA
ATOM      5  C   UNL     1      15.296   2.530  69.717  0.00  0.00    +0.000 C 
ENDROOT
BRANCH   3   7
ATOM      6  C   UNL     1      17.938   3.456  65.875  0.00  0.00    +0.000 C 
ATOM      7  C   UNL     1      17.148   3.840  66.694  0.00  0.00    +0.000 C 
BRANCH   6   8
ATOM      8  C   UNL     1      18.878   3.000  64.903  0.00  0.00    +0.000 A 
ATOM      9  C   UNL     1      18.427   2.486  63.688  0.00  0.00    +0.000 A 
ATOM     10  C   UNL     1      19.334   2.035  62.724  0.00  0.00    +0.000 A 
ATOM     11  C   UNL     1      20.243   3.068  65.169  0.00  0.00    +0.000 A 
ATOM     12  C   UNL     1      20.702   2.109  63.002  0.00  0.00    +0.000 A 
ATOM     13  C   UNL     1      21.155   2.623  64.217  0.00  0.00    +0.000 A 
BRANCH  10  14
ATOM     14  O   UNL     1      18.965   1.519  61.507  0.00  0.00    +0.000 OA
ATOM     15  C   UNL     1      18.440   0.221  61.522  0.00  0.00    +0.000 C 
ENDBRANCH  10  14
BRANCH  12  16
ATOM     16  O   UNL     1      21.664   1.693  62.122  0.00  0.00    +0.000 OA
ATOM     17  H   UNL     1      22.375   1.222  62.589  0.00  0.00    +0.000 HD
ENDBRANCH  12  16
ENDBRANCH   6   8
ENDBRANCH   3   7
BRANCH   5  19
ATOM     18  C   UNL     1      14.104   3.499  71.867  0.00  0.00    +0.000 C 
ATOM     19  C   UNL     1      14.645   3.060  70.888  0.00  0.00    +0.000 C 
BRANCH  18  20
ATOM     20  C   UNL     1      13.458   4.016  73.029  0.00  0.00    +0.000 A 
ATOM     21  C   UNL     1      13.328   5.393  73.196  0.00  0.00    +0.000 A 
ATOM     22  C   UNL     1      12.697   5.914  74.330  0.00  0.00    +0.000 A 
ATOM     23  C   UNL     1      12.959   3.143  73.994  0.00  0.00    +0.000 A 
ATOM     24  C   UNL     1      12.201   5.028  75.289  0.00  0.00    +0.000 A 
ATOM     25  C   UNL     1      12.329   3.650  75.127  0.00  0.00    +0.000 A 
BRANCH  22  26
ATOM     26  O   UNL     1      12.527   7.256  74.573  0.00  0.00    +0.000 OA
ATOM     27  C   UNL     1      12.434   8.071  73.433  0.00  0.00    +0.000 C 
ENDBRANCH  22  26
BRANCH  24  28
ATOM     28  O   UNL     1      11.580   5.519  76.405  0.00  0.00    +0.000 OA
ATOM     29  H   UNL     1      11.994   5.121  77.194  0.00  0.00    +0.000 HD
ENDBRANCH  24  28
ENDBRANCH  18  20
ENDBRANCH   5  19
TORSDOF 8
ENDMDL
MODEL 4
REMARK VINA RESULT:      -4.0     11.408     13.034
REMARK  Name = 969516_Curcumin.pdbqt.pdb
REMARK  8 active torsions:
REMARK  status: ('A' for Active; 'I' for Inactive)
REMARK    1  A    between atoms: C_3  and  C_5
REMARK    2  A    between atoms: C_4  and  C_6
REMARK    3  A    between atoms: C_8  and  O_12
REMARK    4  A    between atoms: C_10  and  O_14
REMARK    5  A    between atoms: C_17  and  C_19
REMARK    6  A    between atoms: C_18  and  C_20
REMARK    7  A    between atoms: C_22  and  O_26
REMARK    8  A    between atoms: C_24  and  O_28
REMARK                            x       y       z     vdW  Elec       q    Type
REMARK                         _______ _______ _______ _____ _____    ______ ____
ROOT
ATOM      1  C   UNL     1      15.676   9.297  68.097  0.00  0.00    +0.000 C 
ATOM      2  O   UNL     1      17.661  10.215  68.785  0.00  0.00    +0.000 OA
ATOM      3  C   UNL     1      17.034   9.678  67.884  0.00  0.00    +0.000 C 
ATOM      4  O   UNL     1      13.602   8.669  67.353  0.00  0.00    +0.000 OA
ATOM      5  C   UNL     1      14.319   8.922  68.310  0.00  0.00    +0.000 C 
ENDROOT
BRANCH   3   7
ATOM      6  C   UNL     1      18.178   9.213  65.548  0.00  0.00    +0.000 C 
ATOM      7  C   UNL     1      17.657   9.424  66.610  0.00  0.00    +0.000 C 
BRANCH   6   8
ATOM      8  C   UNL     1      18.798   8.961  64.288  0.00  0.00    +0.000 A 
ATOM      9  C   UNL     1      18.369   9.649  63.153  0.00  0.00    +0.000 A 
ATOM     10  C   UNL     1      18.965   9.414  61.910  0.00  0.00    +0.000 A 
ATOM     11  C   UNL     1      19.827   8.029  64.192  0.00  0.00    +0.000 A 
ATOM     12  C   UNL     1      19.999   8.476  61.827  0.00  0.00    +0.000 A 
ATOM     13  C   UNL     1      20.428   7.787  62.960  0.00  0.00    +0.000 A 
BRANCH  10  14
ATOM     14  O   UNL     1      18.598  10.053  60.752  0.00  0.00    +0.000 OA
ATOM     15  C   UNL     1      17.448   9.567  60.119  0.00  0.00    +0.000 C 
ENDBRANCH  10  14
BRANCH  12  16
ATOM     16  O   UNL     1      20.641   8.179  60.656  0.00  0.00    +0.000 OA
ATOM     17  H   UNL     1      21.531   8.571  60.645  0.00  0.00    +0.000 HD
ENDBRANCH  12  16
ENDBRANCH   6   8
ENDBRANCH   3   7
BRANCH   5  19
ATOM     18  C   UNL     1      13.366   8.772  70.770  0.00  0.00    +0.000 C 
ATOM     19  C   UNL     1      13.801   8.840  69.652  0.00  0.00    +0.000 C 
BRANCH  18  20
ATOM     20  C   UNL     1      12.846   8.696  72.096  0.00  0.00    +0.000 A 
ATOM     21  C   UNL     1      12.004   9.701  72.570  0.00  0.00    +0.000 A 
ATOM     22  C   UNL     1      11.486   9.639  73.867  0.00  0.00    +0.000 A 
ATOM     23  C   UNL     1      13.179   7.618  72.913  0.00  0.00    +0.000 A 
ATOM     24  C   UNL     1      11.828   8.553  74.675  0.00  0.00    +0.000 A 
ATOM     25  C   UNL     1      12.669   7.546  74.206  0.00  0.00    +0.000 A 
BRANCH  22  26
ATOM     26  O   UNL     1      10.652  10.585  74.413  0.00  0.00    +0.000 OA
ATOM     27  C   UNL     1       9.372  10.666  73.840  0.00  0.00    +0.000 C 
ENDBRANCH  22  26
BRANCH  24  28
ATOM     28  O   UNL     1      11.331   8.475  75.948  0.00  0.00    +0.000 OA
ATOM     29  H   UNL     1      10.385   8.240  75.900  0.00  0.00    +0.000 HD
ENDBRANCH  24  28
ENDBRANCH  18  20
ENDBRANCH   5  19
TORSDOF 8
ENDMDL
MODEL 5
REMARK VINA RESULT:      -4.0      0.896     11.844
REMARK  Name = 969516_Curcumin.pdbqt.pdb
REMARK  8 active torsions:
REMARK  status: ('A' for Active; 'I' for Inactive)
REMARK    1  A    between atoms: C_3  and  C_5
REMARK    2  A    between atoms: C_4  and  C_6
REMARK    3  A    between atoms: C_8  and  O_12
REMARK    4  A    between atoms: C_10  and  O_14
REMARK    5  A    between atoms: C_17  and  C_19
REMARK    6  A    between atoms: C_18  and  C_20
REMARK    7  A    between atoms: C_22  and  O_26
REMARK    8  A    between atoms: C_24  and  O_28
REMARK                            x       y       z     vdW  Elec       q    Type
REMARK                         _______ _______ _______ _____ _____    ______ ____
ROOT
ATOM      1  C   UNL     1       3.406   6.082  63.936  0.00  0.00    +0.000 C 
ATOM      2  O   UNL     1       1.604   4.765  64.458  0.00  0.00    +0.000 OA
ATOM      3  C   UNL     1       2.331   5.689  64.788  0.00  0.00    +0.000 C 
ATOM      4  O   UNL     1       5.012   7.562  63.242  0.00  0.00    +0.000 OA
ATOM      5  C   UNL     1       4.476   6.476  63.082  0.00  0.00    +0.000 C 
ENDROOT
BRANCH   3   7
ATOM      6  C   UNL     1       1.934   6.961  67.070  0.00  0.00    +0.000 C 
ATOM      7  C   UNL     1       2.114   6.383  66.032  0.00  0.00    +0.000 C 
BRANCH   6   8
ATOM      8  C   UNL     1       1.722   7.648  68.302  0.00  0.00    +0.000 A 
ATOM      9  C   UNL     1       2.709   7.630  69.286  0.00  0.00    +0.000 A 
ATOM     10  C   UNL     1       2.518   8.298  70.500  0.00  0.00    +0.000 A 
ATOM     11  C   UNL     1       0.530   8.333  68.520  0.00  0.00    +0.000 A 
ATOM     12  C   UNL     1       1.317   8.984  70.707  0.00  0.00    +0.000 A 
ATOM     13  C   UNL     1       0.329   9.002  69.724  0.00  0.00    +0.000 A 
BRANCH  10  14
ATOM     14  O   UNL     1       3.443   8.326  71.513  0.00  0.00    +0.000 OA
ATOM     15  C   UNL     1       4.517   9.209  71.341  0.00  0.00    +0.000 C 
ENDBRANCH  10  14
BRANCH  12  16
ATOM     16  O   UNL     1       1.040   9.666  71.860  0.00  0.00    +0.000 OA
ATOM     17  H   UNL     1       0.941   9.051  72.607  0.00  0.00    +0.000 HD
ENDBRANCH  12  16
ENDBRANCH   6   8
ENDBRANCH   3   7
BRANCH   5  19
ATOM     18  C   UNL     1       5.290   4.854  61.162  0.00  0.00    +0.000 C 
ATOM     19  C   UNL     1       4.920   5.589  62.037  0.00  0.00    +0.000 C 
BRANCH  18  20
ATOM     20  C   UNL     1       5.727   3.983  60.121  0.00  0.00    +0.000 A 
ATOM     21  C   UNL     1       5.936   4.485  58.837  0.00  0.00    +0.000 A 
ATOM     22  C   UNL     1       6.364   3.643  57.807  0.00  0.00    +0.000 A 
ATOM     23  C   UNL     1       5.945   2.632  60.388  0.00  0.00    +0.000 A 
ATOM     24  C   UNL     1       6.579   2.292  58.089  0.00  0.00    +0.000 A 
ATOM     25  C   UNL     1       6.372   1.785  59.371  0.00  0.00    +0.000 A 
BRANCH  22  26
ATOM     26  O   UNL     1       6.593   4.055  56.516  0.00  0.00    +0.000 OA
ATOM     27  C   UNL     1       5.457   4.468  55.802  0.00  0.00    +0.000 C 
ENDBRANCH  22  26
BRANCH  24  28
ATOM     28  O   UNL     1       6.999   1.453  57.093  0.00  0.00    +0.000 OA
ATOM     29  H   UNL     1       7.012   1.947  56.252  0.00  0.00    +0.000 HD
ENDBRANCH  24  28
ENDBRANCH  18  20
ENDBRANCH   5  19
TORSDOF 8
ENDMDL
MODEL 6
REMARK VINA RESULT:      -3.9     12.718     16.826
REMARK  Name = 969516_Curcumin.pdbqt.pdb
REMARK  8 active torsions:
REMARK  status: ('A' for Active; 'I' for Inactive)
REMARK    1  A    between atoms: C_3  and  C_5
REMARK    2  A    between atoms: C_4  and  C_6
REMARK    3  A    between atoms: C_8  and  O_12
REMARK    4  A    between atoms: C_10  and  O_14
REMARK    5  A    between atoms: C_17  and  C_19
REMARK    6  A    between atoms: C_18  and  C_20
REMARK    7  A    between atoms: C_22  and  O_26
REMARK    8  A    between atoms: C_24  and  O_28
REMARK                            x       y       z     vdW  Elec       q    Type
REMARK                         _______ _______ _______ _____ _____    ______ ____
ROOT
ATOM      1  C   UNL     1      14.435   3.432  71.794  0.00  0.00    +0.000 C 
ATOM      2  O   UNL     1      15.025   5.055  73.301  0.00  0.00    +0.000 OA
ATOM      3  C   UNL     1      14.258   4.149  73.014  0.00  0.00    +0.000 C 
ATOM      4  O   UNL     1      14.063   1.637  70.419  0.00  0.00    +0.000 OA
ATOM      5  C   UNL     1      14.617   2.715  70.576  0.00  0.00    +0.000 C 
ENDROOT
BRANCH   3   7
ATOM      6  C   UNL     1      12.271   3.511  74.635  0.00  0.00    +0.000 C 
ATOM      7  C   UNL     1      13.174   3.800  73.897  0.00  0.00    +0.000 C 
BRANCH   6   8
ATOM      8  C   UNL     1      11.197   3.169  75.510  0.00  0.00    +0.000 A 
ATOM      9  C   UNL     1      10.708   1.864  75.532  0.00  0.00    +0.000 A 
ATOM     10  C   UNL     1       9.657   1.511  76.383  0.00  0.00    +0.000 A 
ATOM     11  C   UNL     1      10.640   4.138  76.340  0.00  0.00    +0.000 A 
ATOM     12  C   UNL     1       9.105   2.493  77.213  0.00  0.00    +0.000 A 
ATOM     13  C   UNL     1       9.593   3.799  77.192  0.00  0.00    +0.000 A 
BRANCH  10  14
ATOM     14  O   UNL     1       9.124   0.249  76.461  0.00  0.00    +0.000 OA
ATOM     15  C   UNL     1       8.272  -0.125  75.414  0.00  0.00    +0.000 C 
ENDBRANCH  10  14
BRANCH  12  16
ATOM     16  O   UNL     1       8.075   2.243  78.078  0.00  0.00    +0.000 OA
ATOM     17  H   UNL     1       8.247   1.436  78.591  0.00  0.00    +0.000 HD
ENDBRANCH  12  16
ENDBRANCH   6   8
ENDBRANCH   3   7
BRANCH   5  19
ATOM     18  C   UNL     1      16.146   3.723  68.671  0.00  0.00    +0.000 C 
ATOM     19  C   UNL     1      15.450   3.267  69.538  0.00  0.00    +0.000 C 
BRANCH  18  20
ATOM     20  C   UNL     1      16.975   4.261  67.644  0.00  0.00    +0.000 A 
ATOM     21  C   UNL     1      17.252   3.504  66.506  0.00  0.00    +0.000 A 
ATOM     22  C   UNL     1      18.062   4.018  65.491  0.00  0.00    +0.000 A 
ATOM     23  C   UNL     1      17.507   5.542  67.778  0.00  0.00    +0.000 A 
ATOM     24  C   UNL     1      18.589   5.303  65.638  0.00  0.00    +0.000 A 
ATOM     25  C   UNL     1      18.316   6.065  66.773  0.00  0.00    +0.000 A 
BRANCH  22  26
ATOM     26  O   UNL     1      18.385   3.340  64.340  0.00  0.00    +0.000 OA
ATOM     27  C   UNL     1      19.359   2.339  64.480  0.00  0.00    +0.000 C 
ENDBRANCH  22  26
BRANCH  24  28
ATOM     28  O   UNL     1      19.385   5.824  64.655  0.00  0.00    +0.000 OA
ATOM     29  H   UNL     1      20.193   5.282  64.586  0.00  0.00    +0.000 HD
ENDBRANCH  24  28
ENDBRANCH  18  20
ENDBRANCH   5  19
TORSDOF 8
ENDMDL
MODEL 7
REMARK VINA RESULT:      -3.9      1.300      2.183
REMARK  Name = 969516_Curcumin.pdbqt.pdb
REMARK  8 active torsions:
REMARK  status: ('A' for Active; 'I' for Inactive)
REMARK    1  A    between atoms: C_3  and  C_5
REMARK    2  A    between atoms: C_4  and  C_6
REMARK    3  A    between atoms: C_8  and  O_12
REMARK    4  A    between atoms: C_10  and  O_14
REMARK    5  A    between atoms: C_17  and  C_19
REMARK    6  A    between atoms: C_18  and  C_20
REMARK    7  A    between atoms: C_22  and  O_26
REMARK    8  A    between atoms: C_24  and  O_28
REMARK                            x       y       z     vdW  Elec       q    Type
REMARK                         _______ _______ _______ _____ _____    ______ ____
ROOT
ATOM      1  C   UNL     1       3.443   6.394  63.723  0.00  0.00    +0.000 C 
ATOM      2  O   UNL     1       5.024   7.954  63.155  0.00  0.00    +0.000 OA
ATOM      3  C   UNL     1       4.529   6.861  62.924  0.00  0.00    +0.000 C 
ATOM      4  O   UNL     1       1.667   5.002  64.124  0.00  0.00    +0.000 OA
ATOM      5  C   UNL     1       2.357   5.931  64.519  0.00  0.00    +0.000 C 
ENDROOT
BRANCH   3   7
ATOM      6  C   UNL     1       5.456   5.357  60.960  0.00  0.00    +0.000 C 
ATOM      7  C   UNL     1       5.035   6.040  61.854  0.00  0.00    +0.000 C 
BRANCH   6   8
ATOM      8  C   UNL     1       5.958   4.546  59.899  0.00  0.00    +0.000 A 
ATOM      9  C   UNL     1       6.406   5.143  58.721  0.00  0.00    +0.000 A 
ATOM     10  C   UNL     1       6.900   4.364  57.671  0.00  0.00    +0.000 A 
ATOM     11  C   UNL     1       5.998   3.162  60.039  0.00  0.00    +0.000 A 
ATOM     12  C   UNL     1       6.937   2.974  57.823  0.00  0.00    +0.000 A 
ATOM     13  C   UNL     1       6.489   2.376  59.001  0.00  0.00    +0.000 A 
BRANCH  10  14
ATOM     14  O   UNL     1       7.359   4.879  56.484  0.00  0.00    +0.000 OA
ATOM     15  C   UNL     1       7.686   6.241  56.490  0.00  0.00    +0.000 C 
ENDBRANCH  10  14
BRANCH  12  16
ATOM     16  O   UNL     1       7.403   2.131  56.852  0.00  0.00    +0.000 OA
ATOM     17  H   UNL     1       6.734   2.006  56.158  0.00  0.00    +0.000 HD
ENDBRANCH  12  16
ENDBRANCH   6   8
ENDBRANCH   3   7
BRANCH   5  19
ATOM     18  C   UNL     1       1.846   7.085  66.840  0.00  0.00    +0.000 C 
ATOM     19  C   UNL     1       2.079   6.558  65.786  0.00  0.00    +0.000 C 
BRANCH  18  20
ATOM     20  C   UNL     1       1.570   7.714  68.090  0.00  0.00    +0.000 A 
ATOM     21  C   UNL     1       0.289   8.196  68.357  0.00  0.00    +0.000 A 
ATOM     22  C   UNL     1       0.003   8.814  69.578  0.00  0.00    +0.000 A 
ATOM     23  C   UNL     1       2.580   7.846  69.041  0.00  0.00    +0.000 A 
ATOM     24  C   UNL     1       1.025   8.939  70.522  0.00  0.00    +0.000 A 
ATOM     25  C   UNL     1       2.307   8.460  70.260  0.00  0.00    +0.000 A 
BRANCH  22  26
ATOM     26  O   UNL     1      -1.229   9.316  69.921  0.00  0.00    +0.000 OA
ATOM     27  C   UNL     1      -1.643  10.448  69.202  0.00  0.00    +0.000 C 
ENDBRANCH  22  26
BRANCH  24  28
ATOM     28  O   UNL     1       0.765   9.541  71.723  0.00  0.00    +0.000 OA
ATOM     29  H   UNL     1       0.679   8.851  72.407  0.00  0.00    +0.000 HD
ENDBRANCH  24  28
ENDBRANCH  18  20
ENDBRANCH   5  19
TORSDOF 8
ENDMDL
MODEL 8
REMARK VINA RESULT:      -3.9     13.260     14.538
REMARK  Name = 969516_Curcumin.pdbqt.pdb
REMARK  8 active torsions:
REMARK  status: ('A' for Active; 'I' for Inactive)
REMARK    1  A    between atoms: C_3  and  C_5
REMARK    2  A    between atoms: C_4  and  C_6
REMARK    3  A    between atoms: C_8  and  O_12
REMARK    4  A    between atoms: C_10  and  O_14
REMARK    5  A    between atoms: C_17  and  C_19
REMARK    6  A    between atoms: C_18  and  C_20
REMARK    7  A    between atoms: C_22  and  O_26
REMARK    8  A    between atoms: C_24  and  O_28
REMARK                            x       y       z     vdW  Elec       q    Type
REMARK                         _______ _______ _______ _____ _____    ______ ____
ROOT
ATOM      1  C   UNL     1      17.064   5.315  67.878  0.00  0.00    +0.000 C 
ATOM      2  O   UNL     1      19.162   4.395  67.953  0.00  0.00    +0.000 OA
ATOM      3  C   UNL     1      18.390   5.150  67.381  0.00  0.00    +0.000 C 
ATOM      4  O   UNL     1      15.069   6.435  68.014  0.00  0.00    +0.000 OA
ATOM      5  C   UNL     1      15.740   5.481  68.379  0.00  0.00    +0.000 C 
ENDROOT
BRANCH   3   7
ATOM      6  C   UNL     1      19.160   6.474  65.228  0.00  0.00    +0.000 C 
ATOM      7  C   UNL     1      18.809   5.873  66.207  0.00  0.00    +0.000 C 
BRANCH   6   8
ATOM      8  C   UNL     1      19.576   7.187  64.064  0.00  0.00    +0.000 A 
ATOM      9  C   UNL     1      20.498   6.613  63.190  0.00  0.00    +0.000 A 
ATOM     10  C   UNL     1      20.917   7.297  62.046  0.00  0.00    +0.000 A 
ATOM     11  C   UNL     1      19.062   8.454  63.803  0.00  0.00    +0.000 A 
ATOM     12  C   UNL     1      20.393   8.569  61.793  0.00  0.00    +0.000 A 
ATOM     13  C   UNL     1      19.471   9.145  62.666  0.00  0.00    +0.000 A 
BRANCH  10  14
ATOM     14  O   UNL     1      21.819   6.796  61.140  0.00  0.00    +0.000 OA
ATOM     15  C   UNL     1      22.028   5.412  61.182  0.00  0.00    +0.000 C 
ENDBRANCH  10  14
BRANCH  12  16
ATOM     16  O   UNL     1      20.743   9.314  60.701  0.00  0.00    +0.000 OA
ATOM     17  H   UNL     1      21.101   8.745  59.999  0.00  0.00    +0.000 HD
ENDBRANCH  12  16
ENDBRANCH   6   8
ENDBRANCH   3   7
BRANCH   5  19
ATOM     18  C   UNL     1      14.750   3.725  70.086  0.00  0.00    +0.000 C 
ATOM     19  C   UNL     1      15.202   4.524  69.311  0.00  0.00    +0.000 C 
BRANCH  18  20
ATOM     20  C   UNL     1      14.209   2.779  71.006  0.00  0.00    +0.000 A 
ATOM     21  C   UNL     1      14.170   1.426  70.669  0.00  0.00    +0.000 A 
ATOM     22  C   UNL     1      13.644   0.487  71.560  0.00  0.00    +0.000 A 
ATOM     23  C   UNL     1      13.722   3.207  72.239  0.00  0.00    +0.000 A 
ATOM     24  C   UNL     1      13.159   0.930  72.793  0.00  0.00    +0.000 A 
ATOM     25  C   UNL     1      13.195   2.281  73.135  0.00  0.00    +0.000 A 
BRANCH  22  26
ATOM     26  O   UNL     1      13.567  -0.861  71.308  0.00  0.00    +0.000 OA
ATOM     27  C   UNL     1      12.662  -1.238  70.303  0.00  0.00    +0.000 C 
ENDBRANCH  22  26
BRANCH  24  28
ATOM     28  O   UNL     1      12.640   0.026  73.679  0.00  0.00    +0.000 OA
ATOM     29  H   UNL     1      11.668   0.024  73.591  0.00  0.00    +0.000 HD
ENDBRANCH  24  28
ENDBRANCH  18  20
ENDBRANCH   5  19
TORSDOF 8
ENDMDL
MODEL 9
REMARK VINA RESULT:      -3.8     13.298     14.708
REMARK  Name = 969516_Curcumin.pdbqt.pdb
REMARK  8 active torsions:
REMARK  status: ('A' for Active; 'I' for Inactive)
REMARK    1  A    between atoms: C_3  and  C_5
REMARK    2  A    between atoms: C_4  and  C_6
REMARK    3  A    between atoms: C_8  and  O_12
REMARK    4  A    between atoms: C_10  and  O_14
REMARK    5  A    between atoms: C_17  and  C_19
REMARK    6  A    between atoms: C_18  and  C_20
REMARK    7  A    between atoms: C_22  and  O_26
REMARK    8  A    between atoms: C_24  and  O_28
REMARK                            x       y       z     vdW  Elec       q    Type
REMARK                         _______ _______ _______ _____ _____    ______ ____
ROOT
ATOM      1  C   UNL     1      17.005   5.532  67.793  0.00  0.00    +0.000 C 
ATOM      2  O   UNL     1      19.137   4.692  67.713  0.00  0.00    +0.000 OA
ATOM      3  C   UNL     1      18.320   5.469  67.243  0.00  0.00    +0.000 C 
ATOM      4  O   UNL     1      14.976   6.552  68.100  0.00  0.00    +0.000 OA
ATOM      5  C   UNL     1      15.695   5.594  68.347  0.00  0.00    +0.000 C 
ENDROOT
BRANCH   3   7
ATOM      6  C   UNL     1      18.966   7.032  65.213  0.00  0.00    +0.000 C 
ATOM      7  C   UNL     1      18.673   6.321  66.136  0.00  0.00    +0.000 C 
BRANCH   6   8
ATOM      8  C   UNL     1      19.315   7.878  64.118  0.00  0.00    +0.000 A 
ATOM      9  C   UNL     1      18.987   9.232  64.154  0.00  0.00    +0.000 A 
ATOM     10  C   UNL     1      19.321  10.075  63.090  0.00  0.00    +0.000 A 
ATOM     11  C   UNL     1      19.981   7.350  63.016  0.00  0.00    +0.000 A 
ATOM     12  C   UNL     1      19.991   9.534  61.989  0.00  0.00    +0.000 A 
ATOM     13  C   UNL     1      20.320   8.180  61.951  0.00  0.00    +0.000 A 
BRANCH  10  14
ATOM     14  O   UNL     1      19.032  11.417  63.055  0.00  0.00    +0.000 OA
ATOM     15  C   UNL     1      17.685  11.752  62.877  0.00  0.00    +0.000 C 
ENDBRANCH  10  14
BRANCH  12  16
ATOM     16  O   UNL     1      20.359  10.279  60.902  0.00  0.00    +0.000 OA
ATOM     17  H   UNL     1      19.829  11.092  60.849  0.00  0.00    +0.000 HD
ENDBRANCH  12  16
ENDBRANCH   6   8
ENDBRANCH   3   7
BRANCH   5  19
ATOM     18  C   UNL     1      14.826   3.641  69.900  0.00  0.00    +0.000 C 
ATOM     19  C   UNL     1      15.223   4.528  69.193  0.00  0.00    +0.000 C 
BRANCH  18  20
ATOM     20  C   UNL     1      14.355   2.592  70.743  0.00  0.00    +0.000 A 
ATOM     21  C   UNL     1      14.577   1.262  70.387  0.00  0.00    +0.000 A 
ATOM     22  C   UNL     1      14.122   0.223  71.203  0.00  0.00    +0.000 A 
ATOM     23  C   UNL     1      13.675   2.896  71.921  0.00  0.00    +0.000 A 
ATOM     24  C   UNL     1      13.442   0.543  72.380  0.00  0.00    +0.000 A 
ATOM     25  C   UNL     1      13.217   1.870  72.741  0.00  0.00    +0.000 A 
BRANCH  22  26
ATOM     26  O   UNL     1      14.298  -1.112  70.927  0.00  0.00    +0.000 OA
ATOM     27  C   UNL     1      15.629  -1.557  70.916  0.00  0.00    +0.000 C 
ENDBRANCH  22  26
BRANCH  24  28
ATOM     28  O   UNL     1      12.989  -0.461  73.192  0.00  0.00    +0.000 OA
ATOM     29  H   UNL     1      12.851  -1.262  72.652  0.00  0.00    +0.000 HD
ENDBRANCH  24  28
ENDBRANCH  18  20
ENDBRANCH   5  19
TORSDOF 8
ENDMDL
