MODEL 1
REMARK VINA RESULT:      -2.6      0.000      0.000
REMARK  Name = 971_OxalicAcid.pdbqt.pdb
REMARK  3 active torsions:
REMARK  status: ('A' for Active; 'I' for Inactive)
REMARK    1  A    between atoms: C_2  and  O_3
REMARK    2  A    between atoms: C_2  and  C_6
REMARK    3  A    between atoms: C_6  and  O_7
REMARK                            x       y       z     vdW  Elec       q    Type
REMARK                         _______ _______ _______ _____ _____    ______ ____
ROOT
ATOM      1  O   UNL     1       4.239  10.252  71.240  0.00  0.00    +0.000 OA
ATOM      2  C   UNL     1       4.271   9.062  71.486  0.00  0.00    +0.000 C 
ENDROOT
BRANCH   2   3
ATOM      3  O   UNL     1       5.173   8.246  70.924  0.00  0.00    +0.000 OA
ATOM      4  H   UNL     1       5.851   8.847  70.554  0.00  0.00    +0.000 HD
ENDBRANCH   2   3
BRANCH   2   6
ATOM      5  O   UNL     1       2.158   8.633  72.694  0.00  0.00    +0.000 OA
ATOM      6  C   UNL     1       3.307   8.315  72.459  0.00  0.00    +0.000 C 
BRANCH   6   7
ATOM      7  O   UNL     1       3.879   7.248  73.036  0.00  0.00    +0.000 OA
ATOM      8  H   UNL     1       3.144   6.616  73.164  0.00  0.00    +0.000 HD
ENDBRANCH   6   7
ENDBRANCH   2   6
TORSDOF 3
ENDMDL
MODEL 2
REMARK VINA RESULT:      -2.4     10.262     11.164
REMARK  Name = 971_OxalicAcid.pdbqt.pdb
REMARK  3 active torsions:
REMARK  status: ('A' for Active; 'I' for Inactive)
REMARK    1  A    between atoms: C_2  and  O_3
REMARK    2  A    between atoms: C_2  and  C_6
REMARK    3  A    between atoms: C_6  and  O_7
REMARK                            x       y       z     vdW  Elec       q    Type
REMARK                         _______ _______ _______ _____ _____    ______ ____
ROOT
ATOM      1  O   UNL     1      13.595   9.378  70.268  0.00  0.00    +0.000 OA
ATOM      2  C   UNL     1      14.103   8.579  69.507  0.00  0.00    +0.000 C 
ENDROOT
BRANCH   2   3
ATOM      3  O   UNL     1      14.502   7.366  69.916  0.00  0.00    +0.000 OA
ATOM      4  H   UNL     1      15.434   7.494  70.186  0.00  0.00    +0.000 HD
ENDBRANCH   2   3
BRANCH   2   6
ATOM      5  O   UNL     1      15.304   9.437  67.525  0.00  0.00    +0.000 OA
ATOM      6  C   UNL     1      14.366   8.818  67.988  0.00  0.00    +0.000 C 
BRANCH   6   7
ATOM      7  O   UNL     1      13.430   8.261  67.207  0.00  0.00    +0.000 OA
ATOM      8  H   UNL     1      13.043   7.551  67.758  0.00  0.00    +0.000 HD
ENDBRANCH   6   7
ENDBRANCH   2   6
TORSDOF 3
ENDMDL
MODEL 3
REMARK VINA RESULT:      -2.4     10.528     11.648
REMARK  Name = 971_OxalicAcid.pdbqt.pdb
REMARK  3 active torsions:
REMARK  status: ('A' for Active; 'I' for Inactive)
REMARK    1  A    between atoms: C_2  and  O_3
REMARK    2  A    between atoms: C_2  and  C_6
REMARK    3  A    between atoms: C_6  and  O_7
REMARK                            x       y       z     vdW  Elec       q    Type
REMARK                         _______ _______ _______ _____ _____    ______ ____
ROOT
ATOM      1  O   UNL     1      16.244   7.258  69.534  0.00  0.00    +0.000 OA
ATOM      2  C   UNL     1      15.382   7.092  68.694  0.00  0.00    +0.000 C 
ENDROOT
BRANCH   2   3
ATOM      3  O   UNL     1      15.404   6.049  67.853  0.00  0.00    +0.000 OA
ATOM      4  H   UNL     1      16.250   6.141  67.371  0.00  0.00    +0.000 HD
ENDBRANCH   2   3
BRANCH   2   6
ATOM      5  O   UNL     1      13.631   8.247  67.387  0.00  0.00    +0.000 OA
ATOM      6  C   UNL     1      14.155   8.027  68.461  0.00  0.00    +0.000 C 
BRANCH   6   7
ATOM      7  O   UNL     1      13.711   8.589  69.594  0.00  0.00    +0.000 OA
ATOM      8  H   UNL     1      13.203   7.880  70.037  0.00  0.00    +0.000 HD
ENDBRANCH   6   7
ENDBRANCH   2   6
TORSDOF 3
ENDMDL
MODEL 4
REMARK VINA RESULT:      -2.3      2.554      4.058
REMARK  Name = 971_OxalicAcid.pdbqt.pdb
REMARK  3 active torsions:
REMARK  status: ('A' for Active; 'I' for Inactive)
REMARK    1  A    between atoms: C_2  and  O_3
REMARK    2  A    between atoms: C_2  and  C_6
REMARK    3  A    between atoms: C_6  and  O_7
REMARK                            x       y       z     vdW  Elec       q    Type
REMARK                         _______ _______ _______ _____ _____    ______ ____
ROOT
ATOM      1  O   UNL     1       2.869   5.214  75.510  0.00  0.00    +0.000 OA
ATOM      2  C   UNL     1       3.644   5.777  74.762  0.00  0.00    +0.000 C 
ENDROOT
BRANCH   2   3
ATOM      3  O   UNL     1       4.742   5.169  74.290  0.00  0.00    +0.000 OA
ATOM      4  H   UNL     1       5.455   5.828  74.406  0.00  0.00    +0.000 HD
ENDBRANCH   2   3
BRANCH   2   6
ATOM      5  O   UNL     1       3.120   8.187  74.906  0.00  0.00    +0.000 OA
ATOM      6  C   UNL     1       3.498   7.241  74.244  0.00  0.00    +0.000 C 
BRANCH   6   7
ATOM      7  O   UNL     1       3.839   7.370  72.954  0.00  0.00    +0.000 OA
ATOM      8  H   UNL     1       3.034   7.116  72.461  0.00  0.00    +0.000 HD
ENDBRANCH   6   7
ENDBRANCH   2   6
TORSDOF 3
ENDMDL
MODEL 5
REMARK VINA RESULT:      -2.3      2.603      3.611
REMARK  Name = 971_OxalicAcid.pdbqt.pdb
REMARK  3 active torsions:
REMARK  status: ('A' for Active; 'I' for Inactive)
REMARK    1  A    between atoms: C_2  and  O_3
REMARK    2  A    between atoms: C_2  and  C_6
REMARK    3  A    between atoms: C_6  and  O_7
REMARK                            x       y       z     vdW  Elec       q    Type
REMARK                         _______ _______ _______ _____ _____    ______ ____
ROOT
ATOM      1  O   UNL     1       3.343   8.172  75.038  0.00  0.00    +0.000 OA
ATOM      2  C   UNL     1       3.586   7.218  74.324  0.00  0.00    +0.000 C 
ENDROOT
BRANCH   2   3
ATOM      3  O   UNL     1       3.810   7.356  73.010  0.00  0.00    +0.000 OA
ATOM      4  H   UNL     1       2.976   7.725  72.656  0.00  0.00    +0.000 HD
ENDBRANCH   2   3
BRANCH   2   6
ATOM      5  O   UNL     1       2.887   5.185  75.543  0.00  0.00    +0.000 OA
ATOM      6  C   UNL     1       3.674   5.734  74.798  0.00  0.00    +0.000 C 
BRANCH   6   7
ATOM      7  O   UNL     1       4.736   5.092  74.290  0.00  0.00    +0.000 OA
ATOM      8  H   UNL     1       5.484   5.706  74.433  0.00  0.00    +0.000 HD
ENDBRANCH   6   7
ENDBRANCH   2   6
TORSDOF 3
ENDMDL
MODEL 6
REMARK VINA RESULT:      -2.1      3.852      5.120
REMARK  Name = 971_OxalicAcid.pdbqt.pdb
REMARK  3 active torsions:
REMARK  status: ('A' for Active; 'I' for Inactive)
REMARK    1  A    between atoms: C_2  and  O_3
REMARK    2  A    between atoms: C_2  and  C_6
REMARK    3  A    between atoms: C_6  and  O_7
REMARK                            x       y       z     vdW  Elec       q    Type
REMARK                         _______ _______ _______ _____ _____    ______ ____
ROOT
ATOM      1  O   UNL     1       3.311   6.790  74.437  0.00  0.00    +0.000 OA
ATOM      2  C   UNL     1       3.495   5.786  75.096  0.00  0.00    +0.000 C 
ENDROOT
BRANCH   2   3
ATOM      3  O   UNL     1       2.479   5.035  75.543  0.00  0.00    +0.000 OA
ATOM      4  H   UNL     1       2.753   4.115  75.355  0.00  0.00    +0.000 HD
ENDBRANCH   2   3
BRANCH   2   6
ATOM      5  O   UNL     1       5.862   5.894  75.799  0.00  0.00    +0.000 OA
ATOM      6  C   UNL     1       4.889   5.224  75.516  0.00  0.00    +0.000 C 
BRANCH   6   7
ATOM      7  O   UNL     1       4.920   3.884  75.538  0.00  0.00    +0.000 OA
ATOM      8  H   UNL     1       4.614   3.647  76.436  0.00  0.00    +0.000 HD
ENDBRANCH   6   7
ENDBRANCH   2   6
TORSDOF 3
ENDMDL
MODEL 7
REMARK VINA RESULT:      -2.1      4.659      5.145
REMARK  Name = 971_OxalicAcid.pdbqt.pdb
REMARK  3 active torsions:
REMARK  status: ('A' for Active; 'I' for Inactive)
REMARK    1  A    between atoms: C_2  and  O_3
REMARK    2  A    between atoms: C_2  and  C_6
REMARK    3  A    between atoms: C_6  and  O_7
REMARK                            x       y       z     vdW  Elec       q    Type
REMARK                         _______ _______ _______ _____ _____    ______ ____
ROOT
ATOM      1  O   UNL     1       4.626   6.702  77.341  0.00  0.00    +0.000 OA
ATOM      2  C   UNL     1       5.007   6.140  76.333  0.00  0.00    +0.000 C 
ENDROOT
BRANCH   2   3
ATOM      3  O   UNL     1       6.301   6.108  75.986  0.00  0.00    +0.000 OA
ATOM      4  H   UNL     1       6.584   5.192  76.180  0.00  0.00    +0.000 HD
ENDBRANCH   2   3
BRANCH   2   6
ATOM      5  O   UNL     1       2.916   5.135  75.482  0.00  0.00    +0.000 OA
ATOM      6  C   UNL     1       4.092   5.392  75.315  0.00  0.00    +0.000 C 
BRANCH   6   7
ATOM      7  O   UNL     1       4.741   5.045  74.195  0.00  0.00    +0.000 OA
ATOM      8  H   UNL     1       5.492   5.669  74.143  0.00  0.00    +0.000 HD
ENDBRANCH   6   7
ENDBRANCH   2   6
TORSDOF 3
ENDMDL
MODEL 8
REMARK VINA RESULT:      -2.0      4.728      5.446
REMARK  Name = 971_OxalicAcid.pdbqt.pdb
REMARK  3 active torsions:
REMARK  status: ('A' for Active; 'I' for Inactive)
REMARK    1  A    between atoms: C_2  and  O_3
REMARK    2  A    between atoms: C_2  and  C_6
REMARK    3  A    between atoms: C_6  and  O_7
REMARK                            x       y       z     vdW  Elec       q    Type
REMARK                         _______ _______ _______ _____ _____    ______ ____
ROOT
ATOM      1  O   UNL     1       4.907   6.313  75.320  0.00  0.00    +0.000 OA
ATOM      2  C   UNL     1       4.325   5.286  75.608  0.00  0.00    +0.000 C 
ENDROOT
BRANCH   2   3
ATOM      3  O   UNL     1       4.769   4.085  75.211  0.00  0.00    +0.000 OA
ATOM      4  H   UNL     1       5.720   4.223  75.030  0.00  0.00    +0.000 HD
ENDBRANCH   2   3
BRANCH   2   6
ATOM      5  O   UNL     1       2.952   5.285  77.663  0.00  0.00    +0.000 OA
ATOM      6  C   UNL     1       3.017   5.194  76.453  0.00  0.00    +0.000 C 
BRANCH   6   7
ATOM      7  O   UNL     1       1.927   4.998  75.698  0.00  0.00    +0.000 OA
ATOM      8  H   UNL     1       1.305   4.522  76.284  0.00  0.00    +0.000 HD
ENDBRANCH   6   7
ENDBRANCH   2   6
TORSDOF 3
ENDMDL
MODEL 9
REMARK VINA RESULT:      -2.0     11.696     12.244
REMARK  Name = 971_OxalicAcid.pdbqt.pdb
REMARK  3 active torsions:
REMARK  status: ('A' for Active; 'I' for Inactive)
REMARK    1  A    between atoms: C_2  and  O_3
REMARK    2  A    between atoms: C_2  and  C_6
REMARK    3  A    between atoms: C_6  and  O_7
REMARK                            x       y       z     vdW  Elec       q    Type
REMARK                         _______ _______ _______ _____ _____    ______ ____
ROOT
ATOM      1  O   UNL     1      14.546   7.302  68.130  0.00  0.00    +0.000 OA
ATOM      2  C   UNL     1      15.239   6.388  68.530  0.00  0.00    +0.000 C 
ENDROOT
BRANCH   2   3
ATOM      3  O   UNL     1      15.741   5.463  67.700  0.00  0.00    +0.000 OA
ATOM      4  H   UNL     1      15.151   5.489  66.919  0.00  0.00    +0.000 HD
ENDBRANCH   2   3
BRANCH   2   6
ATOM      5  O   UNL     1      16.631   6.601  70.560  0.00  0.00    +0.000 OA
ATOM      6  C   UNL     1      15.645   6.145  70.017  0.00  0.00    +0.000 C 
BRANCH   6   7
ATOM      7  O   UNL     1      14.776   5.359  70.668  0.00  0.00    +0.000 OA
ATOM      8  H   UNL     1      15.282   5.016  71.432  0.00  0.00    +0.000 HD
ENDBRANCH   6   7
ENDBRANCH   2   6
TORSDOF 3
ENDMDL
