MODEL 1
REMARK VINA RESULT:      -4.7      0.000      0.000
REMARK  Name = 9852185_GambogicAcid.pdbqt.pdb
REMARK  10 active torsions:
REMARK  status: ('A' for Active; 'I' for Inactive)
REMARK    1  A    between atoms: C_8  and  C_30
REMARK    2  A    between atoms: C_20  and  C_38
REMARK    3  A    between atoms: C_21  and  O_28
REMARK    4  A    between atoms: C_25  and  C_43
REMARK    5  A    between atoms: C_31  and  C_32
REMARK    6  A    between atoms: C_32  and  C_35
REMARK    7  A    between atoms: C_35  and  O_36
REMARK    8  A    between atoms: C_39  and  C_40
REMARK    9  A    between atoms: C_43  and  C_44
REMARK   10  A    between atoms: C_45  and  C_46
REMARK                            x       y       z     vdW  Elec       q    Type
REMARK                         _______ _______ _______ _____ _____    ______ ____
ROOT
ATOM      1  O   UNL     1       5.668  10.379  59.857  0.00  0.00    +0.000 OA
ATOM      2  O   UNL     1       4.291   8.543  61.597  0.00  0.00    +0.000 OA
ATOM      3  O   UNL     1       6.552   8.875  57.206  0.00  0.00    +0.000 OA
ATOM      4  O   UNL     1       4.955   4.502  61.165  0.00  0.00    +0.000 OA
ATOM      5  O   UNL     1       1.831   7.896  65.611  0.00  0.00    +0.000 OA
ATOM      6  C   UNL     1       5.310   8.162  60.683  0.00  0.00    +0.000 C 
ATOM      7  C   UNL     1       6.732   8.674  61.113  0.00  0.00    +0.000 C 
ATOM      8  C   UNL     1       5.298   9.073  59.390  0.00  0.00    +0.000 C 
ATOM      9  C   UNL     1       6.595  10.191  60.940  0.00  0.00    +0.000 C 
ATOM     10  C   UNL     1       7.707   7.981  60.270  0.00  0.00    +0.000 C 
ATOM     11  C   UNL     1       7.258   7.397  59.017  0.00  0.00    +0.000 C 
ATOM     12  C   UNL     1       5.295   6.670  60.310  0.00  0.00    +0.000 C 
ATOM     13  C   UNL     1       6.383   8.498  58.354  0.00  0.00    +0.000 C 
ATOM     14  C   UNL     1       6.330   6.357  59.376  0.00  0.00    +0.000 C 
ATOM     15  C   UNL     1       7.926  10.850  60.551  0.00  0.00    +0.000 C 
ATOM     16  C   UNL     1       6.036  10.822  62.225  0.00  0.00    +0.000 C 
ATOM     17  C   UNL     1       4.771   5.707  61.277  0.00  0.00    +0.000 C 
ATOM     18  C   UNL     1       3.831   7.639  62.517  0.00  0.00    +0.000 A 
ATOM     19  C   UNL     1       4.029   6.255  62.420  0.00  0.00    +0.000 A 
ATOM     20  C   UNL     1       3.082   8.171  63.588  0.00  0.00    +0.000 A 
ATOM     21  C   UNL     1       3.511   5.391  63.399  0.00  0.00    +0.000 A 
ATOM     22  C   UNL     1       2.557   7.319  64.566  0.00  0.00    +0.000 A 
ATOM     23  C   UNL     1       2.784   5.924  64.460  0.00  0.00    +0.000 A 
ATOM     24  C   UNL     1       2.198   5.168  65.505  0.00  0.00    +0.000 C 
ATOM     25  C   UNL     1       1.186   7.043  66.638  0.00  0.00    +0.000 C 
ATOM     26  C   UNL     1       1.546   5.648  66.380  0.00  0.00    +0.000 C 
ATOM     27  C   UNL     1      -0.341   7.282  66.520  0.00  0.00    +0.000 C 
ENDROOT
BRANCH  21  28
ATOM     28  O   UNL     1       3.687   4.033  63.357  0.00  0.00    +0.000 OA
ATOM     29  H   UNL     1       2.866   3.581  63.655  0.00  0.00    +0.000 HD
ENDBRANCH  21  28
BRANCH   8  30
ATOM     30  C   UNL     1       3.970   9.137  58.763  0.00  0.00    +0.000 C 
ATOM     31  C   UNL     1       2.561   9.216  58.156  0.00  0.00    +0.000 C 
BRANCH  31  32
ATOM     32  C   UNL     1       1.344   9.270  57.693  0.00  0.00    +0.000 C 
ATOM     33  C   UNL     1       1.038  10.494  56.849  0.00  0.00    +0.000 C 
BRANCH  32  35
ATOM     34  O   UNL     1      -0.836   8.248  57.874  0.00  0.00    +0.000 OA
ATOM     35  C   UNL     1       0.379   8.177  57.987  0.00  0.00    +0.000 C 
BRANCH  35  36
ATOM     36  O   UNL     1       0.951   7.029  58.409  0.00  0.00    +0.000 OA
ATOM     37  H   UNL     1       0.316   6.647  59.050  0.00  0.00    +0.000 HD
ENDBRANCH  35  36
ENDBRANCH  32  35
ENDBRANCH  31  32
ENDBRANCH   8  30
BRANCH  20  38
ATOM     38  C   UNL     1       2.862   9.586  63.677  0.00  0.00    +0.000 C 
ATOM     39  C   UNL     1       2.640  11.100  63.800  0.00  0.00    +0.000 C 
BRANCH  39  40
ATOM     40  C   UNL     1       2.465  12.379  63.921  0.00  0.00    +0.000 C 
ATOM     41  C   UNL     1       1.932  12.930  65.209  0.00  0.00    +0.000 C 
ATOM     42  C   UNL     1       3.018  13.307  62.882  0.00  0.00    +0.000 C 
ENDBRANCH  39  40
ENDBRANCH  20  38
BRANCH  25  43
ATOM     43  C   UNL     1       1.682   7.500  67.950  0.00  0.00    +0.000 C 
BRANCH  43  44
ATOM     44  C   UNL     1       2.205   7.973  69.312  0.00  0.00    +0.000 C 
ATOM     45  C   UNL     1       2.730   8.448  70.675  0.00  0.00    +0.000 C 
BRANCH  45  46
ATOM     46  C   UNL     1       3.180   8.847  71.823  0.00  0.00    +0.000 C 
ATOM     47  C   UNL     1       2.312   8.731  73.038  0.00  0.00    +0.000 C 
ATOM     48  C   UNL     1       4.482   9.582  71.903  0.00  0.00    +0.000 C 
ENDBRANCH  45  46
ENDBRANCH  43  44
ENDBRANCH  25  43
TORSDOF 10
ENDMDL
MODEL 2
REMARK VINA RESULT:      -4.6     11.566     17.068
REMARK  Name = 9852185_GambogicAcid.pdbqt.pdb
REMARK  10 active torsions:
REMARK  status: ('A' for Active; 'I' for Inactive)
REMARK    1  A    between atoms: C_8  and  C_30
REMARK    2  A    between atoms: C_20  and  C_38
REMARK    3  A    between atoms: C_21  and  O_28
REMARK    4  A    between atoms: C_25  and  C_43
REMARK    5  A    between atoms: C_31  and  C_32
REMARK    6  A    between atoms: C_32  and  C_35
REMARK    7  A    between atoms: C_35  and  O_36
REMARK    8  A    between atoms: C_39  and  C_40
REMARK    9  A    between atoms: C_43  and  C_44
REMARK   10  A    between atoms: C_45  and  C_46
REMARK                            x       y       z     vdW  Elec       q    Type
REMARK                         _______ _______ _______ _____ _____    ______ ____
ROOT
ATOM      1  O   UNL     1      13.515  14.543  58.218  0.00  0.00    +0.000 OA
ATOM      2  O   UNL     1      15.752  12.741  58.005  0.00  0.00    +0.000 OA
ATOM      3  O   UNL     1      13.034  15.286  61.267  0.00  0.00    +0.000 OA
ATOM      4  O   UNL     1      16.831  10.498  61.285  0.00  0.00    +0.000 OA
ATOM      5  O   UNL     1      18.735  10.366  55.168  0.00  0.00    +0.000 OA
ATOM      6  C   UNL     1      14.887  12.807  59.130  0.00  0.00    +0.000 C 
ATOM      7  C   UNL     1      13.450  12.253  58.824  0.00  0.00    +0.000 C 
ATOM      8  C   UNL     1      14.347  14.276  59.358  0.00  0.00    +0.000 C 
ATOM      9  C   UNL     1      12.902  13.297  57.845  0.00  0.00    +0.000 C 
ATOM     10  C   UNL     1      12.768  12.106  60.111  0.00  0.00    +0.000 C 
ATOM     11  C   UNL     1      13.261  12.855  61.254  0.00  0.00    +0.000 C 
ATOM     12  C   UNL     1      15.492  12.233  60.423  0.00  0.00    +0.000 C 
ATOM     13  C   UNL     1      13.491  14.296  60.718  0.00  0.00    +0.000 C 
ATOM     14  C   UNL     1      14.582  12.346  61.518  0.00  0.00    +0.000 C 
ATOM     15  C   UNL     1      11.379  13.458  57.965  0.00  0.00    +0.000 C 
ATOM     16  C   UNL     1      13.294  12.930  56.405  0.00  0.00    +0.000 C 
ATOM     17  C   UNL     1      16.495  11.174  60.322  0.00  0.00    +0.000 C 
ATOM     18  C   UNL     1      16.665  11.726  57.909  0.00  0.00    +0.000 A 
ATOM     19  C   UNL     1      17.068  10.931  58.991  0.00  0.00    +0.000 A 
ATOM     20  C   UNL     1      17.244  11.529  56.636  0.00  0.00    +0.000 A 
ATOM     21  C   UNL     1      18.025   9.918  58.814  0.00  0.00    +0.000 A 
ATOM     22  C   UNL     1      18.201  10.526  56.450  0.00  0.00    +0.000 A 
ATOM     23  C   UNL     1      18.580   9.721  57.553  0.00  0.00    +0.000 A 
ATOM     24  C   UNL     1      19.560   8.747  57.238  0.00  0.00    +0.000 C 
ATOM     25  C   UNL     1      19.807   9.372  54.921  0.00  0.00    +0.000 C 
ATOM     26  C   UNL     1      20.048   8.627  56.158  0.00  0.00    +0.000 C 
ATOM     27  C   UNL     1      21.056  10.167  54.467  0.00  0.00    +0.000 C 
ENDROOT
BRANCH  21  28
ATOM     28  O   UNL     1      18.442   9.106  59.835  0.00  0.00    +0.000 OA
ATOM     29  H   UNL     1      17.667   8.667  60.251  0.00  0.00    +0.000 HD
ENDBRANCH  21  28
BRANCH   8  30
ATOM     30  C   UNL     1      15.429  15.269  59.416  0.00  0.00    +0.000 C 
ATOM     31  C   UNL     1      16.580  16.286  59.430  0.00  0.00    +0.000 C 
BRANCH  31  32
ATOM     32  C   UNL     1      17.587  17.113  59.410  0.00  0.00    +0.000 C 
ATOM     33  C   UNL     1      17.314  18.465  60.044  0.00  0.00    +0.000 C 
BRANCH  32  35
ATOM     34  O   UNL     1      19.935  16.553  59.421  0.00  0.00    +0.000 OA
ATOM     35  C   UNL     1      18.886  16.701  58.813  0.00  0.00    +0.000 C 
BRANCH  35  36
ATOM     36  O   UNL     1      18.841  16.484  57.481  0.00  0.00    +0.000 OA
ATOM     37  H   UNL     1      18.012  15.982  57.331  0.00  0.00    +0.000 HD
ENDBRANCH  35  36
ENDBRANCH  32  35
ENDBRANCH  31  32
ENDBRANCH   8  30
BRANCH  20  38
ATOM     38  C   UNL     1      16.846  12.356  55.533  0.00  0.00    +0.000 C 
ATOM     39  C   UNL     1      16.393  13.245  54.366  0.00  0.00    +0.000 C 
BRANCH  39  40
ATOM     40  C   UNL     1      15.993  14.002  53.392  0.00  0.00    +0.000 C 
ATOM     41  C   UNL     1      14.550  13.978  52.986  0.00  0.00    +0.000 C 
ATOM     42  C   UNL     1      16.905  15.060  52.851  0.00  0.00    +0.000 C 
ENDBRANCH  39  40
ENDBRANCH  20  38
BRANCH  25  43
ATOM     43  C   UNL     1      19.332   8.489  53.838  0.00  0.00    +0.000 C 
BRANCH  43  44
ATOM     44  C   UNL     1      18.833   7.577  52.711  0.00  0.00    +0.000 C 
ATOM     45  C   UNL     1      18.332   6.665  51.581  0.00  0.00    +0.000 C 
BRANCH  45  46
ATOM     46  C   UNL     1      17.903   5.894  50.632  0.00  0.00    +0.000 C 
ATOM     47  C   UNL     1      17.193   6.493  49.456  0.00  0.00    +0.000 C 
ATOM     48  C   UNL     1      17.955   4.407  50.793  0.00  0.00    +0.000 C 
ENDBRANCH  45  46
ENDBRANCH  43  44
ENDBRANCH  25  43
TORSDOF 10
ENDMDL
MODEL 3
REMARK VINA RESULT:      -4.5     13.060     18.859
REMARK  Name = 9852185_GambogicAcid.pdbqt.pdb
REMARK  10 active torsions:
REMARK  status: ('A' for Active; 'I' for Inactive)
REMARK    1  A    between atoms: C_8  and  C_30
REMARK    2  A    between atoms: C_20  and  C_38
REMARK    3  A    between atoms: C_21  and  O_28
REMARK    4  A    between atoms: C_25  and  C_43
REMARK    5  A    between atoms: C_31  and  C_32
REMARK    6  A    between atoms: C_32  and  C_35
REMARK    7  A    between atoms: C_35  and  O_36
REMARK    8  A    between atoms: C_39  and  C_40
REMARK    9  A    between atoms: C_43  and  C_44
REMARK   10  A    between atoms: C_45  and  C_46
REMARK                            x       y       z     vdW  Elec       q    Type
REMARK                         _______ _______ _______ _____ _____    ______ ____
ROOT
ATOM      1  O   UNL     1       7.470   5.006  79.374  0.00  0.00    +0.000 OA
ATOM      2  O   UNL     1       7.301   2.351  78.269  0.00  0.00    +0.000 OA
ATOM      3  O   UNL     1       5.803   5.144  82.071  0.00  0.00    +0.000 OA
ATOM      4  O   UNL     1       4.135  -0.058  79.331  0.00  0.00    +0.000 OA
ATOM      5  O   UNL     1       8.739  -0.701  74.922  0.00  0.00    +0.000 OA
ATOM      6  C   UNL     1       6.280   2.955  79.051  0.00  0.00    +0.000 C 
ATOM      7  C   UNL     1       5.551   4.125  78.298  0.00  0.00    +0.000 C 
ATOM      8  C   UNL     1       6.885   3.936  80.133  0.00  0.00    +0.000 C 
ATOM      9  C   UNL     1       6.653   5.186  78.204  0.00  0.00    +0.000 C 
ATOM     10  C   UNL     1       4.357   4.455  79.079  0.00  0.00    +0.000 C 
ATOM     11  C   UNL     1       4.305   4.060  80.476  0.00  0.00    +0.000 C 
ATOM     12  C   UNL     1       5.306   1.953  79.694  0.00  0.00    +0.000 C 
ATOM     13  C   UNL     1       5.686   4.471  81.059  0.00  0.00    +0.000 C 
ATOM     14  C   UNL     1       4.318   2.621  80.481  0.00  0.00    +0.000 C 
ATOM     15  C   UNL     1       6.085   6.612  78.232  0.00  0.00    +0.000 C 
ATOM     16  C   UNL     1       7.494   4.964  76.937  0.00  0.00    +0.000 C 
ATOM     17  C   UNL     1       5.069   0.673  79.028  0.00  0.00    +0.000 C 
ATOM     18  C   UNL     1       7.054   1.168  77.626  0.00  0.00    +0.000 A 
ATOM     19  C   UNL     1       5.992   0.311  77.945  0.00  0.00    +0.000 A 
ATOM     20  C   UNL     1       7.973   0.807  76.616  0.00  0.00    +0.000 A 
ATOM     21  C   UNL     1       5.816  -0.896  77.248  0.00  0.00    +0.000 A 
ATOM     22  C   UNL     1       7.809  -0.395  75.919  0.00  0.00    +0.000 A 
ATOM     23  C   UNL     1       6.718  -1.239  76.245  0.00  0.00    +0.000 A 
ATOM     24  C   UNL     1       6.665  -2.427  75.474  0.00  0.00    +0.000 C 
ATOM     25  C   UNL     1       8.667  -1.993  74.198  0.00  0.00    +0.000 C 
ATOM     26  C   UNL     1       7.475  -2.714  74.648  0.00  0.00    +0.000 C 
ATOM     27  C   UNL     1       9.971  -2.762  74.527  0.00  0.00    +0.000 C 
ENDROOT
BRANCH  21  28
ATOM     28  O   UNL     1       4.788  -1.762  77.513  0.00  0.00    +0.000 OA
ATOM     29  H   UNL     1       5.129  -2.545  78.001  0.00  0.00    +0.000 HD
ENDBRANCH  21  28
BRANCH   8  30
ATOM     30  C   UNL     1       7.923   3.295  80.953  0.00  0.00    +0.000 C 
ATOM     31  C   UNL     1       9.027   2.601  81.765  0.00  0.00    +0.000 C 
BRANCH  31  32
ATOM     32  C   UNL     1       9.964   1.971  82.415  0.00  0.00    +0.000 C 
ATOM     33  C   UNL     1      10.511   2.711  83.622  0.00  0.00    +0.000 C 
BRANCH  32  35
ATOM     34  O   UNL     1      11.479   0.099  82.246  0.00  0.00    +0.000 OA
ATOM     35  C   UNL     1      10.411   0.623  81.970  0.00  0.00    +0.000 C 
BRANCH  35  36
ATOM     36  O   UNL     1       9.518  -0.031  81.197  0.00  0.00    +0.000 OA
ATOM     37  H   UNL     1       9.956  -0.874  80.956  0.00  0.00    +0.000 HD
ENDBRANCH  35  36
ENDBRANCH  32  35
ENDBRANCH  31  32
ENDBRANCH   8  30
BRANCH  20  38
ATOM     38  C   UNL     1       9.071   1.675  76.303  0.00  0.00    +0.000 C 
ATOM     39  C   UNL     1      10.264   2.588  75.988  0.00  0.00    +0.000 C 
BRANCH  39  40
ATOM     40  C   UNL     1      11.285   3.347  75.732  0.00  0.00    +0.000 C 
ATOM     41  C   UNL     1      12.305   2.893  74.732  0.00  0.00    +0.000 C 
ATOM     42  C   UNL     1      11.310   4.755  76.242  0.00  0.00    +0.000 C 
ENDBRANCH  39  40
ENDBRANCH  20  38
BRANCH  25  43
ATOM     43  C   UNL     1       8.600  -1.676  72.759  0.00  0.00    +0.000 C 
BRANCH  43  44
ATOM     44  C   UNL     1       8.532  -1.354  71.261  0.00  0.00    +0.000 C 
ATOM     45  C   UNL     1       8.463  -1.034  69.761  0.00  0.00    +0.000 C 
BRANCH  45  46
ATOM     46  C   UNL     1       8.409  -0.769  68.493  0.00  0.00    +0.000 C 
ATOM     47  C   UNL     1       7.154  -1.063  67.729  0.00  0.00    +0.000 C 
ATOM     48  C   UNL     1       9.644  -0.344  67.763  0.00  0.00    +0.000 C 
ENDBRANCH  45  46
ENDBRANCH  43  44
ENDBRANCH  25  43
TORSDOF 10
ENDMDL
MODEL 4
REMARK VINA RESULT:      -4.5      4.294      6.534
REMARK  Name = 9852185_GambogicAcid.pdbqt.pdb
REMARK  10 active torsions:
REMARK  status: ('A' for Active; 'I' for Inactive)
REMARK    1  A    between atoms: C_8  and  C_30
REMARK    2  A    between atoms: C_20  and  C_38
REMARK    3  A    between atoms: C_21  and  O_28
REMARK    4  A    between atoms: C_25  and  C_43
REMARK    5  A    between atoms: C_31  and  C_32
REMARK    6  A    between atoms: C_32  and  C_35
REMARK    7  A    between atoms: C_35  and  O_36
REMARK    8  A    between atoms: C_39  and  C_40
REMARK    9  A    between atoms: C_43  and  C_44
REMARK   10  A    between atoms: C_45  and  C_46
REMARK                            x       y       z     vdW  Elec       q    Type
REMARK                         _______ _______ _______ _____ _____    ______ ____
ROOT
ATOM      1  O   UNL     1       4.124   7.795  60.695  0.00  0.00    +0.000 OA
ATOM      2  O   UNL     1       4.965   5.041  60.648  0.00  0.00    +0.000 OA
ATOM      3  O   UNL     1       4.666   9.122  57.863  0.00  0.00    +0.000 OA
ATOM      4  O   UNL     1       7.760   3.853  57.868  0.00  0.00    +0.000 OA
ATOM      5  O   UNL     1       5.180   0.872  62.919  0.00  0.00    +0.000 OA
ATOM      6  C   UNL     1       5.560   6.069  59.868  0.00  0.00    +0.000 C 
ATOM      7  C   UNL     1       6.385   7.087  60.734  0.00  0.00    +0.000 C 
ATOM      8  C   UNL     1       4.501   7.170  59.459  0.00  0.00    +0.000 C 
ATOM      9  C   UNL     1       5.287   7.790  61.540  0.00  0.00    +0.000 C 
ATOM     10  C   UNL     1       7.168   7.900  59.803  0.00  0.00    +0.000 C 
ATOM     11  C   UNL     1       6.749   7.973  58.414  0.00  0.00    +0.000 C 
ATOM     12  C   UNL     1       6.332   5.558  58.640  0.00  0.00    +0.000 C 
ATOM     13  C   UNL     1       5.214   8.218  58.473  0.00  0.00    +0.000 C 
ATOM     14  C   UNL     1       6.888   6.639  57.889  0.00  0.00    +0.000 C 
ATOM     15  C   UNL     1       5.651   9.247  61.862  0.00  0.00    +0.000 C 
ATOM     16  C   UNL     1       4.995   7.009  62.831  0.00  0.00    +0.000 C 
ATOM     17  C   UNL     1       6.930   4.225  58.686  0.00  0.00    +0.000 C 
ATOM     18  C   UNL     1       5.553   3.806  60.708  0.00  0.00    +0.000 A 
ATOM     19  C   UNL     1       6.509   3.351  59.789  0.00  0.00    +0.000 A 
ATOM     20  C   UNL     1       5.110   2.957  61.745  0.00  0.00    +0.000 A 
ATOM     21  C   UNL     1       7.055   2.062  59.909  0.00  0.00    +0.000 A 
ATOM     22  C   UNL     1       5.644   1.669  61.870  0.00  0.00    +0.000 A 
ATOM     23  C   UNL     1       6.624   1.235  60.942  0.00  0.00    +0.000 A 
ATOM     24  C   UNL     1       7.080  -0.087  61.171  0.00  0.00    +0.000 C 
ATOM     25  C   UNL     1       5.648  -0.527  63.063  0.00  0.00    +0.000 C 
ATOM     26  C   UNL     1       6.663  -0.787  62.040  0.00  0.00    +0.000 C 
ATOM     27  C   UNL     1       4.404  -1.434  62.892  0.00  0.00    +0.000 C 
ENDROOT
BRANCH  21  28
ATOM     28  O   UNL     1       8.000   1.574  59.046  0.00  0.00    +0.000 OA
ATOM     29  H   UNL     1       8.340   0.712  59.376  0.00  0.00    +0.000 HD
ENDBRANCH  21  28
BRANCH   8  30
ATOM     30  C   UNL     1       3.309   6.592  58.821  0.00  0.00    +0.000 C 
ATOM     31  C   UNL     1       2.075   5.940  58.179  0.00  0.00    +0.000 C 
BRANCH  31  32
ATOM     32  C   UNL     1       1.054   5.337  57.639  0.00  0.00    +0.000 C 
ATOM     33  C   UNL     1       0.012   6.263  57.038  0.00  0.00    +0.000 C 
BRANCH  32  35
ATOM     34  O   UNL     1       0.740   3.157  56.651  0.00  0.00    +0.000 OA
ATOM     35  C   UNL     1       0.979   3.851  57.628  0.00  0.00    +0.000 C 
BRANCH  35  36
ATOM     36  O   UNL     1       1.204   3.275  58.827  0.00  0.00    +0.000 OA
ATOM     37  H   UNL     1       1.102   2.312  58.673  0.00  0.00    +0.000 HD
ENDBRANCH  35  36
ENDBRANCH  32  35
ENDBRANCH  31  32
ENDBRANCH   8  30
BRANCH  20  38
ATOM     38  C   UNL     1       4.117   3.416  62.672  0.00  0.00    +0.000 C 
ATOM     39  C   UNL     1       3.070   3.893  63.688  0.00  0.00    +0.000 C 
BRANCH  39  40
ATOM     40  C   UNL     1       2.198   4.291  64.562  0.00  0.00    +0.000 C 
ATOM     41  C   UNL     1       2.077   5.754  64.866  0.00  0.00    +0.000 C 
ATOM     42  C   UNL     1       1.166   3.333  65.072  0.00  0.00    +0.000 C 
ENDBRANCH  39  40
ENDBRANCH  20  38
BRANCH  25  43
ATOM     43  C   UNL     1       6.202  -0.658  64.424  0.00  0.00    +0.000 C 
BRANCH  43  44
ATOM     44  C   UNL     1       6.781  -0.785  65.839  0.00  0.00    +0.000 C 
ATOM     45  C   UNL     1       7.360  -0.916  67.255  0.00  0.00    +0.000 C 
BRANCH  45  46
ATOM     46  C   UNL     1       7.842  -1.027  68.453  0.00  0.00    +0.000 C 
ATOM     47  C   UNL     1       7.065  -1.769  69.497  0.00  0.00    +0.000 C 
ATOM     48  C   UNL     1       9.074  -0.269  68.838  0.00  0.00    +0.000 C 
ENDBRANCH  45  46
ENDBRANCH  43  44
ENDBRANCH  25  43
TORSDOF 10
ENDMDL
MODEL 5
REMARK VINA RESULT:      -4.4     16.575     20.194
REMARK  Name = 9852185_GambogicAcid.pdbqt.pdb
REMARK  10 active torsions:
REMARK  status: ('A' for Active; 'I' for Inactive)
REMARK    1  A    between atoms: C_8  and  C_30
REMARK    2  A    between atoms: C_20  and  C_38
REMARK    3  A    between atoms: C_21  and  O_28
REMARK    4  A    between atoms: C_25  and  C_43
REMARK    5  A    between atoms: C_31  and  C_32
REMARK    6  A    between atoms: C_32  and  C_35
REMARK    7  A    between atoms: C_35  and  O_36
REMARK    8  A    between atoms: C_39  and  C_40
REMARK    9  A    between atoms: C_43  and  C_44
REMARK   10  A    between atoms: C_45  and  C_46
REMARK                            x       y       z     vdW  Elec       q    Type
REMARK                         _______ _______ _______ _____ _____    ______ ____
ROOT
ATOM      1  O   UNL     1      16.293  -1.514  51.845  0.00  0.00    +0.000 OA
ATOM      2  O   UNL     1      16.780   1.163  50.902  0.00  0.00    +0.000 OA
ATOM      3  O   UNL     1      14.846  -3.195  49.574  0.00  0.00    +0.000 OA
ATOM      4  O   UNL     1      14.478   2.650  47.830  0.00  0.00    +0.000 OA
ATOM      5  O   UNL     1      18.760   5.406  51.717  0.00  0.00    +0.000 OA
ATOM      6  C   UNL     1      15.690   0.356  50.479  0.00  0.00    +0.000 C 
ATOM      7  C   UNL     1      14.618   0.144  51.607  0.00  0.00    +0.000 C 
ATOM      8  C   UNL     1      16.078  -1.177  50.465  0.00  0.00    +0.000 C 
ATOM      9  C   UNL     1      15.378  -0.720  52.619  0.00  0.00    +0.000 C 
ATOM     10  C   UNL     1      13.438  -0.440  50.968  0.00  0.00    +0.000 C 
ATOM     11  C   UNL     1      13.593  -1.102  49.684  0.00  0.00    +0.000 C 
ATOM     12  C   UNL     1      15.076   0.784  49.135  0.00  0.00    +0.000 C 
ATOM     13  C   UNL     1      14.847  -2.006  49.851  0.00  0.00    +0.000 C 
ATOM     14  C   UNL     1      14.000  -0.077  48.758  0.00  0.00    +0.000 C 
ATOM     15  C   UNL     1      14.445  -1.672  53.381  0.00  0.00    +0.000 C 
ATOM     16  C   UNL     1      16.156   0.172  53.598  0.00  0.00    +0.000 C 
ATOM     17  C   UNL     1      15.152   2.189  48.741  0.00  0.00    +0.000 C 
ATOM     18  C   UNL     1      16.822   2.486  50.552  0.00  0.00    +0.000 A 
ATOM     19  C   UNL     1      16.061   3.045  49.516  0.00  0.00    +0.000 A 
ATOM     20  C   UNL     1      17.731   3.291  51.272  0.00  0.00    +0.000 A 
ATOM     21  C   UNL     1      16.173   4.410  49.206  0.00  0.00    +0.000 A 
ATOM     22  C   UNL     1      17.854   4.651  50.968  0.00  0.00    +0.000 A 
ATOM     23  C   UNL     1      17.061   5.200  49.930  0.00  0.00    +0.000 A 
ATOM     24  C   UNL     1      17.281   6.584  49.714  0.00  0.00    +0.000 C 
ATOM     25  C   UNL     1      18.993   6.835  51.397  0.00  0.00    +0.000 C 
ATOM     26  C   UNL     1      18.079   7.227  50.323  0.00  0.00    +0.000 C 
ATOM     27  C   UNL     1      20.478   6.960  50.972  0.00  0.00    +0.000 C 
ENDROOT
BRANCH  21  28
ATOM     28  O   UNL     1      15.443   5.007  48.213  0.00  0.00    +0.000 OA
ATOM     29  H   UNL     1      14.729   4.401  47.912  0.00  0.00    +0.000 HD
ENDBRANCH  21  28
BRANCH   8  30
ATOM     30  C   UNL     1      17.307  -1.438  49.702  0.00  0.00    +0.000 C 
ATOM     31  C   UNL     1      18.561  -1.721  48.861  0.00  0.00    +0.000 C 
BRANCH  31  32
ATOM     32  C   UNL     1      19.592  -1.995  48.113  0.00  0.00    +0.000 C 
ATOM     33  C   UNL     1      19.701  -3.447  47.685  0.00  0.00    +0.000 C 
BRANCH  32  35
ATOM     34  O   UNL     1      21.757  -1.049  47.614  0.00  0.00    +0.000 OA
ATOM     35  C   UNL     1      20.547  -0.921  47.728  0.00  0.00    +0.000 C 
BRANCH  35  36
ATOM     36  O   UNL     1      19.970   0.277  47.493  0.00  0.00    +0.000 OA
ATOM     37  H   UNL     1      19.406   0.447  48.277  0.00  0.00    +0.000 HD
ENDBRANCH  35  36
ENDBRANCH  32  35
ENDBRANCH  31  32
ENDBRANCH   8  30
BRANCH  20  38
ATOM     38  C   UNL     1      18.525   2.715  52.318  0.00  0.00    +0.000 C 
ATOM     39  C   UNL     1      19.355   2.073  53.440  0.00  0.00    +0.000 C 
BRANCH  39  40
ATOM     40  C   UNL     1      20.044   1.514  54.385  0.00  0.00    +0.000 C 
ATOM     41  C   UNL     1      21.408   2.044  54.712  0.00  0.00    +0.000 C 
ATOM     42  C   UNL     1      19.390   0.520  55.295  0.00  0.00    +0.000 C 
ENDBRANCH  39  40
ENDBRANCH  20  38
BRANCH  25  43
ATOM     43  C   UNL     1      18.741   7.599  52.633  0.00  0.00    +0.000 C 
BRANCH  43  44
ATOM     44  C   UNL     1      18.481   8.401  53.914  0.00  0.00    +0.000 C 
ATOM     45  C   UNL     1      18.221   9.206  55.196  0.00  0.00    +0.000 C 
BRANCH  45  46
ATOM     46  C   UNL     1      18.009   9.887  56.278  0.00  0.00    +0.000 C 
ATOM     47  C   UNL     1      17.260  11.181  56.203  0.00  0.00    +0.000 C 
ATOM     48  C   UNL     1      18.660   9.475  57.562  0.00  0.00    +0.000 C 
ENDBRANCH  45  46
ENDBRANCH  43  44
ENDBRANCH  25  43
TORSDOF 10
ENDMDL
MODEL 6
REMARK VINA RESULT:      -4.3     16.757     20.939
REMARK  Name = 9852185_GambogicAcid.pdbqt.pdb
REMARK  10 active torsions:
REMARK  status: ('A' for Active; 'I' for Inactive)
REMARK    1  A    between atoms: C_8  and  C_30
REMARK    2  A    between atoms: C_20  and  C_38
REMARK    3  A    between atoms: C_21  and  O_28
REMARK    4  A    between atoms: C_25  and  C_43
REMARK    5  A    between atoms: C_31  and  C_32
REMARK    6  A    between atoms: C_32  and  C_35
REMARK    7  A    between atoms: C_35  and  O_36
REMARK    8  A    between atoms: C_39  and  C_40
REMARK    9  A    between atoms: C_43  and  C_44
REMARK   10  A    between atoms: C_45  and  C_46
REMARK                            x       y       z     vdW  Elec       q    Type
REMARK                         _______ _______ _______ _____ _____    ______ ____
ROOT
ATOM      1  O   UNL     1      22.336   7.170  51.758  0.00  0.00    +0.000 OA
ATOM      2  O   UNL     1      20.362   5.117  52.191  0.00  0.00    +0.000 OA
ATOM      3  O   UNL     1      20.922   9.792  50.661  0.00  0.00    +0.000 OA
ATOM      4  O   UNL     1      16.791   5.317  50.151  0.00  0.00    +0.000 OA
ATOM      5  O   UNL     1      19.396   0.762  53.829  0.00  0.00    +0.000 OA
ATOM      6  C   UNL     1      20.254   6.130  51.201  0.00  0.00    +0.000 C 
ATOM      7  C   UNL     1      21.281   5.944  50.027  0.00  0.00    +0.000 C 
ATOM      8  C   UNL     1      20.935   7.477  51.674  0.00  0.00    +0.000 C 
ATOM      9  C   UNL     1      22.620   6.215  50.722  0.00  0.00    +0.000 C 
ATOM     10  C   UNL     1      20.875   6.856  48.957  0.00  0.00    +0.000 C 
ATOM     11  C   UNL     1      20.021   7.985  49.287  0.00  0.00    +0.000 C 
ATOM     12  C   UNL     1      18.817   6.379  50.710  0.00  0.00    +0.000 C 
ATOM     13  C   UNL     1      20.655   8.604  50.565  0.00  0.00    +0.000 C 
ATOM     14  C   UNL     1      18.774   7.419  49.732  0.00  0.00    +0.000 C 
ATOM     15  C   UNL     1      23.650   6.836  49.768  0.00  0.00    +0.000 C 
ATOM     16  C   UNL     1      23.168   4.919  51.339  0.00  0.00    +0.000 C 
ATOM     17  C   UNL     1      17.859   5.276  50.748  0.00  0.00    +0.000 C 
ATOM     18  C   UNL     1      19.476   4.074  52.196  0.00  0.00    +0.000 A 
ATOM     19  C   UNL     1      18.248   4.088  51.519  0.00  0.00    +0.000 A 
ATOM     20  C   UNL     1      19.839   2.954  52.975  0.00  0.00    +0.000 A 
ATOM     21  C   UNL     1      17.385   2.981  51.587  0.00  0.00    +0.000 A 
ATOM     22  C   UNL     1      18.985   1.849  53.053  0.00  0.00    +0.000 A 
ATOM     23  C   UNL     1      17.757   1.876  52.346  0.00  0.00    +0.000 A 
ATOM     24  C   UNL     1      16.979   0.702  52.509  0.00  0.00    +0.000 C 
ATOM     25  C   UNL     1      18.504  -0.408  54.014  0.00  0.00    +0.000 C 
ATOM     26  C   UNL     1      17.304  -0.214  53.199  0.00  0.00    +0.000 C 
ATOM     27  C   UNL     1      18.176  -0.484  55.526  0.00  0.00    +0.000 C 
ENDROOT
BRANCH  21  28
ATOM     28  O   UNL     1      16.182   2.939  50.935  0.00  0.00    +0.000 OA
ATOM     29  H   UNL     1      15.455   2.801  51.583  0.00  0.00    +0.000 HD
ENDBRANCH  21  28
BRANCH   8  30
ATOM     30  C   UNL     1      20.452   7.917  52.990  0.00  0.00    +0.000 C 
ATOM     31  C   UNL     1      19.895   8.369  54.349  0.00  0.00    +0.000 C 
BRANCH  31  32
ATOM     32  C   UNL     1      19.375   8.767  55.475  0.00  0.00    +0.000 C 
ATOM     33  C   UNL     1      20.329   8.762  56.655  0.00  0.00    +0.000 C 
BRANCH  32  35
ATOM     34  O   UNL     1      17.185   9.260  54.585  0.00  0.00    +0.000 OA
ATOM     35  C   UNL     1      17.952   9.199  55.534  0.00  0.00    +0.000 C 
BRANCH  35  36
ATOM     36  O   UNL     1      17.526   9.541  56.769  0.00  0.00    +0.000 OA
ATOM     37  H   UNL     1      17.747   8.773  57.338  0.00  0.00    +0.000 HD
ENDBRANCH  35  36
ENDBRANCH  32  35
ENDBRANCH  31  32
ENDBRANCH   8  30
BRANCH  20  38
ATOM     38  C   UNL     1      21.087   2.949  53.684  0.00  0.00    +0.000 C 
ATOM     39  C   UNL     1      22.408   2.955  54.467  0.00  0.00    +0.000 C 
BRANCH  39  40
ATOM     40  C   UNL     1      23.512   2.965  55.146  0.00  0.00    +0.000 C 
ATOM     41  C   UNL     1      24.822   2.924  54.418  0.00  0.00    +0.000 C 
ATOM     42  C   UNL     1      23.480   3.262  56.614  0.00  0.00    +0.000 C 
ENDBRANCH  39  40
ENDBRANCH  20  38
BRANCH  25  43
ATOM     43  C   UNL     1      19.264  -1.598  53.588  0.00  0.00    +0.000 C 
BRANCH  43  44
ATOM     44  C   UNL     1      20.055  -2.838  53.153  0.00  0.00    +0.000 C 
ATOM     45  C   UNL     1      20.846  -4.080  52.716  0.00  0.00    +0.000 C 
BRANCH  45  46
ATOM     46  C   UNL     1      21.508  -5.132  52.350  0.00  0.00    +0.000 C 
ATOM     47  C   UNL     1      21.836  -6.189  53.360  0.00  0.00    +0.000 C 
ATOM     48  C   UNL     1      22.093  -5.208  50.974  0.00  0.00    +0.000 C 
ENDBRANCH  45  46
ENDBRANCH  43  44
ENDBRANCH  25  43
TORSDOF 10
ENDMDL
MODEL 7
REMARK VINA RESULT:      -4.3     12.270     15.867
REMARK  Name = 9852185_GambogicAcid.pdbqt.pdb
REMARK  10 active torsions:
REMARK  status: ('A' for Active; 'I' for Inactive)
REMARK    1  A    between atoms: C_8  and  C_30
REMARK    2  A    between atoms: C_20  and  C_38
REMARK    3  A    between atoms: C_21  and  O_28
REMARK    4  A    between atoms: C_25  and  C_43
REMARK    5  A    between atoms: C_31  and  C_32
REMARK    6  A    between atoms: C_32  and  C_35
REMARK    7  A    between atoms: C_35  and  O_36
REMARK    8  A    between atoms: C_39  and  C_40
REMARK    9  A    between atoms: C_43  and  C_44
REMARK   10  A    between atoms: C_45  and  C_46
REMARK                            x       y       z     vdW  Elec       q    Type
REMARK                         _______ _______ _______ _____ _____    ______ ____
ROOT
ATOM      1  O   UNL     1       5.792  11.787  75.621  0.00  0.00    +0.000 OA
ATOM      2  O   UNL     1       5.791   8.972  76.232  0.00  0.00    +0.000 OA
ATOM      3  O   UNL     1       2.807  12.863  75.557  0.00  0.00    +0.000 OA
ATOM      4  O   UNL     1       2.396   6.766  75.485  0.00  0.00    +0.000 OA
ATOM      5  O   UNL     1       8.334   5.075  77.196  0.00  0.00    +0.000 OA
ATOM      6  C   UNL     1       4.741   9.638  75.544  0.00  0.00    +0.000 C 
ATOM      7  C   UNL     1       5.153  10.089  74.097  0.00  0.00    +0.000 C 
ATOM      8  C   UNL     1       4.584  11.132  76.038  0.00  0.00    +0.000 C 
ATOM      9  C   UNL     1       6.192  11.179  74.380  0.00  0.00    +0.000 C 
ATOM     10  C   UNL     1       3.924  10.485  73.409  0.00  0.00    +0.000 C 
ATOM     11  C   UNL     1       2.758  10.831  74.203  0.00  0.00    +0.000 C 
ATOM     12  C   UNL     1       3.394   8.897  75.584  0.00  0.00    +0.000 C 
ATOM     13  C   UNL     1       3.299  11.772  75.317  0.00  0.00    +0.000 C 
ATOM     14  C   UNL     1       2.379   9.626  74.893  0.00  0.00    +0.000 C 
ATOM     15  C   UNL     1       6.199  12.266  73.295  0.00  0.00    +0.000 C 
ATOM     16  C   UNL     1       7.589  10.555  74.528  0.00  0.00    +0.000 C 
ATOM     17  C   UNL     1       3.395   7.439  75.700  0.00  0.00    +0.000 C 
ATOM     18  C   UNL     1       5.795   7.605  76.306  0.00  0.00    +0.000 A 
ATOM     19  C   UNL     1       4.670   6.806  76.061  0.00  0.00    +0.000 A 
ATOM     20  C   UNL     1       7.013   7.008  76.697  0.00  0.00    +0.000 A 
ATOM     21  C   UNL     1       4.751   5.408  76.174  0.00  0.00    +0.000 A 
ATOM     22  C   UNL     1       7.103   5.617  76.817  0.00  0.00    +0.000 A 
ATOM     23  C   UNL     1       5.959   4.825  76.546  0.00  0.00    +0.000 A 
ATOM     24  C   UNL     1       6.176   3.434  76.708  0.00  0.00    +0.000 C 
ATOM     25  C   UNL     1       8.476   3.615  77.414  0.00  0.00    +0.000 C 
ATOM     26  C   UNL     1       7.211   2.966  77.068  0.00  0.00    +0.000 C 
ATOM     27  C   UNL     1       8.841   3.421  78.907  0.00  0.00    +0.000 C 
ENDROOT
BRANCH  21  28
ATOM     28  O   UNL     1       3.685   4.582  75.933  0.00  0.00    +0.000 OA
ATOM     29  H   UNL     1       3.383   4.688  75.003  0.00  0.00    +0.000 HD
ENDBRANCH  21  28
BRANCH   8  30
ATOM     30  C   UNL     1       4.456  11.229  77.499  0.00  0.00    +0.000 C 
ATOM     31  C   UNL     1       4.342  11.280  79.030  0.00  0.00    +0.000 C 
BRANCH  31  32
ATOM     32  C   UNL     1       4.242  11.267  80.329  0.00  0.00    +0.000 C 
ATOM     33  C   UNL     1       3.948  12.615  80.960  0.00  0.00    +0.000 C 
BRANCH  32  35
ATOM     34  O   UNL     1       4.368   9.873  82.297  0.00  0.00    +0.000 OA
ATOM     35  C   UNL     1       4.396   9.992  81.081  0.00  0.00    +0.000 C 
BRANCH  35  36
ATOM     36  O   UNL     1       4.580   8.906  80.301  0.00  0.00    +0.000 OA
ATOM     37  H   UNL     1       5.535   8.908  80.080  0.00  0.00    +0.000 HD
ENDBRANCH  35  36
ENDBRANCH  32  35
ENDBRANCH  31  32
ENDBRANCH   8  30
BRANCH  20  38
ATOM     38  C   UNL     1       8.159   7.827  76.966  0.00  0.00    +0.000 C 
ATOM     39  C   UNL     1       9.388   8.712  77.224  0.00  0.00    +0.000 C 
BRANCH  39  40
ATOM     40  C   UNL     1      10.423   9.466  77.423  0.00  0.00    +0.000 C 
ATOM     41  C   UNL     1      11.658   8.874  78.031  0.00  0.00    +0.000 C 
ATOM     42  C   UNL     1      10.467  10.840  76.827  0.00  0.00    +0.000 C 
ENDBRANCH  39  40
ENDBRANCH  20  38
BRANCH  25  43
ATOM     43  C   UNL     1       9.578   3.157  76.547  0.00  0.00    +0.000 C 
BRANCH  43  44
ATOM     44  C   UNL     1      10.724   2.687  75.642  0.00  0.00    +0.000 C 
ATOM     45  C   UNL     1      11.869   2.218  74.733  0.00  0.00    +0.000 C 
BRANCH  45  46
ATOM     46  C   UNL     1      12.832   1.817  73.964  0.00  0.00    +0.000 C 
ATOM     47  C   UNL     1      14.111   2.595  73.912  0.00  0.00    +0.000 C 
ATOM     48  C   UNL     1      12.604   0.692  73.002  0.00  0.00    +0.000 C 
ENDBRANCH  45  46
ENDBRANCH  43  44
ENDBRANCH  25  43
TORSDOF 10
ENDMDL
MODEL 8
REMARK VINA RESULT:      -4.3     16.515     20.748
REMARK  Name = 9852185_GambogicAcid.pdbqt.pdb
REMARK  10 active torsions:
REMARK  status: ('A' for Active; 'I' for Inactive)
REMARK    1  A    between atoms: C_8  and  C_30
REMARK    2  A    between atoms: C_20  and  C_38
REMARK    3  A    between atoms: C_21  and  O_28
REMARK    4  A    between atoms: C_25  and  C_43
REMARK    5  A    between atoms: C_31  and  C_32
REMARK    6  A    between atoms: C_32  and  C_35
REMARK    7  A    between atoms: C_35  and  O_36
REMARK    8  A    between atoms: C_39  and  C_40
REMARK    9  A    between atoms: C_43  and  C_44
REMARK   10  A    between atoms: C_45  and  C_46
REMARK                            x       y       z     vdW  Elec       q    Type
REMARK                         _______ _______ _______ _____ _____    ______ ____
ROOT
ATOM      1  O   UNL     1      20.952   7.268  50.592  0.00  0.00    +0.000 OA
ATOM      2  O   UNL     1      19.656   4.924  51.653  0.00  0.00    +0.000 OA
ATOM      3  O   UNL     1      18.788   9.168  49.257  0.00  0.00    +0.000 OA
ATOM      4  O   UNL     1      15.999   3.801  50.129  0.00  0.00    +0.000 OA
ATOM      5  O   UNL     1      20.056   0.903  54.154  0.00  0.00    +0.000 OA
ATOM      6  C   UNL     1      19.190   5.650  50.524  0.00  0.00    +0.000 C 
ATOM      7  C   UNL     1      20.121   5.486  49.269  0.00  0.00    +0.000 C 
ATOM      8  C   UNL     1      19.519   7.191  50.651  0.00  0.00    +0.000 C 
ATOM      9  C   UNL     1      21.392   6.220  49.711  0.00  0.00    +0.000 C 
ATOM     10  C   UNL     1      19.390   6.026  48.123  0.00  0.00    +0.000 C 
ATOM     11  C   UNL     1      18.294   6.950  48.364  0.00  0.00    +0.000 C 
ATOM     12  C   UNL     1      17.702   5.426  50.203  0.00  0.00    +0.000 C 
ATOM     13  C   UNL     1      18.846   7.959  49.411  0.00  0.00    +0.000 C 
ATOM     14  C   UNL     1      17.292   6.197  49.072  0.00  0.00    +0.000 C 
ATOM     15  C   UNL     1      22.126   6.866  48.528  0.00  0.00    +0.000 C 
ATOM     16  C   UNL     1      22.324   5.258  50.465  0.00  0.00    +0.000 C 
ATOM     17  C   UNL     1      17.086   4.152  50.569  0.00  0.00    +0.000 C 
ATOM     18  C   UNL     1      19.090   3.718  51.965  0.00  0.00    +0.000 A 
ATOM     19  C   UNL     1      17.850   3.285  51.476  0.00  0.00    +0.000 A 
ATOM     20  C   UNL     1      19.811   2.910  52.872  0.00  0.00    +0.000 A 
ATOM     21  C   UNL     1      17.329   2.037  51.858  0.00  0.00    +0.000 A 
ATOM     22  C   UNL     1      19.299   1.668  53.263  0.00  0.00    +0.000 A 
ATOM     23  C   UNL     1      18.052   1.241  52.741  0.00  0.00    +0.000 A 
ATOM     24  C   UNL     1      17.640  -0.029  53.216  0.00  0.00    +0.000 C 
ATOM     25  C   UNL     1      19.536  -0.387  54.665  0.00  0.00    +0.000 C 
ATOM     26  C   UNL     1      18.261  -0.671  54.005  0.00  0.00    +0.000 C 
ATOM     27  C   UNL     1      19.375  -0.228  56.197  0.00  0.00    +0.000 C 
ENDROOT
BRANCH  21  28
ATOM     28  O   UNL     1      16.130   1.563  51.398  0.00  0.00    +0.000 OA
ATOM     29  H   UNL     1      16.062   0.598  51.576  0.00  0.00    +0.000 HD
ENDBRANCH  21  28
BRANCH   8  30
ATOM     30  C   UNL     1      19.052   7.761  51.923  0.00  0.00    +0.000 C 
ATOM     31  C   UNL     1      18.533   8.390  53.225  0.00  0.00    +0.000 C 
BRANCH  31  32
ATOM     32  C   UNL     1      18.081   8.972  54.300  0.00  0.00    +0.000 C 
ATOM     33  C   UNL     1      18.835   8.634  55.572  0.00  0.00    +0.000 C 
BRANCH  32  35
ATOM     34  O   UNL     1      16.678  10.662  53.296  0.00  0.00    +0.000 OA
ATOM     35  C   UNL     1      16.921   9.900  54.220  0.00  0.00    +0.000 C 
BRANCH  35  36
ATOM     36  O   UNL     1      16.098   9.853  55.290  0.00  0.00    +0.000 OA
ATOM     37  H   UNL     1      15.291   9.395  54.973  0.00  0.00    +0.000 HD
ENDBRANCH  35  36
ENDBRANCH  32  35
ENDBRANCH  31  32
ENDBRANCH   8  30
BRANCH  20  38
ATOM     38  C   UNL     1      21.071   3.362  53.388  0.00  0.00    +0.000 C 
ATOM     39  C   UNL     1      22.406   3.848  53.970  0.00  0.00    +0.000 C 
BRANCH  39  40
ATOM     40  C   UNL     1      23.526   4.256  54.480  0.00  0.00    +0.000 C 
ATOM     41  C   UNL     1      23.544   4.792  55.880  0.00  0.00    +0.000 C 
ATOM     42  C   UNL     1      24.815   3.965  53.773  0.00  0.00    +0.000 C 
ENDBRANCH  39  40
ENDBRANCH  20  38
BRANCH  25  43
ATOM     43  C   UNL     1      20.550  -1.413  54.354  0.00  0.00    +0.000 C 
BRANCH  43  44
ATOM     44  C   UNL     1      21.605  -2.481  54.039  0.00  0.00    +0.000 C 
ATOM     45  C   UNL     1      22.661  -3.550  53.726  0.00  0.00    +0.000 C 
BRANCH  45  46
ATOM     46  C   UNL     1      23.558  -4.449  53.464  0.00  0.00    +0.000 C 
ATOM     47  C   UNL     1      24.941  -4.022  53.078  0.00  0.00    +0.000 C 
ATOM     48  C   UNL     1      23.170  -5.892  53.373  0.00  0.00    +0.000 C 
ENDBRANCH  45  46
ENDBRANCH  43  44
ENDBRANCH  25  43
TORSDOF 10
ENDMDL
MODEL 9
REMARK VINA RESULT:      -4.1     13.167     18.051
REMARK  Name = 9852185_GambogicAcid.pdbqt.pdb
REMARK  10 active torsions:
REMARK  status: ('A' for Active; 'I' for Inactive)
REMARK    1  A    between atoms: C_8  and  C_30
REMARK    2  A    between atoms: C_20  and  C_38
REMARK    3  A    between atoms: C_21  and  O_28
REMARK    4  A    between atoms: C_25  and  C_43
REMARK    5  A    between atoms: C_31  and  C_32
REMARK    6  A    between atoms: C_32  and  C_35
REMARK    7  A    between atoms: C_35  and  O_36
REMARK    8  A    between atoms: C_39  and  C_40
REMARK    9  A    between atoms: C_43  and  C_44
REMARK   10  A    between atoms: C_45  and  C_46
REMARK                            x       y       z     vdW  Elec       q    Type
REMARK                         _______ _______ _______ _____ _____    ______ ____
ROOT
ATOM      1  O   UNL     1       6.693   4.794  80.220  0.00  0.00    +0.000 OA
ATOM      2  O   UNL     1       8.157   3.609  78.040  0.00  0.00    +0.000 OA
ATOM      3  O   UNL     1       7.146   7.935  80.224  0.00  0.00    +0.000 OA
ATOM      4  O   UNL     1      11.377   5.633  76.463  0.00  0.00    +0.000 OA
ATOM      5  O   UNL     1       9.149  -0.301  75.529  0.00  0.00    +0.000 OA
ATOM      6  C   UNL     1       8.558   4.791  78.720  0.00  0.00    +0.000 C 
ATOM      7  C   UNL     1       9.045   4.510  80.187  0.00  0.00    +0.000 C 
ATOM      8  C   UNL     1       7.309   5.622  79.221  0.00  0.00    +0.000 C 
ATOM      9  C   UNL     1       7.749   4.077  80.882  0.00  0.00    +0.000 C 
ATOM     10  C   UNL     1       9.693   5.734  80.662  0.00  0.00    +0.000 C 
ATOM     11  C   UNL     1       9.387   6.990  79.998  0.00  0.00    +0.000 C 
ATOM     12  C   UNL     1       9.529   5.677  77.922  0.00  0.00    +0.000 C 
ATOM     13  C   UNL     1       7.838   6.999  79.856  0.00  0.00    +0.000 C 
ATOM     14  C   UNL     1       9.878   6.854  78.651  0.00  0.00    +0.000 C 
ATOM     15  C   UNL     1       7.733   4.465  82.367  0.00  0.00    +0.000 C 
ATOM     16  C   UNL     1       7.541   2.563  80.717  0.00  0.00    +0.000 C 
ATOM     17  C   UNL     1      10.417   5.048  76.945  0.00  0.00    +0.000 C 
ATOM     18  C   UNL     1       9.011   3.014  77.151  0.00  0.00    +0.000 A 
ATOM     19  C   UNL     1      10.121   3.655  76.585  0.00  0.00    +0.000 A 
ATOM     20  C   UNL     1       8.693   1.690  76.777  0.00  0.00    +0.000 A 
ATOM     21  C   UNL     1      10.941   2.980  75.665  0.00  0.00    +0.000 A 
ATOM     22  C   UNL     1       9.501   1.010  75.858  0.00  0.00    +0.000 A 
ATOM     23  C   UNL     1      10.630   1.670  75.312  0.00  0.00    +0.000 A 
ATOM     24  C   UNL     1      11.362   0.880  74.391  0.00  0.00    +0.000 C 
ATOM     25  C   UNL     1       9.919  -1.051  74.507  0.00  0.00    +0.000 C 
ATOM     26  C   UNL     1      11.049  -0.226  74.076  0.00  0.00    +0.000 C 
ATOM     27  C   UNL     1       8.941  -1.351  73.344  0.00  0.00    +0.000 C 
ENDROOT
BRANCH  21  28
ATOM     28  O   UNL     1      12.044   3.556  75.093  0.00  0.00    +0.000 OA
ATOM     29  H   UNL     1      12.795   2.920  75.100  0.00  0.00    +0.000 HD
ENDBRANCH  21  28
BRANCH   8  30
ATOM     30  C   UNL     1       6.345   5.888  78.145  0.00  0.00    +0.000 C 
ATOM     31  C   UNL     1       5.364   6.211  77.008  0.00  0.00    +0.000 C 
BRANCH  31  32
ATOM     32  C   UNL     1       4.545   6.541  76.049  0.00  0.00    +0.000 C 
ATOM     33  C   UNL     1       3.845   7.874  76.240  0.00  0.00    +0.000 C 
BRANCH  32  35
ATOM     34  O   UNL     1       4.517   4.434  74.871  0.00  0.00    +0.000 OA
ATOM     35  C   UNL     1       4.364   5.646  74.874  0.00  0.00    +0.000 C 
BRANCH  35  36
ATOM     36  O   UNL     1       4.000   6.284  73.741  0.00  0.00    +0.000 OA
ATOM     37  H   UNL     1       3.048   6.079  73.627  0.00  0.00    +0.000 HD
ENDBRANCH  35  36
ENDBRANCH  32  35
ENDBRANCH  31  32
ENDBRANCH   8  30
BRANCH  20  38
ATOM     38  C   UNL     1       7.545   1.042  77.341  0.00  0.00    +0.000 C 
ATOM     39  C   UNL     1       6.330   0.319  77.941  0.00  0.00    +0.000 C 
BRANCH  39  40
ATOM     40  C   UNL     1       5.315  -0.308  78.448  0.00  0.00    +0.000 C 
ATOM     41  C   UNL     1       4.870  -1.602  77.835  0.00  0.00    +0.000 C 
ATOM     42  C   UNL     1       4.756   0.126  79.768  0.00  0.00    +0.000 C 
ENDBRANCH  39  40
ENDBRANCH  20  38
BRANCH  25  43
ATOM     43  C   UNL     1      10.370  -2.303  75.142  0.00  0.00    +0.000 C 
BRANCH  43  44
ATOM     44  C   UNL     1      10.834  -3.610  75.798  0.00  0.00    +0.000 C 
ATOM     45  C   UNL     1      11.297  -4.919  76.454  0.00  0.00    +0.000 C 
BRANCH  45  46
ATOM     46  C   UNL     1      11.681  -6.025  77.011  0.00  0.00    +0.000 C 
ATOM     47  C   UNL     1      11.721  -7.285  76.203  0.00  0.00    +0.000 C 
ATOM     48  C   UNL     1      11.909  -6.078  78.489  0.00  0.00    +0.000 C 
ENDBRANCH  45  46
ENDBRANCH  43  44
ENDBRANCH  25  43
TORSDOF 10
ENDMDL
