MODEL 1
REMARK VINA RESULT:      -4.8      0.000      0.000
REMARK  Name = AFLATOXIN.pdbqt.pdb
REMARK  1 active torsions:
REMARK  status: ('A' for Active; 'I' for Inactive)
REMARK    1  A    between atoms: C_15  and  O_23
REMARK                            x       y       z     vdW  Elec       q    Type
REMARK                         _______ _______ _______ _____ _____    ______ ____
ROOT
ATOM      1  O   UNL     1      21.774   0.255  57.034  0.00  0.00    +0.000 OA
ATOM      2  O   UNL     1      23.495   1.950  57.557  0.00  0.00    +0.000 OA
ATOM      3  O   UNL     1      20.501   2.796  53.280  0.00  0.00    +0.000 OA
ATOM      4  O   UNL     1      16.016   2.738  51.101  0.00  0.00    +0.000 OA
ATOM      5  O   UNL     1      20.117   3.952  51.384  0.00  0.00    +0.000 OA
ATOM      6  O   UNL     1      17.657   4.093  50.373  0.00  0.00    +0.000 OA
ATOM      7  C   UNL     1      22.419   1.873  55.476  0.00  0.00    +0.000 C 
ATOM      8  C   UNL     1      21.071   1.446  55.159  0.00  0.00    +0.000 A 
ATOM      9  C   UNL     1      22.836   1.086  56.662  0.00  0.00    +0.000 C 
ATOM     10  C   UNL     1      20.767   0.462  56.105  0.00  0.00    +0.000 A 
ATOM     11  C   UNL     1      20.139   1.818  54.209  0.00  0.00    +0.000 A 
ATOM     12  C   UNL     1      18.883   1.214  54.173  0.00  0.00    +0.000 A 
ATOM     13  C   UNL     1      22.908   3.188  55.690  0.00  0.00    +0.000 C 
ATOM     14  C   UNL     1      17.941   1.715  53.157  0.00  0.00    +0.000 A 
ATOM     15  C   UNL     1      18.616   0.186  55.121  0.00  0.00    +0.000 A 
ATOM     16  C   UNL     1      19.547  -0.175  56.114  0.00  0.00    +0.000 A 
ATOM     17  C   UNL     1      16.604   1.263  53.093  0.00  0.00    +0.000 A 
ATOM     18  C   UNL     1      18.287   2.657  52.230  0.00  0.00    +0.000 A 
ATOM     19  C   UNL     1      23.416   3.013  56.757  0.00  0.00    +0.000 C 
ATOM     20  C   UNL     1      15.763   1.843  52.026  0.00  0.00    +0.000 A 
ATOM     21  C   UNL     1      19.676   3.192  52.234  0.00  0.00    +0.000 A 
ATOM     22  C   UNL     1      17.318   3.219  51.162  0.00  0.00    +0.000 A 
ENDROOT
BRANCH  15  23
ATOM     23  O   UNL     1      17.389  -0.441  55.158  0.00  0.00    +0.000 OA
ATOM     24  C   UNL     1      17.293  -1.283  56.279  0.00  0.00    +0.000 C 
ENDBRANCH  15  23
TORSDOF 1
ENDMDL
MODEL 2
REMARK VINA RESULT:      -4.8      1.584      6.309
REMARK  Name = AFLATOXIN.pdbqt.pdb
REMARK  1 active torsions:
REMARK  status: ('A' for Active; 'I' for Inactive)
REMARK    1  A    between atoms: C_15  and  O_23
REMARK                            x       y       z     vdW  Elec       q    Type
REMARK                         _______ _______ _______ _____ _____    ______ ____
ROOT
ATOM      1  O   UNL     1      15.425  -0.923  54.209  0.00  0.00    +0.000 OA
ATOM      2  O   UNL     1      14.385  -1.764  56.287  0.00  0.00    +0.000 OA
ATOM      3  O   UNL     1      19.479  -0.359  56.538  0.00  0.00    +0.000 OA
ATOM      4  O   UNL     1      23.112   2.839  55.340  0.00  0.00    +0.000 OA
ATOM      5  O   UNL     1      21.428  -0.342  57.667  0.00  0.00    +0.000 OA
ATOM      6  O   UNL     1      23.256   1.528  57.162  0.00  0.00    +0.000 OA
ATOM      7  C   UNL     1      16.709  -1.564  56.053  0.00  0.00    +0.000 C 
ATOM      8  C   UNL     1      17.471  -0.605  55.278  0.00  0.00    +0.000 A 
ATOM      9  C   UNL     1      15.424  -1.750  55.336  0.00  0.00    +0.000 C 
ATOM     10  C   UNL     1      16.660  -0.295  54.182  0.00  0.00    +0.000 A 
ATOM     11  C   UNL     1      18.705  -0.001  55.432  0.00  0.00    +0.000 A 
ATOM     12  C   UNL     1      19.164   0.922  54.494  0.00  0.00    +0.000 A 
ATOM     13  C   UNL     1      16.384  -1.532  57.434  0.00  0.00    +0.000 C 
ATOM     14  C   UNL     1      20.468   1.549  54.773  0.00  0.00    +0.000 A 
ATOM     15  C   UNL     1      18.336   1.188  53.366  0.00  0.00    +0.000 A 
ATOM     16  C   UNL     1      17.063   0.603  53.219  0.00  0.00    +0.000 A 
ATOM     17  C   UNL     1      20.988   2.580  53.958  0.00  0.00    +0.000 A 
ATOM     18  C   UNL     1      21.244   1.196  55.839  0.00  0.00    +0.000 A 
ATOM     19  C   UNL     1      15.200  -1.660  57.337  0.00  0.00    +0.000 C 
ATOM     20  C   UNL     1      22.306   3.123  54.345  0.00  0.00    +0.000 A 
ATOM     21  C   UNL     1      20.764   0.123  56.752  0.00  0.00    +0.000 A 
ATOM     22  C   UNL     1      22.608   1.848  56.172  0.00  0.00    +0.000 A 
ENDROOT
BRANCH  15  23
ATOM     23  O   UNL     1      18.716   2.104  52.409  0.00  0.00    +0.000 OA
ATOM     24  C   UNL     1      17.637   2.931  52.055  0.00  0.00    +0.000 C 
ENDBRANCH  15  23
TORSDOF 1
ENDMDL
MODEL 3
REMARK VINA RESULT:      -4.7     12.759     13.735
REMARK  Name = AFLATOXIN.pdbqt.pdb
REMARK  1 active torsions:
REMARK  status: ('A' for Active; 'I' for Inactive)
REMARK    1  A    between atoms: C_15  and  O_23
REMARK                            x       y       z     vdW  Elec       q    Type
REMARK                         _______ _______ _______ _____ _____    ______ ____
ROOT
ATOM      1  O   UNL     1      16.833  12.132  58.273  0.00  0.00    +0.000 OA
ATOM      2  O   UNL     1      17.670  10.499  59.928  0.00  0.00    +0.000 OA
ATOM      3  O   UNL     1      12.601  11.956  60.331  0.00  0.00    +0.000 OA
ATOM      4  O   UNL     1       8.243  12.981  58.136  0.00  0.00    +0.000 OA
ATOM      5  O   UNL     1      10.684  11.986  61.514  0.00  0.00    +0.000 OA
ATOM      6  O   UNL     1       8.348  12.304  60.278  0.00  0.00    +0.000 OA
ATOM      7  C   UNL     1      15.641  11.636  60.221  0.00  0.00    +0.000 C 
ATOM      8  C   UNL     1      14.704  12.107  59.221  0.00  0.00    +0.000 A 
ATOM      9  C   UNL     1      16.982  11.679  59.587  0.00  0.00    +0.000 C 
ATOM     10  C   UNL     1      15.487  12.413  58.103  0.00  0.00    +0.000 A 
ATOM     11  C   UNL     1      13.332  12.264  59.181  0.00  0.00    +0.000 A 
ATOM     12  C   UNL     1      12.705  12.737  58.029  0.00  0.00    +0.000 A 
ATOM     13  C   UNL     1      15.605  10.435  60.976  0.00  0.00    +0.000 C 
ATOM     14  C   UNL     1      11.235  12.821  58.069  0.00  0.00    +0.000 A 
ATOM     15  C   UNL     1      13.531  13.081  56.921  0.00  0.00    +0.000 A 
ATOM     16  C   UNL     1      14.926  12.892  56.941  0.00  0.00    +0.000 A 
ATOM     17  C   UNL     1      10.479  13.178  56.929  0.00  0.00    +0.000 A 
ATOM     18  C   UNL     1      10.509  12.541  59.191  0.00  0.00    +0.000 A 
ATOM     19  C   UNL     1      16.698  10.030  60.712  0.00  0.00    +0.000 C 
ATOM     20  C   UNL     1       9.013  13.227  57.102  0.00  0.00    +0.000 A 
ATOM     21  C   UNL     1      11.229  12.149  60.432  0.00  0.00    +0.000 A 
ATOM     22  C   UNL     1       8.964  12.600  59.260  0.00  0.00    +0.000 A 
ENDROOT
BRANCH  15  23
ATOM     23  O   UNL     1      12.979  13.535  55.743  0.00  0.00    +0.000 OA
ATOM     24  C   UNL     1      13.441  12.779  54.652  0.00  0.00    +0.000 C 
ENDBRANCH  15  23
TORSDOF 1
ENDMDL
MODEL 4
REMARK VINA RESULT:      -4.7      1.473      4.602
REMARK  Name = AFLATOXIN.pdbqt.pdb
REMARK  1 active torsions:
REMARK  status: ('A' for Active; 'I' for Inactive)
REMARK    1  A    between atoms: C_15  and  O_23
REMARK                            x       y       z     vdW  Elec       q    Type
REMARK                         _______ _______ _______ _____ _____    ______ ____
ROOT
ATOM      1  O   UNL     1      18.915  -1.415  56.564  0.00  0.00    +0.000 OA
ATOM      2  O   UNL     1      17.232  -3.176  56.151  0.00  0.00    +0.000 OA
ATOM      3  O   UNL     1      16.878   1.226  53.240  0.00  0.00    +0.000 OA
ATOM      4  O   UNL     1      19.113   4.800  50.576  0.00  0.00    +0.000 OA
ATOM      5  O   UNL     1      15.707   2.509  51.806  0.00  0.00    +0.000 OA
ATOM      6  O   UNL     1      16.961   4.249  50.227  0.00  0.00    +0.000 OA
ATOM      7  C   UNL     1      16.966  -0.991  55.345  0.00  0.00    +0.000 C 
ATOM      8  C   UNL     1      17.979  -0.040  54.933  0.00  0.00    +0.000 A 
ATOM      9  C   UNL     1      17.593  -1.837  56.391  0.00  0.00    +0.000 C 
ATOM     10  C   UNL     1      19.096  -0.330  55.721  0.00  0.00    +0.000 A 
ATOM     11  C   UNL     1      18.028   0.970  53.990  0.00  0.00    +0.000 A 
ATOM     12  C   UNL     1      19.191   1.719  53.813  0.00  0.00    +0.000 A 
ATOM     13  C   UNL     1      16.194  -1.870  54.543  0.00  0.00    +0.000 C 
ATOM     14  C   UNL     1      19.161   2.737  52.749  0.00  0.00    +0.000 A 
ATOM     15  C   UNL     1      20.299   1.429  54.659  0.00  0.00    +0.000 A 
ATOM     16  C   UNL     1      20.269   0.381  55.598  0.00  0.00    +0.000 A 
ATOM     17  C   UNL     1      20.310   3.482  52.399  0.00  0.00    +0.000 A 
ATOM     18  C   UNL     1      18.039   3.011  52.021  0.00  0.00    +0.000 A 
ATOM     19  C   UNL     1      16.447  -2.891  55.111  0.00  0.00    +0.000 C 
ATOM     20  C   UNL     1      20.146   4.473  51.315  0.00  0.00    +0.000 A 
ATOM     21  C   UNL     1      16.788   2.264  52.321  0.00  0.00    +0.000 A 
ATOM     22  C   UNL     1      17.979   4.059  50.883  0.00  0.00    +0.000 A 
ENDROOT
BRANCH  15  23
ATOM     23  O   UNL     1      21.487   2.116  54.528  0.00  0.00    +0.000 OA
ATOM     24  C   UNL     1      22.279   1.966  55.679  0.00  0.00    +0.000 C 
ENDBRANCH  15  23
TORSDOF 1
ENDMDL
MODEL 5
REMARK VINA RESULT:      -4.6      2.017      5.836
REMARK  Name = AFLATOXIN.pdbqt.pdb
REMARK  1 active torsions:
REMARK  status: ('A' for Active; 'I' for Inactive)
REMARK    1  A    between atoms: C_15  and  O_23
REMARK                            x       y       z     vdW  Elec       q    Type
REMARK                         _______ _______ _______ _____ _____    ______ ____
ROOT
ATOM      1  O   UNL     1      14.916  -1.377  54.515  0.00  0.00    +0.000 OA
ATOM      2  O   UNL     1      13.224  -1.537  52.721  0.00  0.00    +0.000 OA
ATOM      3  O   UNL     1      16.862   2.277  52.271  0.00  0.00    +0.000 OA
ATOM      4  O   UNL     1      21.613   3.743  52.652  0.00  0.00    +0.000 OA
ATOM      5  O   UNL     1      17.582   4.154  51.254  0.00  0.00    +0.000 OA
ATOM      6  O   UNL     1      20.169   4.786  51.279  0.00  0.00    +0.000 OA
ATOM      7  C   UNL     1      14.593   0.349  52.973  0.00  0.00    +0.000 C 
ATOM      8  C   UNL     1      15.950   0.434  53.474  0.00  0.00    +0.000 A 
ATOM      9  C   UNL     1      13.965  -0.803  53.666  0.00  0.00    +0.000 C 
ATOM     10  C   UNL     1      16.060  -0.601  54.409  0.00  0.00    +0.000 A 
ATOM     11  C   UNL     1      17.032   1.250  53.202  0.00  0.00    +0.000 A 
ATOM     12  C   UNL     1      18.247   1.060  53.859  0.00  0.00    +0.000 A 
ATOM     13  C   UNL     1      14.145   0.286  51.628  0.00  0.00    +0.000 C 
ATOM     14  C   UNL     1      19.353   1.949  53.462  0.00  0.00    +0.000 A 
ATOM     15  C   UNL     1      18.317   0.027  54.836  0.00  0.00    +0.000 A 
ATOM     16  C   UNL     1      17.231  -0.832  55.094  0.00  0.00    +0.000 A 
ATOM     17  C   UNL     1      20.661   1.783  53.973  0.00  0.00    +0.000 A 
ATOM     18  C   UNL     1      19.197   2.968  52.567  0.00  0.00    +0.000 A 
ATOM     19  C   UNL     1      13.475  -0.699  51.714  0.00  0.00    +0.000 C 
ATOM     20  C   UNL     1      21.679   2.741  53.497  0.00  0.00    +0.000 A 
ATOM     21  C   UNL     1      17.853   3.205  51.976  0.00  0.00    +0.000 A 
ATOM     22  C   UNL     1      20.342   3.906  52.114  0.00  0.00    +0.000 A 
ENDROOT
BRANCH  15  23
ATOM     23  O   UNL     1      19.491  -0.231  55.509  0.00  0.00    +0.000 OA
ATOM     24  C   UNL     1      19.228  -0.768  56.781  0.00  0.00    +0.000 C 
ENDBRANCH  15  23
TORSDOF 1
ENDMDL
MODEL 6
REMARK VINA RESULT:      -4.5     18.797     20.169
REMARK  Name = AFLATOXIN.pdbqt.pdb
REMARK  1 active torsions:
REMARK  status: ('A' for Active; 'I' for Inactive)
REMARK    1  A    between atoms: C_15  and  O_23
REMARK                            x       y       z     vdW  Elec       q    Type
REMARK                         _______ _______ _______ _____ _____    ______ ____
ROOT
ATOM      1  O   UNL     1      10.763   9.130  74.366  0.00  0.00    +0.000 OA
ATOM      2  O   UNL     1       8.820  10.467  73.630  0.00  0.00    +0.000 OA
ATOM      3  O   UNL     1      12.976  10.256  70.365  0.00  0.00    +0.000 OA
ATOM      4  O   UNL     1      16.584   7.599  68.177  0.00  0.00    +0.000 OA
ATOM      5  O   UNL     1      14.044  11.032  68.539  0.00  0.00    +0.000 OA
ATOM      6  O   UNL     1      15.799   9.495  67.256  0.00  0.00    +0.000 OA
ATOM      7  C   UNL     1      10.913  10.642  72.590  0.00  0.00    +0.000 C 
ATOM      8  C   UNL     1      11.934   9.629  72.414  0.00  0.00    +0.000 A 
ATOM      9  C   UNL     1      10.200  10.300  73.846  0.00  0.00    +0.000 C 
ATOM     10  C   UNL     1      11.806   8.785  73.522  0.00  0.00    +0.000 A 
ATOM     11  C   UNL     1      12.883   9.372  71.442  0.00  0.00    +0.000 A 
ATOM     12  C   UNL     1      13.732   8.273  71.553  0.00  0.00    +0.000 A 
ATOM     13  C   UNL     1       9.913  11.064  71.677  0.00  0.00    +0.000 C 
ATOM     14  C   UNL     1      14.674   8.056  70.441  0.00  0.00    +0.000 A 
ATOM     15  C   UNL     1      13.608   7.455  72.713  0.00  0.00    +0.000 A 
ATOM     16  C   UNL     1      12.622   7.689  73.690  0.00  0.00    +0.000 A 
ATOM     17  C   UNL     1      15.508   6.916  70.383  0.00  0.00    +0.000 A 
ATOM     18  C   UNL     1      14.789   8.921  69.391  0.00  0.00    +0.000 A 
ATOM     19  C   UNL     1       8.960  10.918  72.383  0.00  0.00    +0.000 C 
ATOM     20  C   UNL     1      16.408   6.818  69.217  0.00  0.00    +0.000 A 
ATOM     21  C   UNL     1      13.941  10.143  69.372  0.00  0.00    +0.000 A 
ATOM     22  C   UNL     1      15.754   8.713  68.198  0.00  0.00    +0.000 A 
ENDROOT
BRANCH  15  23
ATOM     23  O   UNL     1      14.401   6.340  72.879  0.00  0.00    +0.000 OA
ATOM     24  C   UNL     1      13.634   5.244  73.311  0.00  0.00    +0.000 C 
ENDBRANCH  15  23
TORSDOF 1
ENDMDL
MODEL 7
REMARK VINA RESULT:      -4.5      1.701      2.292
REMARK  Name = AFLATOXIN.pdbqt.pdb
REMARK  1 active torsions:
REMARK  status: ('A' for Active; 'I' for Inactive)
REMARK    1  A    between atoms: C_15  and  O_23
REMARK                            x       y       z     vdW  Elec       q    Type
REMARK                         _______ _______ _______ _____ _____    ______ ____
ROOT
ATOM      1  O   UNL     1      23.171   2.617  55.351  0.00  0.00    +0.000 OA
ATOM      2  O   UNL     1      24.021   4.900  54.938  0.00  0.00    +0.000 OA
ATOM      3  O   UNL     1      19.672   3.434  52.308  0.00  0.00    +0.000 OA
ATOM      4  O   UNL     1      15.235   1.159  52.283  0.00  0.00    +0.000 OA
ATOM      5  O   UNL     1      18.175   3.829  50.672  0.00  0.00    +0.000 OA
ATOM      6  O   UNL     1      15.730   2.783  50.808  0.00  0.00    +0.000 OA
ATOM      7  C   UNL     1      22.436   3.892  53.536  0.00  0.00    +0.000 C 
ATOM      8  C   UNL     1      21.403   2.931  53.867  0.00  0.00    +0.000 A 
ATOM      9  C   UNL     1      23.547   3.653  54.490  0.00  0.00    +0.000 C 
ATOM     10  C   UNL     1      21.922   2.187  54.931  0.00  0.00    +0.000 A 
ATOM     11  C   UNL     1      20.135   2.670  53.382  0.00  0.00    +0.000 A 
ATOM     12  C   UNL     1      19.356   1.659  53.942  0.00  0.00    +0.000 A 
ATOM     13  C   UNL     1      22.330   5.301  53.407  0.00  0.00    +0.000 C 
ATOM     14  C   UNL     1      17.999   1.493  53.390  0.00  0.00    +0.000 A 
ATOM     15  C   UNL     1      19.926   0.890  54.996  0.00  0.00    +0.000 A 
ATOM     16  C   UNL     1      21.203   1.171  55.518  0.00  0.00    +0.000 A 
ATOM     17  C   UNL     1      17.076   0.579  53.946  0.00  0.00    +0.000 A 
ATOM     18  C   UNL     1      17.540   2.219  52.329  0.00  0.00    +0.000 A 
ATOM     19  C   UNL     1      23.202   5.611  54.162  0.00  0.00    +0.000 C 
ATOM     20  C   UNL     1      15.750   0.508  53.299  0.00  0.00    +0.000 A 
ATOM     21  C   UNL     1      18.448   3.210  51.690  0.00  0.00    +0.000 A 
ATOM     22  C   UNL     1      16.116   2.084  51.738  0.00  0.00    +0.000 A 
ENDROOT
BRANCH  15  23
ATOM     23  O   UNL     1      19.207  -0.112  55.610  0.00  0.00    +0.000 OA
ATOM     24  C   UNL     1      19.869  -0.566  56.763  0.00  0.00    +0.000 C 
ENDBRANCH  15  23
TORSDOF 1
ENDMDL
MODEL 8
REMARK VINA RESULT:      -4.4     21.874     24.338
REMARK  Name = AFLATOXIN.pdbqt.pdb
REMARK  1 active torsions:
REMARK  status: ('A' for Active; 'I' for Inactive)
REMARK    1  A    between atoms: C_15  and  O_23
REMARK                            x       y       z     vdW  Elec       q    Type
REMARK                         _______ _______ _______ _____ _____    ______ ____
ROOT
ATOM      1  O   UNL     1       6.415   2.121  77.444  0.00  0.00    +0.000 OA
ATOM      2  O   UNL     1       5.233   4.284  77.620  0.00  0.00    +0.000 OA
ATOM      3  O   UNL     1      10.373   4.440  76.381  0.00  0.00    +0.000 OA
ATOM      4  O   UNL     1      14.219   2.613  73.785  0.00  0.00    +0.000 OA
ATOM      5  O   UNL     1      12.263   5.636  76.110  0.00  0.00    +0.000 OA
ATOM      6  O   UNL     1      14.206   4.736  74.527  0.00  0.00    +0.000 OA
ATOM      7  C   UNL     1       7.573   4.147  77.576  0.00  0.00    +0.000 C 
ATOM      8  C   UNL     1       8.419   3.181  76.905  0.00  0.00    +0.000 A 
ATOM      9  C   UNL     1       6.316   3.434  77.914  0.00  0.00    +0.000 C 
ATOM     10  C   UNL     1       7.680   1.993  76.892  0.00  0.00    +0.000 A 
ATOM     11  C   UNL     1       9.673   3.232  76.326  0.00  0.00    +0.000 A 
ATOM     12  C   UNL     1      10.224   2.102  75.725  0.00  0.00    +0.000 A 
ATOM     13  C   UNL     1       7.182   5.440  77.140  0.00  0.00    +0.000 C 
ATOM     14  C   UNL     1      11.543   2.272  75.090  0.00  0.00    +0.000 A 
ATOM     15  C   UNL     1       9.467   0.896  75.764  0.00  0.00    +0.000 A 
ATOM     16  C   UNL     1       8.175   0.843  76.321  0.00  0.00    +0.000 A 
ATOM     17  C   UNL     1      12.154   1.232  74.354  0.00  0.00    +0.000 A 
ATOM     18  C   UNL     1      12.246   3.440  75.152  0.00  0.00    +0.000 A 
ATOM     19  C   UNL     1       5.999   5.310  77.250  0.00  0.00    +0.000 C 
ATOM     20  C   UNL     1      13.477   1.530  73.769  0.00  0.00    +0.000 A 
ATOM     21  C   UNL     1      11.669   4.587  75.902  0.00  0.00    +0.000 A 
ATOM     22  C   UNL     1      13.624   3.658  74.480  0.00  0.00    +0.000 A 
ENDROOT
BRANCH  15  23
ATOM     23  O   UNL     1       9.939  -0.255  75.172  0.00  0.00    +0.000 OA
ATOM     24  C   UNL     1       8.936  -0.867  74.402  0.00  0.00    +0.000 C 
ENDBRANCH  15  23
TORSDOF 1
ENDMDL
MODEL 9
REMARK VINA RESULT:      -4.4     21.206     23.513
REMARK  Name = AFLATOXIN.pdbqt.pdb
REMARK  1 active torsions:
REMARK  status: ('A' for Active; 'I' for Inactive)
REMARK    1  A    between atoms: C_15  and  O_23
REMARK                            x       y       z     vdW  Elec       q    Type
REMARK                         _______ _______ _______ _____ _____    ______ ____
ROOT
ATOM      1  O   UNL     1      13.113   5.536  75.151  0.00  0.00    +0.000 OA
ATOM      2  O   UNL     1      14.332   5.160  73.034  0.00  0.00    +0.000 OA
ATOM      3  O   UNL     1      11.188   1.259  74.733  0.00  0.00    +0.000 OA
ATOM      4  O   UNL     1       6.860  -0.202  76.733  0.00  0.00    +0.000 OA
ATOM      5  O   UNL     1      10.499  -0.880  74.573  0.00  0.00    +0.000 OA
ATOM      6  O   UNL     1       8.082  -1.581  75.443  0.00  0.00    +0.000 OA
ATOM      7  C   UNL     1      13.298   3.409  74.202  0.00  0.00    +0.000 C 
ATOM      8  C   UNL     1      12.108   3.438  75.027  0.00  0.00    +0.000 A 
ATOM      9  C   UNL     1      13.916   4.753  74.316  0.00  0.00    +0.000 C 
ATOM     10  C   UNL     1      12.080   4.720  75.584  0.00  0.00    +0.000 A 
ATOM     11  C   UNL     1      11.103   2.530  75.306  0.00  0.00    +0.000 A 
ATOM     12  C   UNL     1      10.050   2.875  76.151  0.00  0.00    +0.000 A 
ATOM     13  C   UNL     1      13.425   3.037  72.838  0.00  0.00    +0.000 C 
ATOM     14  C   UNL     1       9.003   1.857  76.345  0.00  0.00    +0.000 A 
ATOM     15  C   UNL     1      10.070   4.173  76.738  0.00  0.00    +0.000 A 
ATOM     16  C   UNL     1      11.071   5.115  76.433  0.00  0.00    +0.000 A 
ATOM     17  C   UNL     1       7.831   2.127  77.088  0.00  0.00    +0.000 A 
ATOM     18  C   UNL     1       9.082   0.605  75.807  0.00  0.00    +0.000 A 
ATOM     19  C   UNL     1      13.970   4.023  72.439  0.00  0.00    +0.000 C 
ATOM     20  C   UNL     1       6.859   1.021  77.208  0.00  0.00    +0.000 A 
ATOM     21  C   UNL     1      10.280   0.243  75.003  0.00  0.00    +0.000 A 
ATOM     22  C   UNL     1       7.990  -0.480  75.974  0.00  0.00    +0.000 A 
ENDROOT
BRANCH  15  23
ATOM     23  O   UNL     1       9.052   4.589  77.568  0.00  0.00    +0.000 OA
ATOM     24  C   UNL     1       8.698   5.921  77.291  0.00  0.00    +0.000 C 
ENDBRANCH  15  23
TORSDOF 1
ENDMDL
