MODEL 1
REMARK VINA RESULT:      -5.1      0.000      0.000
REMARK  Name = AZD4547.pdbqt.pdb
REMARK  6 active torsions:
REMARK  status: ('A' for Active; 'I' for Inactive)
REMARK    1  A    between atoms: C_3  and  C_23
REMARK    2  A    between atoms: C_8  and  C_11
REMARK    3  A    between atoms: C_12  and  C_13
REMARK    4  A    between atoms: C_15  and  O_19
REMARK    5  A    between atoms: C_17  and  O_21
REMARK    6  A    between atoms: C_26  and  N_29
REMARK                            x       y       z     vdW  Elec       q    Type
REMARK                         _______ _______ _______ _____ _____    ______ ____
ROOT
ATOM      1  O   UNL     1      14.838   2.243  71.001  0.00  0.00    +0.000 OA
ATOM      2  N   UNL     1      14.568   4.531  70.768  0.00  0.00    +0.000 N 
ATOM      3  C   UNL     1      14.410   3.319  71.403  0.00  0.00    +0.000 C 
ATOM      4  H   UNL     1      14.194   5.392  71.136  0.00  0.00    +0.000 HD
ATOM      5  C   UNL     1      15.241   4.704  69.582  0.00  0.00    +0.000 A 
ATOM      6  N   UNL     1      15.324   5.934  69.063  0.00  0.00    +0.000 NA
ATOM      7  N   UNL     1      16.030   5.754  67.931  0.00  0.00    +0.000 N 
ATOM      8  C   UNL     1      16.399   4.460  67.714  0.00  0.00    +0.000 A 
ATOM      9  H   UNL     1      16.228   6.561  67.349  0.00  0.00    +0.000 HD
ATOM     10  C   UNL     1      15.898   3.745  68.774  0.00  0.00    +0.000 A 
ENDROOT
BRANCH   3  11
ATOM     11  C   UNL     1      13.652   3.349  72.678  0.00  0.00    +0.000 A 
ATOM     12  C   UNL     1      13.476   4.574  73.320  0.00  0.00    +0.000 A 
ATOM     13  C   UNL     1      12.769   4.640  74.519  0.00  0.00    +0.000 A 
ATOM     14  C   UNL     1      12.237   3.488  75.112  0.00  0.00    +0.000 A 
ATOM     15  C   UNL     1      12.408   2.268  74.443  0.00  0.00    +0.000 A 
ATOM     16  C   UNL     1      13.114   2.195  73.243  0.00  0.00    +0.000 A 
BRANCH  14  17
ATOM     17  N   UNL     1      11.482   3.563  76.306  0.00  0.00    +0.000 N 
ATOM     18  C   UNL     1      10.272   2.731  76.424  0.00  0.00    +0.000 C 
ATOM     19  C   UNL     1       8.908   2.963  76.769  0.00  0.00    +0.000 C 
ATOM     20  N   UNL     1       8.551   4.308  77.092  0.00  0.00    +0.000 N 
ATOM     21  C   UNL     1       7.884   1.886  76.768  0.00  0.00    +0.000 C 
ATOM     22  C   UNL     1       9.574   5.301  77.042  0.00  0.00    +0.000 C 
ATOM     23  H   UNL     1       7.600   4.550  77.323  0.00  0.00    +0.000 HD
ATOM     24  C   UNL     1      10.878   4.856  76.672  0.00  0.00    +0.000 C 
ATOM     25  C   UNL     1       9.264   6.727  77.322  0.00  0.00    +0.000 C 
ENDBRANCH  14  17
ENDBRANCH   3  11
BRANCH   8  26
ATOM     26  C   UNL     1      17.147   3.996  66.606  0.00  0.00    +0.000 C 
ATOM     27  C   UNL     1      17.960   3.495  65.408  0.00  0.00    +0.000 C 
BRANCH  27  28
ATOM     28  C   UNL     1      18.725   3.031  64.299  0.00  0.00    +0.000 A 
ATOM     29  C   UNL     1      18.345   1.869  63.632  0.00  0.00    +0.000 A 
ATOM     30  C   UNL     1      19.088   1.412  62.541  0.00  0.00    +0.000 A 
ATOM     31  C   UNL     1      20.209   2.134  62.125  0.00  0.00    +0.000 A 
ATOM     32  C   UNL     1      20.596   3.297  62.794  0.00  0.00    +0.000 A 
ATOM     33  C   UNL     1      19.845   3.743  63.883  0.00  0.00    +0.000 A 
BRANCH  30  34
ATOM     34  O   UNL     1      18.800   0.287  61.809  0.00  0.00    +0.000 OA
ATOM     35  C   UNL     1      19.688   0.008  60.762  0.00  0.00    +0.000 C 
ENDBRANCH  30  34
BRANCH  32  36
ATOM     36  O   UNL     1      21.712   3.923  62.297  0.00  0.00    +0.000 OA
ATOM     37  C   UNL     1      22.790   4.028  63.187  0.00  0.00    +0.000 C 
ENDBRANCH  32  36
ENDBRANCH  27  28
ENDBRANCH   8  26
TORSDOF 6
ENDMDL
MODEL 2
REMARK VINA RESULT:      -4.9     12.924     13.740
REMARK  Name = AZD4547.pdbqt.pdb
REMARK  6 active torsions:
REMARK  status: ('A' for Active; 'I' for Inactive)
REMARK    1  A    between atoms: C_3  and  C_23
REMARK    2  A    between atoms: C_8  and  C_11
REMARK    3  A    between atoms: C_12  and  C_13
REMARK    4  A    between atoms: C_15  and  O_19
REMARK    5  A    between atoms: C_17  and  O_21
REMARK    6  A    between atoms: C_26  and  N_29
REMARK                            x       y       z     vdW  Elec       q    Type
REMARK                         _______ _______ _______ _____ _____    ______ ____
ROOT
ATOM      1  O   UNL     1       7.513   8.299  60.821  0.00  0.00    +0.000 OA
ATOM      2  N   UNL     1       6.697  10.283  61.694  0.00  0.00    +0.000 N 
ATOM      3  C   UNL     1       6.691   8.922  61.484  0.00  0.00    +0.000 C 
ATOM      4  H   UNL     1       5.996  10.753  62.246  0.00  0.00    +0.000 HD
ATOM      5  C   UNL     1       7.641  11.143  61.185  0.00  0.00    +0.000 A 
ATOM      6  N   UNL     1       7.537  12.448  61.458  0.00  0.00    +0.000 NA
ATOM      7  N   UNL     1       8.594  12.990  60.825  0.00  0.00    +0.000 N 
ATOM      8  C   UNL     1       9.363  12.081  60.163  0.00  0.00    +0.000 A 
ATOM      9  H   UNL     1       8.733  13.993  60.885  0.00  0.00    +0.000 HD
ATOM     10  C   UNL     1       8.769  10.862  60.376  0.00  0.00    +0.000 A 
ENDROOT
BRANCH   3  11
ATOM     11  C   UNL     1       5.583   8.172  62.126  0.00  0.00    +0.000 A 
ATOM     12  C   UNL     1       5.630   6.778  62.118  0.00  0.00    +0.000 A 
ATOM     13  C   UNL     1       4.608   6.041  62.711  0.00  0.00    +0.000 A 
ATOM     14  C   UNL     1       3.511   6.673  63.310  0.00  0.00    +0.000 A 
ATOM     15  C   UNL     1       3.490   8.075  63.326  0.00  0.00    +0.000 A 
ATOM     16  C   UNL     1       4.510   8.819  62.734  0.00  0.00    +0.000 A 
BRANCH  14  17
ATOM     17  N   UNL     1       2.496   5.924  63.951  0.00  0.00    +0.000 N 
ATOM     18  C   UNL     1       2.185   6.226  65.359  0.00  0.00    +0.000 C 
ATOM     19  C   UNL     1       2.065   5.466  66.559  0.00  0.00    +0.000 C 
ATOM     20  N   UNL     1       2.289   4.059  66.450  0.00  0.00    +0.000 N 
ATOM     21  C   UNL     1       1.758   6.084  67.876  0.00  0.00    +0.000 C 
ATOM     22  C   UNL     1       2.613   3.533  65.164  0.00  0.00    +0.000 C 
ATOM     23  H   UNL     1       2.244   3.462  67.261  0.00  0.00    +0.000 HD
ATOM     24  C   UNL     1       2.682   4.469  64.090  0.00  0.00    +0.000 C 
ATOM     25  C   UNL     1       2.902   2.086  64.985  0.00  0.00    +0.000 C 
ENDBRANCH  14  17
ENDBRANCH   3  11
BRANCH   8  26
ATOM     26  C   UNL     1      10.530  12.381  59.421  0.00  0.00    +0.000 C 
ATOM     27  C   UNL     1      11.795  12.703  58.618  0.00  0.00    +0.000 C 
BRANCH  27  28
ATOM     28  C   UNL     1      12.976  12.995  57.876  0.00  0.00    +0.000 A 
ATOM     29  C   UNL     1      14.200  12.475  58.287  0.00  0.00    +0.000 A 
ATOM     30  C   UNL     1      15.360  12.754  57.560  0.00  0.00    +0.000 A 
ATOM     31  C   UNL     1      15.276  13.553  56.418  0.00  0.00    +0.000 A 
ATOM     32  C   UNL     1      14.052  14.081  56.005  0.00  0.00    +0.000 A 
ATOM     33  C   UNL     1      12.900  13.796  56.740  0.00  0.00    +0.000 A 
BRANCH  30  34
ATOM     34  O   UNL     1      16.614  12.289  57.870  0.00  0.00    +0.000 OA
ATOM     35  C   UNL     1      16.745  11.714  59.139  0.00  0.00    +0.000 C 
ENDBRANCH  30  34
BRANCH  32  36
ATOM     36  O   UNL     1      14.090  14.852  54.870  0.00  0.00    +0.000 OA
ATOM     37  C   UNL     1      15.037  14.466  53.912  0.00  0.00    +0.000 C 
ENDBRANCH  32  36
ENDBRANCH  27  28
ENDBRANCH   8  26
TORSDOF 6
ENDMDL
MODEL 3
REMARK VINA RESULT:      -4.8      3.804     13.713
REMARK  Name = AZD4547.pdbqt.pdb
REMARK  6 active torsions:
REMARK  status: ('A' for Active; 'I' for Inactive)
REMARK    1  A    between atoms: C_3  and  C_23
REMARK    2  A    between atoms: C_8  and  C_11
REMARK    3  A    between atoms: C_12  and  C_13
REMARK    4  A    between atoms: C_15  and  O_19
REMARK    5  A    between atoms: C_17  and  O_21
REMARK    6  A    between atoms: C_26  and  N_29
REMARK                            x       y       z     vdW  Elec       q    Type
REMARK                         _______ _______ _______ _____ _____    ______ ____
ROOT
ATOM      1  O   UNL     1      15.244   5.546  68.910  0.00  0.00    +0.000 OA
ATOM      2  N   UNL     1      17.059   5.523  70.348  0.00  0.00    +0.000 N 
ATOM      3  C   UNL     1      16.431   5.747  69.143  0.00  0.00    +0.000 C 
ATOM      4  H   UNL     1      18.041   5.701  70.493  0.00  0.00    +0.000 HD
ATOM      5  C   UNL     1      16.432   5.044  71.474  0.00  0.00    +0.000 A 
ATOM      6  N   UNL     1      17.152   4.867  72.587  0.00  0.00    +0.000 NA
ATOM      7  N   UNL     1      16.255   4.400  73.475  0.00  0.00    +0.000 N 
ATOM      8  C   UNL     1      14.996   4.275  72.969  0.00  0.00    +0.000 A 
ATOM      9  H   UNL     1      16.570   4.185  74.415  0.00  0.00    +0.000 HD
ATOM     10  C   UNL     1      15.074   4.686  71.662  0.00  0.00    +0.000 A 
ENDROOT
BRANCH   3  11
ATOM     11  C   UNL     1      17.290   6.272  68.052  0.00  0.00    +0.000 A 
ATOM     12  C   UNL     1      17.491   7.649  67.968  0.00  0.00    +0.000 A 
ATOM     13  C   UNL     1      18.290   8.177  66.956  0.00  0.00    +0.000 A 
ATOM     14  C   UNL     1      18.893   7.350  66.001  0.00  0.00    +0.000 A 
ATOM     15  C   UNL     1      18.695   5.966  66.112  0.00  0.00    +0.000 A 
ATOM     16  C   UNL     1      17.896   5.430  67.122  0.00  0.00    +0.000 A 
BRANCH  14  17
ATOM     17  N   UNL     1      19.740   7.884  65.002  0.00  0.00    +0.000 N 
ATOM     18  C   UNL     1      19.122   8.543  63.837  0.00  0.00    +0.000 C 
ATOM     19  C   UNL     1      19.246   8.431  62.422  0.00  0.00    +0.000 C 
ATOM     20  N   UNL     1      20.177   7.463  61.936  0.00  0.00    +0.000 N 
ATOM     21  C   UNL     1      18.435   9.243  61.476  0.00  0.00    +0.000 C 
ATOM     22  C   UNL     1      20.900   6.693  62.896  0.00  0.00    +0.000 C 
ATOM     23  H   UNL     1      20.301   7.312  60.947  0.00  0.00    +0.000 HD
ATOM     24  C   UNL     1      20.626   6.964  64.269  0.00  0.00    +0.000 C 
ATOM     25  C   UNL     1      21.852   5.637  62.461  0.00  0.00    +0.000 C 
ENDBRANCH  14  17
ENDBRANCH   3  11
BRANCH   8  26
ATOM     26  C   UNL     1      13.868   3.811  73.687  0.00  0.00    +0.000 C 
ATOM     27  C   UNL     1      12.644   3.308  74.460  0.00  0.00    +0.000 C 
BRANCH  27  28
ATOM     28  C   UNL     1      11.503   2.837  75.171  0.00  0.00    +0.000 A 
ATOM     29  C   UNL     1      10.793   3.705  75.996  0.00  0.00    +0.000 A 
ATOM     30  C   UNL     1       9.670   3.251  76.692  0.00  0.00    +0.000 A 
ATOM     31  C   UNL     1       9.267   1.921  76.547  0.00  0.00    +0.000 A 
ATOM     32  C   UNL     1       9.979   1.046  75.726  0.00  0.00    +0.000 A 
ATOM     33  C   UNL     1      11.100   1.512  75.036  0.00  0.00    +0.000 A 
BRANCH  30  34
ATOM     34  O   UNL     1       8.894   4.020  77.523  0.00  0.00    +0.000 OA
ATOM     35  C   UNL     1       8.910   5.394  77.259  0.00  0.00    +0.000 C 
ENDBRANCH  30  34
BRANCH  32  36
ATOM     36  O   UNL     1       9.492  -0.236  75.660  0.00  0.00    +0.000 OA
ATOM     37  C   UNL     1       8.194  -0.360  75.145  0.00  0.00    +0.000 C 
ENDBRANCH  32  36
ENDBRANCH  27  28
ENDBRANCH   8  26
TORSDOF 6
ENDMDL
MODEL 4
REMARK VINA RESULT:      -4.6      7.370     16.451
REMARK  Name = AZD4547.pdbqt.pdb
REMARK  6 active torsions:
REMARK  status: ('A' for Active; 'I' for Inactive)
REMARK    1  A    between atoms: C_3  and  C_23
REMARK    2  A    between atoms: C_8  and  C_11
REMARK    3  A    between atoms: C_12  and  C_13
REMARK    4  A    between atoms: C_15  and  O_19
REMARK    5  A    between atoms: C_17  and  O_21
REMARK    6  A    between atoms: C_26  and  N_29
REMARK                            x       y       z     vdW  Elec       q    Type
REMARK                         _______ _______ _______ _____ _____    ______ ____
ROOT
ATOM      1  O   UNL     1      13.899  -1.680  60.766  0.00  0.00    +0.000 OA
ATOM      2  N   UNL     1      15.767  -1.089  62.001  0.00  0.00    +0.000 N 
ATOM      3  C   UNL     1      15.097  -1.434  60.848  0.00  0.00    +0.000 C 
ATOM      4  H   UNL     1      16.757  -0.898  62.020  0.00  0.00    +0.000 HD
ATOM      5  C   UNL     1      15.176  -0.967  63.235  0.00  0.00    +0.000 A 
ATOM      6  N   UNL     1      15.935  -0.628  64.283  0.00  0.00    +0.000 NA
ATOM      7  N   UNL     1      15.065  -0.597  65.309  0.00  0.00    +0.000 N 
ATOM      8  C   UNL     1      13.785  -0.901  64.953  0.00  0.00    +0.000 A 
ATOM      9  H   UNL     1      15.412  -0.358  66.232  0.00  0.00    +0.000 HD
ATOM     10  C   UNL     1      13.820  -1.150  63.604  0.00  0.00    +0.000 A 
ENDROOT
BRANCH   3  11
ATOM     11  C   UNL     1      15.922  -1.507  59.616  0.00  0.00    +0.000 A 
ATOM     12  C   UNL     1      15.277  -1.479  58.380  0.00  0.00    +0.000 A 
ATOM     13  C   UNL     1      16.018  -1.546  57.203  0.00  0.00    +0.000 A 
ATOM     14  C   UNL     1      17.414  -1.658  57.230  0.00  0.00    +0.000 A 
ATOM     15  C   UNL     1      18.047  -1.666  58.481  0.00  0.00    +0.000 A 
ATOM     16  C   UNL     1      17.311  -1.599  59.664  0.00  0.00    +0.000 A 
BRANCH  14  17
ATOM     17  N   UNL     1      18.169  -1.681  56.034  0.00  0.00    +0.000 N 
ATOM     18  C   UNL     1      19.026  -0.524  55.723  0.00  0.00    +0.000 C 
ATOM     19  C   UNL     1      19.206   0.336  54.600  0.00  0.00    +0.000 C 
ATOM     20  N   UNL     1      18.389   0.074  53.457  0.00  0.00    +0.000 N 
ATOM     21  C   UNL     1      20.162   1.474  54.602  0.00  0.00    +0.000 C 
ATOM     22  C   UNL     1      17.468  -1.014  53.531  0.00  0.00    +0.000 C 
ATOM     23  H   UNL     1      18.445   0.655  52.635  0.00  0.00    +0.000 HD
ATOM     24  C   UNL     1      17.446  -1.751  54.752  0.00  0.00    +0.000 C 
ATOM     25  C   UNL     1      16.555  -1.315  52.397  0.00  0.00    +0.000 C 
ENDBRANCH  14  17
ENDBRANCH   3  11
BRANCH   8  26
ATOM     26  C   UNL     1      12.678  -0.939  65.834  0.00  0.00    +0.000 C 
ATOM     27  C   UNL     1      11.480  -0.975  66.788  0.00  0.00    +0.000 C 
BRANCH  27  28
ATOM     28  C   UNL     1      10.367  -1.000  67.678  0.00  0.00    +0.000 A 
ATOM     29  C   UNL     1       9.071  -0.962  67.170  0.00  0.00    +0.000 A 
ATOM     30  C   UNL     1       7.977  -0.991  68.037  0.00  0.00    +0.000 A 
ATOM     31  C   UNL     1       8.196  -1.064  69.414  0.00  0.00    +0.000 A 
ATOM     32  C   UNL     1       9.493  -1.098  69.928  0.00  0.00    +0.000 A 
ATOM     33  C   UNL     1      10.579  -1.068  69.051  0.00  0.00    +0.000 A 
BRANCH  30  34
ATOM     34  O   UNL     1       6.661  -0.965  67.645  0.00  0.00    +0.000 OA
ATOM     35  C   UNL     1       6.433  -1.225  66.289  0.00  0.00    +0.000 C 
ENDBRANCH  30  34
BRANCH  32  36
ATOM     36  O   UNL     1       9.588  -1.170  71.296  0.00  0.00    +0.000 OA
ATOM     37  C   UNL     1       8.423  -1.581  71.959  0.00  0.00    +0.000 C 
ENDBRANCH  32  36
ENDBRANCH  27  28
ENDBRANCH   8  26
TORSDOF 6
ENDMDL
MODEL 5
REMARK VINA RESULT:      -4.6     13.020     19.067
REMARK  Name = AZD4547.pdbqt.pdb
REMARK  6 active torsions:
REMARK  status: ('A' for Active; 'I' for Inactive)
REMARK    1  A    between atoms: C_3  and  C_23
REMARK    2  A    between atoms: C_8  and  C_11
REMARK    3  A    between atoms: C_12  and  C_13
REMARK    4  A    between atoms: C_15  and  O_19
REMARK    5  A    between atoms: C_17  and  O_21
REMARK    6  A    between atoms: C_26  and  N_29
REMARK                            x       y       z     vdW  Elec       q    Type
REMARK                         _______ _______ _______ _____ _____    ______ ____
ROOT
ATOM      1  O   UNL     1       3.429   4.251  63.649  0.00  0.00    +0.000 OA
ATOM      2  N   UNL     1       3.103   6.414  64.411  0.00  0.00    +0.000 N 
ATOM      3  C   UNL     1       3.622   5.459  63.564  0.00  0.00    +0.000 C 
ATOM      4  H   UNL     1       3.293   7.398  64.303  0.00  0.00    +0.000 HD
ATOM      5  C   UNL     1       2.282   6.141  65.478  0.00  0.00    +0.000 A 
ATOM      6  N   UNL     1       1.843   7.157  66.229  0.00  0.00    +0.000 NA
ATOM      7  N   UNL     1       1.082   6.556  67.163  0.00  0.00    +0.000 N 
ATOM      8  C   UNL     1       1.020   5.201  67.032  0.00  0.00    +0.000 A 
ATOM      9  H   UNL     1       0.629   7.133  67.864  0.00  0.00    +0.000 HD
ATOM     10  C   UNL     1       1.794   4.894  65.941  0.00  0.00    +0.000 A 
ENDROOT
BRANCH   3  11
ATOM     11  C   UNL     1       4.486   5.965  62.469  0.00  0.00    +0.000 A 
ATOM     12  C   UNL     1       4.652   5.173  61.333  0.00  0.00    +0.000 A 
ATOM     13  C   UNL     1       5.456   5.615  60.284  0.00  0.00    +0.000 A 
ATOM     14  C   UNL     1       6.123   6.845  60.350  0.00  0.00    +0.000 A 
ATOM     15  C   UNL     1       5.930   7.636  61.492  0.00  0.00    +0.000 A 
ATOM     16  C   UNL     1       5.126   7.199  62.545  0.00  0.00    +0.000 A 
BRANCH  14  17
ATOM     17  N   UNL     1       6.903   7.312  59.266  0.00  0.00    +0.000 N 
ATOM     18  C   UNL     1       6.346   7.209  57.906  0.00  0.00    +0.000 C 
ATOM     19  C   UNL     1       6.798   6.686  56.659  0.00  0.00    +0.000 C 
ATOM     20  N   UNL     1       8.101   6.100  56.647  0.00  0.00    +0.000 N 
ATOM     21  C   UNL     1       5.963   6.705  55.429  0.00  0.00    +0.000 C 
ATOM     22  C   UNL     1       8.837   6.084  57.869  0.00  0.00    +0.000 C 
ATOM     23  H   UNL     1       8.476   5.689  55.806  0.00  0.00    +0.000 HD
ATOM     24  C   UNL     1       8.200   6.663  59.006  0.00  0.00    +0.000 C 
ATOM     25  C   UNL     1      10.180   5.451  57.939  0.00  0.00    +0.000 C 
ENDBRANCH  14  17
ENDBRANCH   3  11
BRANCH   8  26
ATOM     26  C   UNL     1       0.291   4.330  67.876  0.00  0.00    +0.000 C 
ATOM     27  C   UNL     1      -0.501   3.390  68.790  0.00  0.00    +0.000 C 
BRANCH  27  28
ATOM     28  C   UNL     1      -1.244   2.522  69.643  0.00  0.00    +0.000 A 
ATOM     29  C   UNL     1      -1.674   1.286  69.170  0.00  0.00    +0.000 A 
ATOM     30  C   UNL     1      -2.398   0.429  70.003  0.00  0.00    +0.000 A 
ATOM     31  C   UNL     1      -2.680   0.825  71.313  0.00  0.00    +0.000 A 
ATOM     32  C   UNL     1      -2.255   2.066  71.789  0.00  0.00    +0.000 A 
ATOM     33  C   UNL     1      -1.532   2.913  70.947  0.00  0.00    +0.000 A 
BRANCH  30  34
ATOM     34  O   UNL     1      -2.863  -0.812  69.644  0.00  0.00    +0.000 OA
ATOM     35  C   UNL     1      -2.607  -1.838  70.561  0.00  0.00    +0.000 C 
ENDBRANCH  30  34
BRANCH  32  36
ATOM     36  O   UNL     1      -2.589   2.348  73.091  0.00  0.00    +0.000 OA
ATOM     37  C   UNL     1      -1.516   2.683  73.928  0.00  0.00    +0.000 C 
ENDBRANCH  32  36
ENDBRANCH  27  28
ENDBRANCH   8  26
TORSDOF 6
ENDMDL
MODEL 6
REMARK VINA RESULT:      -4.5     13.404     14.240
REMARK  Name = AZD4547.pdbqt.pdb
REMARK  6 active torsions:
REMARK  status: ('A' for Active; 'I' for Inactive)
REMARK    1  A    between atoms: C_3  and  C_23
REMARK    2  A    between atoms: C_8  and  C_11
REMARK    3  A    between atoms: C_12  and  C_13
REMARK    4  A    between atoms: C_15  and  O_19
REMARK    5  A    between atoms: C_17  and  O_21
REMARK    6  A    between atoms: C_26  and  N_29
REMARK                            x       y       z     vdW  Elec       q    Type
REMARK                         _______ _______ _______ _____ _____    ______ ____
ROOT
ATOM      1  O   UNL     1       7.027   7.635  60.219  0.00  0.00    +0.000 OA
ATOM      2  N   UNL     1       6.432   9.257  61.760  0.00  0.00    +0.000 N 
ATOM      3  C   UNL     1       6.394   7.998  61.204  0.00  0.00    +0.000 C 
ATOM      4  H   UNL     1       5.890   9.511  62.572  0.00  0.00    +0.000 HD
ATOM      5  C   UNL     1       7.198  10.294  61.284  0.00  0.00    +0.000 A 
ATOM      6  N   UNL     1       7.147  11.474  61.911  0.00  0.00    +0.000 NA
ATOM      7  N   UNL     1       7.995  12.246  61.207  0.00  0.00    +0.000 N 
ATOM      8  C   UNL     1       8.582  11.601  60.160  0.00  0.00    +0.000 A 
ATOM      9  H   UNL     1       8.129  13.209  61.496  0.00  0.00    +0.000 HD
ATOM     10  C   UNL     1       8.084  10.323  60.179  0.00  0.00    +0.000 A 
ENDROOT
BRANCH   3  11
ATOM     11  C   UNL     1       5.502   7.019  61.874  0.00  0.00    +0.000 A 
ATOM     12  C   UNL     1       4.672   7.469  62.900  0.00  0.00    +0.000 A 
ATOM     13  C   UNL     1       3.822   6.578  63.552  0.00  0.00    +0.000 A 
ATOM     14  C   UNL     1       3.790   5.221  63.207  0.00  0.00    +0.000 A 
ATOM     15  C   UNL     1       4.618   4.791  62.161  0.00  0.00    +0.000 A 
ATOM     16  C   UNL     1       5.472   5.677  61.504  0.00  0.00    +0.000 A 
BRANCH  14  17
ATOM     17  N   UNL     1       2.894   4.327  63.839  0.00  0.00    +0.000 N 
ATOM     18  C   UNL     1       2.215   4.769  65.070  0.00  0.00    +0.000 C 
ATOM     19  C   UNL     1       2.041   4.239  66.382  0.00  0.00    +0.000 C 
ATOM     20  N   UNL     1       2.646   2.972  66.644  0.00  0.00    +0.000 N 
ATOM     21  C   UNL     1       1.302   4.962  67.451  0.00  0.00    +0.000 C 
ATOM     22  C   UNL     1       3.368   2.345  65.585  0.00  0.00    +0.000 C 
ATOM     23  H   UNL     1       2.584   2.546  67.556  0.00  0.00    +0.000 HD
ATOM     24  C   UNL     1       3.421   3.048  64.345  0.00  0.00    +0.000 C 
ATOM     25  C   UNL     1       4.061   1.048  65.801  0.00  0.00    +0.000 C 
ENDBRANCH  14  17
ENDBRANCH   3  11
BRANCH   8  26
ATOM     26  C   UNL     1       9.513  12.177  59.262  0.00  0.00    +0.000 C 
ATOM     27  C   UNL     1      10.522  12.797  58.289  0.00  0.00    +0.000 C 
BRANCH  27  28
ATOM     28  C   UNL     1      11.464  13.364  57.384  0.00  0.00    +0.000 A 
ATOM     29  C   UNL     1      11.443  14.732  57.127  0.00  0.00    +0.000 A 
ATOM     30  C   UNL     1      12.367  15.295  56.244  0.00  0.00    +0.000 A 
ATOM     31  C   UNL     1      13.313  14.472  55.628  0.00  0.00    +0.000 A 
ATOM     32  C   UNL     1      13.335  13.099  55.878  0.00  0.00    +0.000 A 
ATOM     33  C   UNL     1      12.406  12.549  56.763  0.00  0.00    +0.000 A 
BRANCH  30  34
ATOM     34  O   UNL     1      12.441  16.628  55.925  0.00  0.00    +0.000 OA
ATOM     35  C   UNL     1      12.390  17.509  57.011  0.00  0.00    +0.000 C 
ENDBRANCH  30  34
BRANCH  32  36
ATOM     36  O   UNL     1      14.308  12.391  55.217  0.00  0.00    +0.000 OA
ATOM     37  C   UNL     1      13.925  11.121  54.764  0.00  0.00    +0.000 C 
ENDBRANCH  32  36
ENDBRANCH  27  28
ENDBRANCH   8  26
TORSDOF 6
ENDMDL
MODEL 7
REMARK VINA RESULT:      -4.4     13.491     18.591
REMARK  Name = AZD4547.pdbqt.pdb
REMARK  6 active torsions:
REMARK  status: ('A' for Active; 'I' for Inactive)
REMARK    1  A    between atoms: C_3  and  C_23
REMARK    2  A    between atoms: C_8  and  C_11
REMARK    3  A    between atoms: C_12  and  C_13
REMARK    4  A    between atoms: C_15  and  O_19
REMARK    5  A    between atoms: C_17  and  O_21
REMARK    6  A    between atoms: C_26  and  N_29
REMARK                            x       y       z     vdW  Elec       q    Type
REMARK                         _______ _______ _______ _____ _____    ______ ____
ROOT
ATOM      1  O   UNL     1       6.874  11.040  61.897  0.00  0.00    +0.000 OA
ATOM      2  N   UNL     1       7.206   9.193  60.541  0.00  0.00    +0.000 N 
ATOM      3  C   UNL     1       7.421  10.491  60.947  0.00  0.00    +0.000 C 
ATOM      4  H   UNL     1       7.679   8.784  59.749  0.00  0.00    +0.000 HD
ATOM      5  C   UNL     1       6.342   8.319  61.156  0.00  0.00    +0.000 A 
ATOM      6  N   UNL     1       6.219   7.081  60.666  0.00  0.00    +0.000 NA
ATOM      7  N   UNL     1       5.318   6.504  61.481  0.00  0.00    +0.000 N 
ATOM      8  C   UNL     1       4.866   7.326  62.470  0.00  0.00    +0.000 A 
ATOM      9  H   UNL     1       5.053   5.540  61.308  0.00  0.00    +0.000 HD
ATOM     10  C   UNL     1       5.514   8.523  62.288  0.00  0.00    +0.000 A 
ENDROOT
BRANCH   3  11
ATOM     11  C   UNL     1       8.400  11.267  60.146  0.00  0.00    +0.000 A 
ATOM     12  C   UNL     1       7.999  11.772  58.910  0.00  0.00    +0.000 A 
ATOM     13  C   UNL     1       8.891  12.505  58.131  0.00  0.00    +0.000 A 
ATOM     14  C   UNL     1      10.204  12.739  58.559  0.00  0.00    +0.000 A 
ATOM     15  C   UNL     1      10.585  12.240  59.812  0.00  0.00    +0.000 A 
ATOM     16  C   UNL     1       9.696  11.505  60.597  0.00  0.00    +0.000 A 
BRANCH  14  17
ATOM     17  N   UNL     1      11.095  13.522  57.787  0.00  0.00    +0.000 N 
ATOM     18  C   UNL     1      11.807  12.877  56.670  0.00  0.00    +0.000 C 
ATOM     19  C   UNL     1      13.167  12.781  56.250  0.00  0.00    +0.000 C 
ATOM     20  N   UNL     1      14.134  13.447  57.063  0.00  0.00    +0.000 N 
ATOM     21  C   UNL     1      13.586  12.006  55.053  0.00  0.00    +0.000 C 
ATOM     22  C   UNL     1      13.669  14.146  58.217  0.00  0.00    +0.000 C 
ATOM     23  H   UNL     1      15.117  13.403  56.840  0.00  0.00    +0.000 HD
ATOM     24  C   UNL     1      12.264  14.118  58.457  0.00  0.00    +0.000 C 
ATOM     25  C   UNL     1      14.625  14.823  59.131  0.00  0.00    +0.000 C 
ENDBRANCH  14  17
ENDBRANCH   3  11
BRANCH   8  26
ATOM     26  C   UNL     1       3.920   6.972  63.461  0.00  0.00    +0.000 C 
ATOM     27  C   UNL     1       2.897   6.584  64.534  0.00  0.00    +0.000 C 
BRANCH  27  28
ATOM     28  C   UNL     1       1.946   6.214  65.528  0.00  0.00    +0.000 A 
ATOM     29  C   UNL     1       1.300   7.199  66.270  0.00  0.00    +0.000 A 
ATOM     30  C   UNL     1       0.363   6.842  67.244  0.00  0.00    +0.000 A 
ATOM     31  C   UNL     1       0.081   5.492  67.460  0.00  0.00    +0.000 A 
ATOM     32  C   UNL     1       0.731   4.501  66.722  0.00  0.00    +0.000 A 
ATOM     33  C   UNL     1       1.665   4.870  65.752  0.00  0.00    +0.000 A 
BRANCH  30  34
ATOM     34  O   UNL     1      -0.337   7.728  68.025  0.00  0.00    +0.000 OA
ATOM     35  C   UNL     1      -0.240   9.072  67.644  0.00  0.00    +0.000 C 
ENDBRANCH  30  34
BRANCH  32  36
ATOM     36  O   UNL     1       0.374   3.209  67.020  0.00  0.00    +0.000 OA
ATOM     37  C   UNL     1       1.008   2.652  68.139  0.00  0.00    +0.000 C 
ENDBRANCH  32  36
ENDBRANCH  27  28
ENDBRANCH   8  26
TORSDOF 6
ENDMDL
MODEL 8
REMARK VINA RESULT:      -4.4     13.273     18.359
REMARK  Name = AZD4547.pdbqt.pdb
REMARK  6 active torsions:
REMARK  status: ('A' for Active; 'I' for Inactive)
REMARK    1  A    between atoms: C_3  and  C_23
REMARK    2  A    between atoms: C_8  and  C_11
REMARK    3  A    between atoms: C_12  and  C_13
REMARK    4  A    between atoms: C_15  and  O_19
REMARK    5  A    between atoms: C_17  and  O_21
REMARK    6  A    between atoms: C_26  and  N_29
REMARK                            x       y       z     vdW  Elec       q    Type
REMARK                         _______ _______ _______ _____ _____    ______ ____
ROOT
ATOM      1  O   UNL     1       7.239  11.288  61.866  0.00  0.00    +0.000 OA
ATOM      2  N   UNL     1       7.685   9.448  60.533  0.00  0.00    +0.000 N 
ATOM      3  C   UNL     1       7.857  10.747  60.955  0.00  0.00    +0.000 C 
ATOM      4  H   UNL     1       8.216   9.046  59.775  0.00  0.00    +0.000 HD
ATOM      5  C   UNL     1       6.790   8.563  61.085  0.00  0.00    +0.000 A 
ATOM      6  N   UNL     1       6.715   7.325  60.584  0.00  0.00    +0.000 NA
ATOM      7  N   UNL     1       5.766   6.736  61.334  0.00  0.00    +0.000 N 
ATOM      8  C   UNL     1       5.238   7.550  62.291  0.00  0.00    +0.000 A 
ATOM      9  H   UNL     1       5.525   5.769  61.140  0.00  0.00    +0.000 HD
ATOM     10  C   UNL     1       5.883   8.754  62.156  0.00  0.00    +0.000 A 
ENDROOT
BRANCH   3  11
ATOM     11  C   UNL     1       8.880  11.537  60.226  0.00  0.00    +0.000 A 
ATOM     12  C   UNL     1       8.554  12.055  58.974  0.00  0.00    +0.000 A 
ATOM     13  C   UNL     1       9.490  12.801  58.260  0.00  0.00    +0.000 A 
ATOM     14  C   UNL     1      10.773  13.034  58.771  0.00  0.00    +0.000 A 
ATOM     15  C   UNL     1      11.077  12.521  60.040  0.00  0.00    +0.000 A 
ATOM     16  C   UNL     1      10.145  11.774  60.760  0.00  0.00    +0.000 A 
BRANCH  14  17
ATOM     17  N   UNL     1      11.707  13.829  58.066  0.00  0.00    +0.000 N 
ATOM     18  C   UNL     1      12.749  13.151  57.276  0.00  0.00    +0.000 C 
ATOM     19  C   UNL     1      14.169  13.234  57.181  0.00  0.00    +0.000 C 
ATOM     20  N   UNL     1      14.811  14.186  58.030  0.00  0.00    +0.000 N 
ATOM     21  C   UNL     1      14.968  12.364  56.278  0.00  0.00    +0.000 C 
ATOM     22  C   UNL     1      13.990  14.967  58.897  0.00  0.00    +0.000 C 
ATOM     23  H   UNL     1      15.815  14.285  58.034  0.00  0.00    +0.000 HD
ATOM     24  C   UNL     1      12.585  14.726  58.835  0.00  0.00    +0.000 C 
ATOM     25  C   UNL     1      14.594  15.945  59.840  0.00  0.00    +0.000 C 
ENDBRANCH  14  17
ENDBRANCH   3  11
BRANCH   8  26
ATOM     26  C   UNL     1       4.229   7.182  63.213  0.00  0.00    +0.000 C 
ATOM     27  C   UNL     1       3.140   6.786  64.215  0.00  0.00    +0.000 C 
BRANCH  27  28
ATOM     28  C   UNL     1       2.133   6.420  65.154  0.00  0.00    +0.000 A 
ATOM     29  C   UNL     1       1.902   5.077  65.437  0.00  0.00    +0.000 A 
ATOM     30  C   UNL     1       0.919   4.713  66.360  0.00  0.00    +0.000 A 
ATOM     31  C   UNL     1       0.176   5.710  66.997  0.00  0.00    +0.000 A 
ATOM     32  C   UNL     1       0.399   7.057  66.712  0.00  0.00    +0.000 A 
ATOM     33  C   UNL     1       1.385   7.408  65.788  0.00  0.00    +0.000 A 
BRANCH  30  34
ATOM     34  O   UNL     1       0.615   3.423  66.719  0.00  0.00    +0.000 OA
ATOM     35  C   UNL     1       1.252   2.955  67.874  0.00  0.00    +0.000 C 
ENDBRANCH  30  34
BRANCH  32  36
ATOM     36  O   UNL     1      -0.390   7.948  67.398  0.00  0.00    +0.000 OA
ATOM     37  C   UNL     1      -0.567   7.670  68.760  0.00  0.00    +0.000 C 
ENDBRANCH  32  36
ENDBRANCH  27  28
ENDBRANCH   8  26
TORSDOF 6
ENDMDL
MODEL 9
REMARK VINA RESULT:      -4.3     13.686     19.120
REMARK  Name = AZD4547.pdbqt.pdb
REMARK  6 active torsions:
REMARK  status: ('A' for Active; 'I' for Inactive)
REMARK    1  A    between atoms: C_3  and  C_23
REMARK    2  A    between atoms: C_8  and  C_11
REMARK    3  A    between atoms: C_12  and  C_13
REMARK    4  A    between atoms: C_15  and  O_19
REMARK    5  A    between atoms: C_17  and  O_21
REMARK    6  A    between atoms: C_26  and  N_29
REMARK                            x       y       z     vdW  Elec       q    Type
REMARK                         _______ _______ _______ _____ _____    ______ ____
ROOT
ATOM      1  O   UNL     1       7.737  10.965  60.433  0.00  0.00    +0.000 OA
ATOM      2  N   UNL     1       8.365  12.480  62.067  0.00  0.00    +0.000 N 
ATOM      3  C   UNL     1       8.505  11.815  60.870  0.00  0.00    +0.000 C 
ATOM      4  H   UNL     1       9.026  13.171  62.388  0.00  0.00    +0.000 HD
ATOM      5  C   UNL     1       7.328  12.285  62.948  0.00  0.00    +0.000 A 
ATOM      6  N   UNL     1       7.304  12.993  64.082  0.00  0.00    +0.000 NA
ATOM      7  N   UNL     1       6.184  12.569  64.698  0.00  0.00    +0.000 N 
ATOM      8  C   UNL     1       5.498  11.623  63.997  0.00  0.00    +0.000 A 
ATOM      9  H   UNL     1       5.945  12.970  65.599  0.00  0.00    +0.000 HD
ATOM     10  C   UNL     1       6.217  11.412  62.848  0.00  0.00    +0.000 A 
ENDROOT
BRANCH   3  11
ATOM     11  C   UNL     1       9.697  12.175  60.063  0.00  0.00    +0.000 A 
ATOM     12  C   UNL     1       9.509  12.584  58.743  0.00  0.00    +0.000 A 
ATOM     13  C   UNL     1      10.605  12.930  57.956  0.00  0.00    +0.000 A 
ATOM     14  C   UNL     1      11.910  12.861  58.459  0.00  0.00    +0.000 A 
ATOM     15  C   UNL     1      12.079  12.466  59.793  0.00  0.00    +0.000 A 
ATOM     16  C   UNL     1      10.986  12.119  60.587  0.00  0.00    +0.000 A 
BRANCH  14  17
ATOM     17  N   UNL     1      13.018  13.255  57.672  0.00  0.00    +0.000 N 
ATOM     18  C   UNL     1      13.217  12.603  56.366  0.00  0.00    +0.000 C 
ATOM     19  C   UNL     1      14.301  11.949  55.710  0.00  0.00    +0.000 C 
ATOM     20  N   UNL     1      15.529  11.866  56.435  0.00  0.00    +0.000 N 
ATOM     21  C   UNL     1      14.178  11.347  54.357  0.00  0.00    +0.000 C 
ATOM     22  C   UNL     1      15.572  12.436  57.743  0.00  0.00    +0.000 C 
ATOM     23  H   UNL     1      16.332  11.398  56.044  0.00  0.00    +0.000 HD
ATOM     24  C   UNL     1      14.371  13.045  58.213  0.00  0.00    +0.000 C 
ATOM     25  C   UNL     1      16.803  12.345  58.572  0.00  0.00    +0.000 C 
ENDBRANCH  14  17
ENDBRANCH   3  11
BRANCH   8  26
ATOM     26  C   UNL     1       4.290  11.013  64.413  0.00  0.00    +0.000 C 
ATOM     27  C   UNL     1       2.986  10.349  64.866  0.00  0.00    +0.000 C 
BRANCH  27  28
ATOM     28  C   UNL     1       1.777   9.725  65.292  0.00  0.00    +0.000 A 
ATOM     29  C   UNL     1       1.643   9.301  66.611  0.00  0.00    +0.000 A 
ATOM     30  C   UNL     1       0.458   8.694  67.035  0.00  0.00    +0.000 A 
ATOM     31  C   UNL     1      -0.587   8.521  66.124  0.00  0.00    +0.000 A 
ATOM     32  C   UNL     1      -0.454   8.940  64.799  0.00  0.00    +0.000 A 
ATOM     33  C   UNL     1       0.735   9.545  64.388  0.00  0.00    +0.000 A 
BRANCH  30  34
ATOM     34  O   UNL     1       0.216   8.246  68.310  0.00  0.00    +0.000 OA
ATOM     35  C   UNL     1      -0.253   6.931  68.406  0.00  0.00    +0.000 C 
ENDBRANCH  30  34
BRANCH  32  36
ATOM     36  O   UNL     1      -1.545   8.719  63.995  0.00  0.00    +0.000 OA
ATOM     37  C   UNL     1      -2.611   8.039  64.600  0.00  0.00    +0.000 C 
ENDBRANCH  32  36
ENDBRANCH  27  28
ENDBRANCH   8  26
TORSDOF 6
ENDMDL
