MODEL 1
REMARK VINA RESULT:      -4.4      0.000      0.000
REMARK  Name = Belinostat.pdbqt.pdb
REMARK  6 active torsions:
REMARK  status: ('A' for Active; 'I' for Inactive)
REMARK    1  A    between atoms: C_1  and  S_7
REMARK    2  A    between atoms: C_3  and  C_18
REMARK    3  A    between atoms: S_7  and  N_10
REMARK    4  A    between atoms: N_10  and  C_12
REMARK    5  A    between atoms: C_19  and  C_20
REMARK    6  A    between atoms: N_22  and  O_24
REMARK                            x       y       z     vdW  Elec       q    Type
REMARK                         _______ _______ _______ _____ _____    ______ ____
ROOT
ATOM      1  C   UNL     1       6.297   7.411  58.798  0.00  0.00    +0.000 A 
ATOM      2  C   UNL     1       5.594   6.568  59.652  0.00  0.00    +0.000 A 
ATOM      3  C   UNL     1       5.727   6.737  61.027  0.00  0.00    +0.000 A 
ATOM      4  C   UNL     1       7.103   8.434  59.287  0.00  0.00    +0.000 A 
ATOM      5  C   UNL     1       6.543   7.748  61.534  0.00  0.00    +0.000 A 
ATOM      6  C   UNL     1       7.229   8.596  60.664  0.00  0.00    +0.000 A 
ENDROOT
BRANCH   1   7
ATOM      7  S   UNL     1       6.106   7.233  57.062  0.00  0.00    +0.000 S 
ATOM      8  O   UNL     1       6.080   8.566  56.499  0.00  0.00    +0.000 OA
ATOM      9  O   UNL     1       5.029   6.298  56.819  0.00  0.00    +0.000 OA
BRANCH   7  10
ATOM     10  N   UNL     1       7.555   6.544  56.580  0.00  0.00    +0.000 N 
ATOM     11  H   UNL     1       8.104   7.117  55.941  0.00  0.00    +0.000 HD
BRANCH  10  12
ATOM     12  C   UNL     1       8.183   5.476  57.281  0.00  0.00    +0.000 A 
ATOM     13  C   UNL     1       7.671   4.180  57.299  0.00  0.00    +0.000 A 
ATOM     14  C   UNL     1       8.370   3.154  57.931  0.00  0.00    +0.000 A 
ATOM     15  C   UNL     1       9.600   3.416  58.527  0.00  0.00    +0.000 A 
ATOM     16  C   UNL     1      10.134   4.701  58.481  0.00  0.00    +0.000 A 
ATOM     17  C   UNL     1       9.433   5.724  57.849  0.00  0.00    +0.000 A 
ENDBRANCH  10  12
ENDBRANCH   7  10
ENDBRANCH   1   7
BRANCH   3  18
ATOM     18  C   UNL     1       5.024   5.873  61.918  0.00  0.00    +0.000 C 
ATOM     19  C   UNL     1       4.431   5.148  62.669  0.00  0.00    +0.000 C 
BRANCH  19  20
ATOM     20  C   UNL     1       3.717   4.278  63.571  0.00  0.00    +0.000 C 
ATOM     21  O   UNL     1       2.499   4.354  63.674  0.00  0.00    +0.000 OA
ATOM     22  N   UNL     1       4.481   3.386  64.270  0.00  0.00    +0.000 N 
ATOM     23  H   UNL     1       5.481   3.271  64.154  0.00  0.00    +0.000 HD
BRANCH  22  24
ATOM     24  O   UNL     1       3.812   2.485  65.128  0.00  0.00    +0.000 OA
ATOM     25  H   UNL     1       3.313   3.084  65.724  0.00  0.00    +0.000 HD
ENDBRANCH  22  24
ENDBRANCH  19  20
ENDBRANCH   3  18
TORSDOF 6
ENDMDL
MODEL 2
REMARK VINA RESULT:      -4.3      8.296     10.041
REMARK  Name = Belinostat.pdbqt.pdb
REMARK  6 active torsions:
REMARK  status: ('A' for Active; 'I' for Inactive)
REMARK    1  A    between atoms: C_1  and  S_7
REMARK    2  A    between atoms: C_3  and  C_18
REMARK    3  A    between atoms: S_7  and  N_10
REMARK    4  A    between atoms: N_10  and  C_12
REMARK    5  A    between atoms: C_19  and  C_20
REMARK    6  A    between atoms: N_22  and  O_24
REMARK                            x       y       z     vdW  Elec       q    Type
REMARK                         _______ _______ _______ _____ _____    ______ ____
ROOT
ATOM      1  C   UNL     1       1.589   5.742  66.605  0.00  0.00    +0.000 A 
ATOM      2  C   UNL     1       2.247   6.102  67.775  0.00  0.00    +0.000 A 
ATOM      3  C   UNL     1       2.040   7.373  68.301  0.00  0.00    +0.000 A 
ATOM      4  C   UNL     1       0.710   6.612  65.967  0.00  0.00    +0.000 A 
ATOM      5  C   UNL     1       1.174   8.263  67.667  0.00  0.00    +0.000 A 
ATOM      6  C   UNL     1       0.508   7.881  66.501  0.00  0.00    +0.000 A 
ENDROOT
BRANCH   1   7
ATOM      7  S   UNL     1       1.810   4.126  65.954  0.00  0.00    +0.000 S 
ATOM      8  O   UNL     1       2.379   4.276  64.631  0.00  0.00    +0.000 OA
ATOM      9  O   UNL     1       0.587   3.383  66.162  0.00  0.00    +0.000 OA
BRANCH   7  10
ATOM     10  N   UNL     1       3.018   3.481  66.918  0.00  0.00    +0.000 N 
ATOM     11  H   UNL     1       3.320   4.087  67.680  0.00  0.00    +0.000 HD
BRANCH  10  12
ATOM     12  C   UNL     1       3.321   2.091  66.967  0.00  0.00    +0.000 A 
ATOM     13  C   UNL     1       4.020   1.435  65.956  0.00  0.00    +0.000 A 
ATOM     14  C   UNL     1       4.362   0.092  66.091  0.00  0.00    +0.000 A 
ATOM     15  C   UNL     1       4.028  -0.596  67.254  0.00  0.00    +0.000 A 
ATOM     16  C   UNL     1       3.362   0.063  68.283  0.00  0.00    +0.000 A 
ATOM     17  C   UNL     1       3.021   1.405  68.144  0.00  0.00    +0.000 A 
ENDBRANCH  10  12
ENDBRANCH   7  10
ENDBRANCH   1   7
BRANCH   3  18
ATOM     18  C   UNL     1       2.718   7.766  69.494  0.00  0.00    +0.000 C 
ATOM     19  C   UNL     1       3.290   8.095  70.497  0.00  0.00    +0.000 C 
BRANCH  19  20
ATOM     20  C   UNL     1       3.978   8.489  71.701  0.00  0.00    +0.000 C 
ATOM     21  O   UNL     1       3.771   7.902  72.757  0.00  0.00    +0.000 OA
ATOM     22  N   UNL     1       4.857   9.529  71.574  0.00  0.00    +0.000 N 
ATOM     23  H   UNL     1       5.082   9.987  70.699  0.00  0.00    +0.000 HD
BRANCH  22  24
ATOM     24  O   UNL     1       5.585   9.912  72.722  0.00  0.00    +0.000 OA
ATOM     25  H   UNL     1       4.879  10.048  73.390  0.00  0.00    +0.000 HD
ENDBRANCH  22  24
ENDBRANCH  19  20
ENDBRANCH   3  18
TORSDOF 6
ENDMDL
MODEL 3
REMARK VINA RESULT:      -4.2      3.364      5.435
REMARK  Name = Belinostat.pdbqt.pdb
REMARK  6 active torsions:
REMARK  status: ('A' for Active; 'I' for Inactive)
REMARK    1  A    between atoms: C_1  and  S_7
REMARK    2  A    between atoms: C_3  and  C_18
REMARK    3  A    between atoms: S_7  and  N_10
REMARK    4  A    between atoms: N_10  and  C_12
REMARK    5  A    between atoms: C_19  and  C_20
REMARK    6  A    between atoms: N_22  and  O_24
REMARK                            x       y       z     vdW  Elec       q    Type
REMARK                         _______ _______ _______ _____ _____    ______ ____
ROOT
ATOM      1  C   UNL     1       6.236   7.514  58.583  0.00  0.00    +0.000 A 
ATOM      2  C   UNL     1       7.078   8.589  58.846  0.00  0.00    +0.000 A 
ATOM      3  C   UNL     1       7.348   8.927  60.168  0.00  0.00    +0.000 A 
ATOM      4  C   UNL     1       5.684   6.755  59.609  0.00  0.00    +0.000 A 
ATOM      5  C   UNL     1       6.791   8.185  61.209  0.00  0.00    +0.000 A 
ATOM      6  C   UNL     1       5.961   7.099  60.929  0.00  0.00    +0.000 A 
ENDROOT
BRANCH   1   7
ATOM      7  S   UNL     1       5.920   7.053  56.918  0.00  0.00    +0.000 S 
ATOM      8  O   UNL     1       5.749   8.277  56.164  0.00  0.00    +0.000 OA
ATOM      9  O   UNL     1       4.901   6.026  56.918  0.00  0.00    +0.000 OA
BRANCH   7  10
ATOM     10  N   UNL     1       7.373   6.388  56.417  0.00  0.00    +0.000 N 
ATOM     11  H   UNL     1       7.853   6.918  55.690  0.00  0.00    +0.000 HD
BRANCH  10  12
ATOM     12  C   UNL     1       8.098   5.430  57.180  0.00  0.00    +0.000 A 
ATOM     13  C   UNL     1       7.696   4.102  57.302  0.00  0.00    +0.000 A 
ATOM     14  C   UNL     1       8.486   3.185  57.993  0.00  0.00    +0.000 A 
ATOM     15  C   UNL     1       9.699   3.590  58.542  0.00  0.00    +0.000 A 
ATOM     16  C   UNL     1      10.125   4.907  58.392  0.00  0.00    +0.000 A 
ATOM     17  C   UNL     1       9.332   5.820  57.702  0.00  0.00    +0.000 A 
ENDBRANCH  10  12
ENDBRANCH   7  10
ENDBRANCH   1   7
BRANCH   3  18
ATOM     18  C   UNL     1       8.199  10.035  60.457  0.00  0.00    +0.000 C 
ATOM     19  C   UNL     1       8.912  10.970  60.700  0.00  0.00    +0.000 C 
BRANCH  19  20
ATOM     20  C   UNL     1       9.768  12.093  60.992  0.00  0.00    +0.000 C 
ATOM     21  O   UNL     1      10.203  12.796  60.087  0.00  0.00    +0.000 OA
ATOM     22  N   UNL     1      10.041  12.309  62.314  0.00  0.00    +0.000 N 
ATOM     23  H   UNL     1       9.644  11.773  63.077  0.00  0.00    +0.000 HD
BRANCH  22  24
ATOM     24  O   UNL     1      10.836  13.428  62.643  0.00  0.00    +0.000 OA
ATOM     25  H   UNL     1      11.505  13.436  61.924  0.00  0.00    +0.000 HD
ENDBRANCH  22  24
ENDBRANCH  19  20
ENDBRANCH   3  18
TORSDOF 6
ENDMDL
MODEL 4
REMARK VINA RESULT:      -3.9      5.105      7.562
REMARK  Name = Belinostat.pdbqt.pdb
REMARK  6 active torsions:
REMARK  status: ('A' for Active; 'I' for Inactive)
REMARK    1  A    between atoms: C_1  and  S_7
REMARK    2  A    between atoms: C_3  and  C_18
REMARK    3  A    between atoms: S_7  and  N_10
REMARK    4  A    between atoms: N_10  and  C_12
REMARK    5  A    between atoms: C_19  and  C_20
REMARK    6  A    between atoms: N_22  and  O_24
REMARK                            x       y       z     vdW  Elec       q    Type
REMARK                         _______ _______ _______ _____ _____    ______ ____
ROOT
ATOM      1  C   UNL     1       6.967  11.047  61.064  0.00  0.00    +0.000 A 
ATOM      2  C   UNL     1       7.618   9.976  60.462  0.00  0.00    +0.000 A 
ATOM      3  C   UNL     1       6.862   8.921  59.961  0.00  0.00    +0.000 A 
ATOM      4  C   UNL     1       5.580  11.099  61.149  0.00  0.00    +0.000 A 
ATOM      5  C   UNL     1       5.470   8.951  60.052  0.00  0.00    +0.000 A 
ATOM      6  C   UNL     1       4.830  10.040  60.644  0.00  0.00    +0.000 A 
ENDROOT
BRANCH   1   7
ATOM      7  S   UNL     1       7.910  12.402  61.662  0.00  0.00    +0.000 S 
ATOM      8  O   UNL     1       7.424  12.702  62.992  0.00  0.00    +0.000 OA
ATOM      9  O   UNL     1       7.946  13.417  60.632  0.00  0.00    +0.000 OA
BRANCH   7  10
ATOM     10  N   UNL     1       9.443  11.755  61.853  0.00  0.00    +0.000 N 
ATOM     11  H   UNL     1       9.472  10.736  61.875  0.00  0.00    +0.000 HD
BRANCH  10  12
ATOM     12  C   UNL     1      10.637  12.485  61.596  0.00  0.00    +0.000 A 
ATOM     13  C   UNL     1      11.220  13.334  62.535  0.00  0.00    +0.000 A 
ATOM     14  C   UNL     1      12.433  13.961  62.262  0.00  0.00    +0.000 A 
ATOM     15  C   UNL     1      13.084  13.720  61.056  0.00  0.00    +0.000 A 
ATOM     16  C   UNL     1      12.525  12.845  60.128  0.00  0.00    +0.000 A 
ATOM     17  C   UNL     1      11.312  12.220  60.404  0.00  0.00    +0.000 A 
ENDBRANCH  10  12
ENDBRANCH   7  10
ENDBRANCH   1   7
BRANCH   3  18
ATOM     18  C   UNL     1       7.513   7.807  59.352  0.00  0.00    +0.000 C 
ATOM     19  C   UNL     1       8.058   6.868  58.840  0.00  0.00    +0.000 C 
BRANCH  19  20
ATOM     20  C   UNL     1       8.712   5.740  58.224  0.00  0.00    +0.000 C 
ATOM     21  O   UNL     1       8.108   5.028  57.430  0.00  0.00    +0.000 OA
ATOM     22  N   UNL     1      10.018   5.541  58.576  0.00  0.00    +0.000 N 
ATOM     23  H   UNL     1      10.548   6.153  59.185  0.00  0.00    +0.000 HD
BRANCH  22  24
ATOM     24  O   UNL     1      10.706   4.475  57.956  0.00  0.00    +0.000 OA
ATOM     25  H   UNL     1      11.478   4.343  58.548  0.00  0.00    +0.000 HD
ENDBRANCH  22  24
ENDBRANCH  19  20
ENDBRANCH   3  18
TORSDOF 6
ENDMDL
MODEL 5
REMARK VINA RESULT:      -3.8     13.481     14.230
REMARK  Name = Belinostat.pdbqt.pdb
REMARK  6 active torsions:
REMARK  status: ('A' for Active; 'I' for Inactive)
REMARK    1  A    between atoms: C_1  and  S_7
REMARK    2  A    between atoms: C_3  and  C_18
REMARK    3  A    between atoms: S_7  and  N_10
REMARK    4  A    between atoms: N_10  and  C_12
REMARK    5  A    between atoms: C_19  and  C_20
REMARK    6  A    between atoms: N_22  and  O_24
REMARK                            x       y       z     vdW  Elec       q    Type
REMARK                         _______ _______ _______ _____ _____    ______ ____
ROOT
ATOM      1  C   UNL     1      18.167   1.334  53.291  0.00  0.00    +0.000 A 
ATOM      2  C   UNL     1      17.727   0.403  54.225  0.00  0.00    +0.000 A 
ATOM      3  C   UNL     1      18.568   0.052  55.276  0.00  0.00    +0.000 A 
ATOM      4  C   UNL     1      19.413   1.941  53.401  0.00  0.00    +0.000 A 
ATOM      5  C   UNL     1      19.827   0.641  55.393  0.00  0.00    +0.000 A 
ATOM      6  C   UNL     1      20.248   1.586  54.457  0.00  0.00    +0.000 A 
ENDROOT
BRANCH   1   7
ATOM      7  S   UNL     1      17.098   1.814  51.983  0.00  0.00    +0.000 S 
ATOM      8  O   UNL     1      16.099   2.692  52.552  0.00  0.00    +0.000 OA
ATOM      9  O   UNL     1      16.719   0.626  51.249  0.00  0.00    +0.000 OA
BRANCH   7  10
ATOM     10  N   UNL     1      18.074   2.771  51.015  0.00  0.00    +0.000 N 
ATOM     11  H   UNL     1      18.624   2.256  50.329  0.00  0.00    +0.000 HD
BRANCH  10  12
ATOM     12  C   UNL     1      17.877   4.171  50.849  0.00  0.00    +0.000 A 
ATOM     13  C   UNL     1      18.539   5.124  51.620  0.00  0.00    +0.000 A 
ATOM     14  C   UNL     1      18.372   6.482  51.361  0.00  0.00    +0.000 A 
ATOM     15  C   UNL     1      17.561   6.893  50.308  0.00  0.00    +0.000 A 
ATOM     16  C   UNL     1      16.926   5.946  49.509  0.00  0.00    +0.000 A 
ATOM     17  C   UNL     1      17.094   4.589  49.772  0.00  0.00    +0.000 A 
ENDBRANCH  10  12
ENDBRANCH   7  10
ENDBRANCH   1   7
BRANCH   3  18
ATOM     18  C   UNL     1      18.139  -0.912  56.236  0.00  0.00    +0.000 C 
ATOM     19  C   UNL     1      17.779  -1.722  57.047  0.00  0.00    +0.000 C 
BRANCH  19  20
ATOM     20  C   UNL     1      17.348  -2.693  58.020  0.00  0.00    +0.000 C 
ATOM     21  O   UNL     1      18.139  -3.509  58.478  0.00  0.00    +0.000 OA
ATOM     22  N   UNL     1      16.032  -2.629  58.387  0.00  0.00    +0.000 N 
ATOM     23  H   UNL     1      15.380  -1.925  58.062  0.00  0.00    +0.000 HD
BRANCH  22  24
ATOM     24  O   UNL     1      15.584  -3.534  59.374  0.00  0.00    +0.000 OA
ATOM     25  H   UNL     1      16.292  -4.214  59.380  0.00  0.00    +0.000 HD
ENDBRANCH  22  24
ENDBRANCH  19  20
ENDBRANCH   3  18
TORSDOF 6
ENDMDL
MODEL 6
REMARK VINA RESULT:      -3.8      9.136     11.223
REMARK  Name = Belinostat.pdbqt.pdb
REMARK  6 active torsions:
REMARK  status: ('A' for Active; 'I' for Inactive)
REMARK    1  A    between atoms: C_1  and  S_7
REMARK    2  A    between atoms: C_3  and  C_18
REMARK    3  A    between atoms: S_7  and  N_10
REMARK    4  A    between atoms: N_10  and  C_12
REMARK    5  A    between atoms: C_19  and  C_20
REMARK    6  A    between atoms: N_22  and  O_24
REMARK                            x       y       z     vdW  Elec       q    Type
REMARK                         _______ _______ _______ _____ _____    ______ ____
ROOT
ATOM      1  C   UNL     1       1.212   5.783  66.605  0.00  0.00    +0.000 A 
ATOM      2  C   UNL     1       1.966   6.131  67.720  0.00  0.00    +0.000 A 
ATOM      3  C   UNL     1       1.866   7.423  68.226  0.00  0.00    +0.000 A 
ATOM      4  C   UNL     1       0.342   6.688  66.005  0.00  0.00    +0.000 A 
ATOM      5  C   UNL     1       1.010   8.347  67.627  0.00  0.00    +0.000 A 
ATOM      6  C   UNL     1       0.248   7.978  66.518  0.00  0.00    +0.000 A 
ENDROOT
BRANCH   1   7
ATOM      7  S   UNL     1       1.299   4.144  65.982  0.00  0.00    +0.000 S 
ATOM      8  O   UNL     1       2.442   4.087  65.096  0.00  0.00    +0.000 OA
ATOM      9  O   UNL     1      -0.020   3.762  65.527  0.00  0.00    +0.000 OA
BRANCH   7  10
ATOM     10  N   UNL     1       1.701   3.237  67.332  0.00  0.00    +0.000 N 
ATOM     11  H   UNL     1       2.643   3.399  67.685  0.00  0.00    +0.000 HD
BRANCH  10  12
ATOM     12  C   UNL     1       0.734   2.616  68.172  0.00  0.00    +0.000 A 
ATOM     13  C   UNL     1      -0.206   3.339  68.902  0.00  0.00    +0.000 A 
ATOM     14  C   UNL     1      -1.183   2.678  69.645  0.00  0.00    +0.000 A 
ATOM     15  C   UNL     1      -1.238   1.288  69.637  0.00  0.00    +0.000 A 
ATOM     16  C   UNL     1      -0.324   0.560  68.881  0.00  0.00    +0.000 A 
ATOM     17  C   UNL     1       0.651   1.224  68.141  0.00  0.00    +0.000 A 
ENDBRANCH  10  12
ENDBRANCH   7  10
ENDBRANCH   1   7
BRANCH   3  18
ATOM     18  C   UNL     1       2.643   7.802  69.361  0.00  0.00    +0.000 C 
ATOM     19  C   UNL     1       3.294   8.120  70.319  0.00  0.00    +0.000 C 
BRANCH  19  20
ATOM     20  C   UNL     1       4.075   8.501  71.469  0.00  0.00    +0.000 C 
ATOM     21  O   UNL     1       5.170   9.034  71.328  0.00  0.00    +0.000 OA
ATOM     22  N   UNL     1       3.514   8.239  72.687  0.00  0.00    +0.000 N 
ATOM     23  H   UNL     1       2.586   7.852  72.821  0.00  0.00    +0.000 HD
BRANCH  22  24
ATOM     24  O   UNL     1       4.229   8.642  73.837  0.00  0.00    +0.000 OA
ATOM     25  H   UNL     1       5.089   8.933  73.464  0.00  0.00    +0.000 HD
ENDBRANCH  22  24
ENDBRANCH  19  20
ENDBRANCH   3  18
TORSDOF 6
ENDMDL
MODEL 7
REMARK VINA RESULT:      -3.7     11.731     12.965
REMARK  Name = Belinostat.pdbqt.pdb
REMARK  6 active torsions:
REMARK  status: ('A' for Active; 'I' for Inactive)
REMARK    1  A    between atoms: C_1  and  S_7
REMARK    2  A    between atoms: C_3  and  C_18
REMARK    3  A    between atoms: S_7  and  N_10
REMARK    4  A    between atoms: N_10  and  C_12
REMARK    5  A    between atoms: C_19  and  C_20
REMARK    6  A    between atoms: N_22  and  O_24
REMARK                            x       y       z     vdW  Elec       q    Type
REMARK                         _______ _______ _______ _____ _____    ______ ____
ROOT
ATOM      1  C   UNL     1      19.200   2.298  63.662  0.00  0.00    +0.000 A 
ATOM      2  C   UNL     1      18.229   2.776  64.535  0.00  0.00    +0.000 A 
ATOM      3  C   UNL     1      18.620   3.567  65.611  0.00  0.00    +0.000 A 
ATOM      4  C   UNL     1      20.544   2.617  63.824  0.00  0.00    +0.000 A 
ATOM      5  C   UNL     1      19.965   3.884  65.797  0.00  0.00    +0.000 A 
ATOM      6  C   UNL     1      20.926   3.410  64.903  0.00  0.00    +0.000 A 
ENDROOT
BRANCH   1   7
ATOM      7  S   UNL     1      18.714   1.333  62.278  0.00  0.00    +0.000 S 
ATOM      8  O   UNL     1      18.919  -0.054  62.635  0.00  0.00    +0.000 OA
ATOM      9  O   UNL     1      19.326   1.899  61.095  0.00  0.00    +0.000 OA
BRANCH   7  10
ATOM     10  N   UNL     1      17.057   1.564  62.206  0.00  0.00    +0.000 N 
ATOM     11  H   UNL     1      16.773   2.500  61.918  0.00  0.00    +0.000 HD
BRANCH  10  12
ATOM     12  C   UNL     1      16.121   0.494  62.134  0.00  0.00    +0.000 A 
ATOM     13  C   UNL     1      15.522  -0.061  63.263  0.00  0.00    +0.000 A 
ATOM     14  C   UNL     1      14.551  -1.051  63.132  0.00  0.00    +0.000 A 
ATOM     15  C   UNL     1      14.155  -1.471  61.865  0.00  0.00    +0.000 A 
ATOM     16  C   UNL     1      14.723  -0.895  60.733  0.00  0.00    +0.000 A 
ATOM     17  C   UNL     1      15.693   0.094  60.868  0.00  0.00    +0.000 A 
ENDBRANCH  10  12
ENDBRANCH   7  10
ENDBRANCH   1   7
BRANCH   3  18
ATOM     18  C   UNL     1      17.639   4.055  66.526  0.00  0.00    +0.000 C 
ATOM     19  C   UNL     1      16.814   4.463  67.297  0.00  0.00    +0.000 C 
BRANCH  19  20
ATOM     20  C   UNL     1      15.824   4.952  68.224  0.00  0.00    +0.000 C 
ATOM     21  O   UNL     1      15.300   4.194  69.031  0.00  0.00    +0.000 OA
ATOM     22  N   UNL     1      15.534   6.285  68.140  0.00  0.00    +0.000 N 
ATOM     23  H   UNL     1      16.000   6.936  67.519  0.00  0.00    +0.000 HD
BRANCH  22  24
ATOM     24  O   UNL     1      14.604   6.811  69.064  0.00  0.00    +0.000 OA
ATOM     25  H   UNL     1      13.897   7.164  68.482  0.00  0.00    +0.000 HD
ENDBRANCH  22  24
ENDBRANCH  19  20
ENDBRANCH   3  18
TORSDOF 6
ENDMDL
MODEL 8
REMARK VINA RESULT:      -3.7      7.142      9.634
REMARK  Name = Belinostat.pdbqt.pdb
REMARK  6 active torsions:
REMARK  status: ('A' for Active; 'I' for Inactive)
REMARK    1  A    between atoms: C_1  and  S_7
REMARK    2  A    between atoms: C_3  and  C_18
REMARK    3  A    between atoms: S_7  and  N_10
REMARK    4  A    between atoms: N_10  and  C_12
REMARK    5  A    between atoms: C_19  and  C_20
REMARK    6  A    between atoms: N_22  and  O_24
REMARK                            x       y       z     vdW  Elec       q    Type
REMARK                         _______ _______ _______ _____ _____    ______ ____
ROOT
ATOM      1  C   UNL     1      10.538  12.579  59.582  0.00  0.00    +0.000 A 
ATOM      2  C   UNL     1      11.667  12.294  60.342  0.00  0.00    +0.000 A 
ATOM      3  C   UNL     1      12.911  12.270  59.721  0.00  0.00    +0.000 A 
ATOM      4  C   UNL     1      10.631  12.867  58.224  0.00  0.00    +0.000 A 
ATOM      5  C   UNL     1      13.020  12.541  58.357  0.00  0.00    +0.000 A 
ATOM      6  C   UNL     1      11.880  12.842  57.610  0.00  0.00    +0.000 A 
ENDROOT
BRANCH   1   7
ATOM      7  S   UNL     1       8.968  12.653  60.364  0.00  0.00    +0.000 S 
ATOM      8  O   UNL     1       8.332  13.876  59.924  0.00  0.00    +0.000 OA
ATOM      9  O   UNL     1       9.149  12.367  61.770  0.00  0.00    +0.000 OA
BRANCH   7  10
ATOM     10  N   UNL     1       8.120  11.396  59.651  0.00  0.00    +0.000 N 
ATOM     11  H   UNL     1       8.368  11.217  58.679  0.00  0.00    +0.000 HD
BRANCH  10  12
ATOM     12  C   UNL     1       7.432  10.396  60.395  0.00  0.00    +0.000 A 
ATOM     13  C   UNL     1       6.279  10.663  61.131  0.00  0.00    +0.000 A 
ATOM     14  C   UNL     1       5.598   9.632  61.774  0.00  0.00    +0.000 A 
ATOM     15  C   UNL     1       6.055   8.322  61.661  0.00  0.00    +0.000 A 
ATOM     16  C   UNL     1       7.185   8.044  60.898  0.00  0.00    +0.000 A 
ATOM     17  C   UNL     1       7.863   9.077  60.257  0.00  0.00    +0.000 A 
ENDBRANCH  10  12
ENDBRANCH   7  10
ENDBRANCH   1   7
BRANCH   3  18
ATOM     18  C   UNL     1      14.078  11.966  60.482  0.00  0.00    +0.000 C 
ATOM     19  C   UNL     1      15.059  11.710  61.126  0.00  0.00    +0.000 C 
BRANCH  19  20
ATOM     20  C   UNL     1      16.237  11.403  61.900  0.00  0.00    +0.000 C 
ATOM     21  O   UNL     1      16.483  12.021  62.929  0.00  0.00    +0.000 OA
ATOM     22  N   UNL     1      17.024  10.396  61.416  0.00  0.00    +0.000 N 
ATOM     23  H   UNL     1      16.805   9.838  60.599  0.00  0.00    +0.000 HD
BRANCH  22  24
ATOM     24  O   UNL     1      18.161  10.035  62.173  0.00  0.00    +0.000 OA
ATOM     25  H   UNL     1      18.902  10.257  61.568  0.00  0.00    +0.000 HD
ENDBRANCH  22  24
ENDBRANCH  19  20
ENDBRANCH   3  18
TORSDOF 6
ENDMDL
MODEL 9
REMARK VINA RESULT:      -3.7     12.546     14.203
REMARK  Name = Belinostat.pdbqt.pdb
REMARK  6 active torsions:
REMARK  status: ('A' for Active; 'I' for Inactive)
REMARK    1  A    between atoms: C_1  and  S_7
REMARK    2  A    between atoms: C_3  and  C_18
REMARK    3  A    between atoms: S_7  and  N_10
REMARK    4  A    between atoms: N_10  and  C_12
REMARK    5  A    between atoms: C_19  and  C_20
REMARK    6  A    between atoms: N_22  and  O_24
REMARK                            x       y       z     vdW  Elec       q    Type
REMARK                         _______ _______ _______ _____ _____    ______ ____
ROOT
ATOM      1  C   UNL     1      17.616   1.709  52.609  0.00  0.00    +0.000 A 
ATOM      2  C   UNL     1      17.978   1.004  53.751  0.00  0.00    +0.000 A 
ATOM      3  C   UNL     1      19.236   1.217  54.305  0.00  0.00    +0.000 A 
ATOM      4  C   UNL     1      18.470   2.642  52.029  0.00  0.00    +0.000 A 
ATOM      5  C   UNL     1      20.110   2.137  53.728  0.00  0.00    +0.000 A 
ATOM      6  C   UNL     1      19.726   2.850  52.591  0.00  0.00    +0.000 A 
ENDROOT
BRANCH   1   7
ATOM      7  S   UNL     1      16.015   1.478  51.924  0.00  0.00    +0.000 S 
ATOM      8  O   UNL     1      16.059   0.258  51.146  0.00  0.00    +0.000 OA
ATOM      9  O   UNL     1      15.592   2.728  51.332  0.00  0.00    +0.000 OA
BRANCH   7  10
ATOM     10  N   UNL     1      15.064   1.151  53.263  0.00  0.00    +0.000 N 
ATOM     11  H   UNL     1      14.614   1.969  53.672  0.00  0.00    +0.000 HD
BRANCH  10  12
ATOM     12  C   UNL     1      14.572  -0.148  53.574  0.00  0.00    +0.000 A 
ATOM     13  C   UNL     1      15.185  -0.985  54.504  0.00  0.00    +0.000 A 
ATOM     14  C   UNL     1      14.616  -2.213  54.832  0.00  0.00    +0.000 A 
ATOM     15  C   UNL     1      13.413  -2.599  54.248  0.00  0.00    +0.000 A 
ATOM     16  C   UNL     1      12.776  -1.752  53.345  0.00  0.00    +0.000 A 
ATOM     17  C   UNL     1      13.348  -0.525  53.020  0.00  0.00    +0.000 A 
ENDBRANCH  10  12
ENDBRANCH   7  10
ENDBRANCH   1   7
BRANCH   3  18
ATOM     18  C   UNL     1      19.631   0.492  55.469  0.00  0.00    +0.000 C 
ATOM     19  C   UNL     1      19.963  -0.116  56.449  0.00  0.00    +0.000 C 
BRANCH  19  20
ATOM     20  C   UNL     1      20.363  -0.845  57.627  0.00  0.00    +0.000 C 
ATOM     21  O   UNL     1      21.513  -1.250  57.748  0.00  0.00    +0.000 OA
ATOM     22  N   UNL     1      19.392  -1.035  58.571  0.00  0.00    +0.000 N 
ATOM     23  H   UNL     1      18.454  -0.657  58.513  0.00  0.00    +0.000 HD
BRANCH  22  24
ATOM     24  O   UNL     1      19.759  -1.703  59.760  0.00  0.00    +0.000 OA
ATOM     25  H   UNL     1      18.895  -1.837  60.207  0.00  0.00    +0.000 HD
ENDBRANCH  22  24
ENDBRANCH  19  20
ENDBRANCH   3  18
TORSDOF 6
ENDMDL
