MODEL 1
REMARK VINA RESULT:      -6.0      0.000      0.000
REMARK  Name = Benzo[a]pyrene.pdbqt.pdb
REMARK  0 active torsions:
REMARK  status: ('A' for Active; 'I' for Inactive)
REMARK                            x       y       z     vdW  Elec       q    Type
REMARK                         _______ _______ _______ _____ _____    ______ ____
ROOT
ATOM      1  C   UNL     1      18.497   0.883  54.278  0.00  0.00    +0.000 A 
ATOM      2  C   UNL     1      19.675   1.651  54.137  0.00  0.00    +0.000 A 
ATOM      3  C   UNL     1      17.408   1.078  53.400  0.00  0.00    +0.000 A 
ATOM      4  C   UNL     1      18.423  -0.079  55.308  0.00  0.00    +0.000 A 
ATOM      5  C   UNL     1      16.239   0.295  53.564  0.00  0.00    +0.000 A 
ATOM      6  C   UNL     1      19.770   2.617  53.116  0.00  0.00    +0.000 A 
ATOM      7  C   UNL     1      20.760   1.452  55.018  0.00  0.00    +0.000 A 
ATOM      8  C   UNL     1      16.185  -0.664  54.601  0.00  0.00    +0.000 A 
ATOM      9  C   UNL     1      17.269  -0.841  55.457  0.00  0.00    +0.000 A 
ATOM     10  C   UNL     1      17.537   2.051  52.393  0.00  0.00    +0.000 A 
ATOM     11  C   UNL     1      19.503  -0.264  56.170  0.00  0.00    +0.000 A 
ATOM     12  C   UNL     1      18.698   2.810  52.250  0.00  0.00    +0.000 A 
ATOM     13  C   UNL     1      20.664   0.495  56.027  0.00  0.00    +0.000 A 
ATOM     14  C   UNL     1      20.937   3.370  52.985  0.00  0.00    +0.000 A 
ATOM     15  C   UNL     1      21.918   2.215  54.869  0.00  0.00    +0.000 A 
ATOM     16  C   UNL     1      15.115   0.428  52.732  0.00  0.00    +0.000 A 
ATOM     17  C   UNL     1      15.045  -1.446  54.781  0.00  0.00    +0.000 A 
ATOM     18  C   UNL     1      22.006   3.170  53.857  0.00  0.00    +0.000 A 
ATOM     19  C   UNL     1      13.978  -0.356  52.917  0.00  0.00    +0.000 A 
ATOM     20  C   UNL     1      13.944  -1.294  53.943  0.00  0.00    +0.000 A 
ENDROOT
TORSDOF 0
ENDMDL
MODEL 2
REMARK VINA RESULT:      -6.0      1.070      3.181
REMARK  Name = Benzo[a]pyrene.pdbqt.pdb
REMARK  0 active torsions:
REMARK  status: ('A' for Active; 'I' for Inactive)
REMARK                            x       y       z     vdW  Elec       q    Type
REMARK                         _______ _______ _______ _____ _____    ______ ____
ROOT
ATOM      1  C   UNL     1      19.278   1.300  54.245  0.00  0.00    +0.000 A 
ATOM      2  C   UNL     1      20.466   2.062  54.185  0.00  0.00    +0.000 A 
ATOM      3  C   UNL     1      19.087   0.355  55.278  0.00  0.00    +0.000 A 
ATOM      4  C   UNL     1      18.286   1.497  53.261  0.00  0.00    +0.000 A 
ATOM      5  C   UNL     1      17.885  -0.395  55.314  0.00  0.00    +0.000 A 
ATOM      6  C   UNL     1      21.470   1.882  55.157  0.00  0.00    +0.000 A 
ATOM      7  C   UNL     1      20.652   3.005  53.152  0.00  0.00    +0.000 A 
ATOM      8  C   UNL     1      16.903  -0.184  54.319  0.00  0.00    +0.000 A 
ATOM      9  C   UNL     1      17.111   0.753  53.310  0.00  0.00    +0.000 A 
ATOM     10  C   UNL     1      20.109   0.201  56.230  0.00  0.00    +0.000 A 
ATOM     11  C   UNL     1      18.484   2.432  52.247  0.00  0.00    +0.000 A 
ATOM     12  C   UNL     1      21.283   0.950  56.175  0.00  0.00    +0.000 A 
ATOM     13  C   UNL     1      19.658   3.181  52.191  0.00  0.00    +0.000 A 
ATOM     14  C   UNL     1      22.640   2.638  55.090  0.00  0.00    +0.000 A 
ATOM     15  C   UNL     1      21.829   3.751  53.102  0.00  0.00    +0.000 A 
ATOM     16  C   UNL     1      17.620  -1.353  56.306  0.00  0.00    +0.000 A 
ATOM     17  C   UNL     1      15.714  -0.910  54.335  0.00  0.00    +0.000 A 
ATOM     18  C   UNL     1      22.819   3.568  54.067  0.00  0.00    +0.000 A 
ATOM     19  C   UNL     1      16.429  -2.076  56.317  0.00  0.00    +0.000 A 
ATOM     20  C   UNL     1      15.475  -1.854  55.330  0.00  0.00    +0.000 A 
ENDROOT
TORSDOF 0
ENDMDL
MODEL 3
REMARK VINA RESULT:      -5.9      0.841      5.439
REMARK  Name = Benzo[a]pyrene.pdbqt.pdb
REMARK  0 active torsions:
REMARK  status: ('A' for Active; 'I' for Inactive)
REMARK                            x       y       z     vdW  Elec       q    Type
REMARK                         _______ _______ _______ _____ _____    ______ ____
ROOT
ATOM      1  C   UNL     1      18.668   0.725  54.558  0.00  0.00    +0.000 A 
ATOM      2  C   UNL     1      17.411   0.081  54.530  0.00  0.00    +0.000 A 
ATOM      3  C   UNL     1      18.984   1.719  53.605  0.00  0.00    +0.000 A 
ATOM      4  C   UNL     1      19.604   0.361  55.550  0.00  0.00    +0.000 A 
ATOM      5  C   UNL     1      20.252   2.348  53.657  0.00  0.00    +0.000 A 
ATOM      6  C   UNL     1      16.462   0.429  53.548  0.00  0.00    +0.000 A 
ATOM      7  C   UNL     1      17.102  -0.911  55.484  0.00  0.00    +0.000 A 
ATOM      8  C   UNL     1      21.176   1.970  54.658  0.00  0.00    +0.000 A 
ATOM      9  C   UNL     1      20.846   0.988  55.588  0.00  0.00    +0.000 A 
ATOM     10  C   UNL     1      18.013   2.041  52.640  0.00  0.00    +0.000 A 
ATOM     11  C   UNL     1      19.284  -0.621  56.486  0.00  0.00    +0.000 A 
ATOM     12  C   UNL     1      16.771   1.408  52.609  0.00  0.00    +0.000 A 
ATOM     13  C   UNL     1      18.042  -1.254  56.454  0.00  0.00    +0.000 A 
ATOM     14  C   UNL     1      15.223  -0.212  53.528  0.00  0.00    +0.000 A 
ATOM     15  C   UNL     1      15.857  -1.540  55.447  0.00  0.00    +0.000 A 
ATOM     16  C   UNL     1      20.641   3.345  52.746  0.00  0.00    +0.000 A 
ATOM     17  C   UNL     1      22.430   2.576  54.727  0.00  0.00    +0.000 A 
ATOM     18  C   UNL     1      14.922  -1.192  54.473  0.00  0.00    +0.000 A 
ATOM     19  C   UNL     1      21.895   3.947  52.821  0.00  0.00    +0.000 A 
ATOM     20  C   UNL     1      22.790   3.562  53.812  0.00  0.00    +0.000 A 
ENDROOT
TORSDOF 0
ENDMDL
MODEL 4
REMARK VINA RESULT:      -5.8      1.402      3.099
REMARK  Name = Benzo[a]pyrene.pdbqt.pdb
REMARK  0 active torsions:
REMARK  status: ('A' for Active; 'I' for Inactive)
REMARK                            x       y       z     vdW  Elec       q    Type
REMARK                         _______ _______ _______ _____ _____    ______ ____
ROOT
ATOM      1  C   UNL     1      18.422   1.255  53.708  0.00  0.00    +0.000 A 
ATOM      2  C   UNL     1      19.517   1.130  54.591  0.00  0.00    +0.000 A 
ATOM      3  C   UNL     1      18.468   2.177  52.637  0.00  0.00    +0.000 A 
ATOM      4  C   UNL     1      17.281   0.449  53.909  0.00  0.00    +0.000 A 
ATOM      5  C   UNL     1      17.356   2.281  51.767  0.00  0.00    +0.000 A 
ATOM      6  C   UNL     1      20.666   1.926  54.409  0.00  0.00    +0.000 A 
ATOM      7  C   UNL     1      19.465   0.209  55.658  0.00  0.00    +0.000 A 
ATOM      8  C   UNL     1      16.223   1.464  51.985  0.00  0.00    +0.000 A 
ATOM      9  C   UNL     1      16.196   0.562  53.046  0.00  0.00    +0.000 A 
ATOM     10  C   UNL     1      19.629   2.954  52.485  0.00  0.00    +0.000 A 
ATOM     11  C   UNL     1      17.245  -0.457  54.968  0.00  0.00    +0.000 A 
ATOM     12  C   UNL     1      20.713   2.834  53.354  0.00  0.00    +0.000 A 
ATOM     13  C   UNL     1      18.328  -0.577  55.837  0.00  0.00    +0.000 A 
ATOM     14  C   UNL     1      21.742   1.796  55.286  0.00  0.00    +0.000 A 
ATOM     15  C   UNL     1      20.552   0.094  56.524  0.00  0.00    +0.000 A 
ATOM     16  C   UNL     1      17.324   3.172  50.680  0.00  0.00    +0.000 A 
ATOM     17  C   UNL     1      15.116   1.550  51.141  0.00  0.00    +0.000 A 
ATOM     18  C   UNL     1      21.686   0.884  56.339  0.00  0.00    +0.000 A 
ATOM     19  C   UNL     1      16.216   3.253  49.840  0.00  0.00    +0.000 A 
ATOM     20  C   UNL     1      15.112   2.442  50.071  0.00  0.00    +0.000 A 
ENDROOT
TORSDOF 0
ENDMDL
MODEL 5
REMARK VINA RESULT:      -5.8      1.386      4.663
REMARK  Name = Benzo[a]pyrene.pdbqt.pdb
REMARK  0 active torsions:
REMARK  status: ('A' for Active; 'I' for Inactive)
REMARK                            x       y       z     vdW  Elec       q    Type
REMARK                         _______ _______ _______ _____ _____    ______ ____
ROOT
ATOM      1  C   UNL     1      18.327   1.727  53.187  0.00  0.00    +0.000 A 
ATOM      2  C   UNL     1      17.640   2.292  52.090  0.00  0.00    +0.000 A 
ATOM      3  C   UNL     1      17.710   0.735  53.982  0.00  0.00    +0.000 A 
ATOM      4  C   UNL     1      19.635   2.167  53.479  0.00  0.00    +0.000 A 
ATOM      5  C   UNL     1      18.422   0.186  55.077  0.00  0.00    +0.000 A 
ATOM      6  C   UNL     1      16.332   1.868  51.780  0.00  0.00    +0.000 A 
ATOM      7  C   UNL     1      18.261   3.283  51.299  0.00  0.00    +0.000 A 
ATOM      8  C   UNL     1      19.732   0.640  55.353  0.00  0.00    +0.000 A 
ATOM      9  C   UNL     1      20.322   1.618  54.558  0.00  0.00    +0.000 A 
ATOM     10  C   UNL     1      16.405   0.335  53.645  0.00  0.00    +0.000 A 
ATOM     11  C   UNL     1      20.235   3.146  52.689  0.00  0.00    +0.000 A 
ATOM     12  C   UNL     1      15.724   0.890  52.563  0.00  0.00    +0.000 A 
ATOM     13  C   UNL     1      19.554   3.701  51.607  0.00  0.00    +0.000 A 
ATOM     14  C   UNL     1      15.662   2.431  50.695  0.00  0.00    +0.000 A 
ATOM     15  C   UNL     1      17.574   3.834  50.218  0.00  0.00    +0.000 A 
ATOM     16  C   UNL     1      17.879  -0.804  55.914  0.00  0.00    +0.000 A 
ATOM     17  C   UNL     1      20.451   0.113  56.425  0.00  0.00    +0.000 A 
ATOM     18  C   UNL     1      16.280   3.410  49.917  0.00  0.00    +0.000 A 
ATOM     19  C   UNL     1      18.602  -1.326  56.984  0.00  0.00    +0.000 A 
ATOM     20  C   UNL     1      19.889  -0.867  57.239  0.00  0.00    +0.000 A 
ENDROOT
TORSDOF 0
ENDMDL
MODEL 6
REMARK VINA RESULT:      -5.8     22.064     23.524
REMARK  Name = Benzo[a]pyrene.pdbqt.pdb
REMARK  0 active torsions:
REMARK  status: ('A' for Active; 'I' for Inactive)
REMARK                            x       y       z     vdW  Elec       q    Type
REMARK                         _______ _______ _______ _____ _____    ______ ____
ROOT
ATOM      1  C   UNL     1       9.990   1.782  75.719  0.00  0.00    +0.000 A 
ATOM      2  C   UNL     1      10.844   2.905  75.664  0.00  0.00    +0.000 A 
ATOM      3  C   UNL     1       8.791   1.831  76.466  0.00  0.00    +0.000 A 
ATOM      4  C   UNL     1      10.349   0.611  75.018  0.00  0.00    +0.000 A 
ATOM      5  C   UNL     1       7.953   0.689  76.503  0.00  0.00    +0.000 A 
ATOM      6  C   UNL     1      10.505   4.085  76.357  0.00  0.00    +0.000 A 
ATOM      7  C   UNL     1      12.039   2.851  74.917  0.00  0.00    +0.000 A 
ATOM      8  C   UNL     1       8.331  -0.474  75.794  0.00  0.00    +0.000 A 
ATOM      9  C   UNL     1       9.516  -0.502  75.064  0.00  0.00    +0.000 A 
ATOM     10  C   UNL     1       8.484   3.023  77.144  0.00  0.00    +0.000 A 
ATOM     11  C   UNL     1      11.533   0.572  74.284  0.00  0.00    +0.000 A 
ATOM     12  C   UNL     1       9.324   4.134  77.093  0.00  0.00    +0.000 A 
ATOM     13  C   UNL     1      12.374   1.683  74.233  0.00  0.00    +0.000 A 
ATOM     14  C   UNL     1      11.354   5.189  76.297  0.00  0.00    +0.000 A 
ATOM     15  C   UNL     1      12.876   3.966  74.870  0.00  0.00    +0.000 A 
ATOM     16  C   UNL     1       6.747   0.658  77.223  0.00  0.00    +0.000 A 
ATOM     17  C   UNL     1       7.521  -1.609  75.817  0.00  0.00    +0.000 A 
ATOM     18  C   UNL     1      12.534   5.130  75.557  0.00  0.00    +0.000 A 
ATOM     19  C   UNL     1       5.942  -0.479  77.242  0.00  0.00    +0.000 A 
ATOM     20  C   UNL     1       6.330  -1.613  76.538  0.00  0.00    +0.000 A 
ENDROOT
TORSDOF 0
ENDMDL
MODEL 7
REMARK VINA RESULT:      -5.7     22.065     23.543
REMARK  Name = Benzo[a]pyrene.pdbqt.pdb
REMARK  0 active torsions:
REMARK  status: ('A' for Active; 'I' for Inactive)
REMARK                            x       y       z     vdW  Elec       q    Type
REMARK                         _______ _______ _______ _____ _____    ______ ____
ROOT
ATOM      1  C   UNL     1       9.737   1.988  75.956  0.00  0.00    +0.000 A 
ATOM      2  C   UNL     1      10.880   2.714  75.553  0.00  0.00    +0.000 A 
ATOM      3  C   UNL     1       9.555   0.651  75.534  0.00  0.00    +0.000 A 
ATOM      4  C   UNL     1       8.781   2.614  76.783  0.00  0.00    +0.000 A 
ATOM      5  C   UNL     1       8.400  -0.054  75.954  0.00  0.00    +0.000 A 
ATOM      6  C   UNL     1      11.847   2.108  74.726  0.00  0.00    +0.000 A 
ATOM      7  C   UNL     1      11.056   4.049  75.976  0.00  0.00    +0.000 A 
ATOM      8  C   UNL     1       7.454   0.591  76.783  0.00  0.00    +0.000 A 
ATOM      9  C   UNL     1       7.652   1.909  77.186  0.00  0.00    +0.000 A 
ATOM     10  C   UNL     1      10.540   0.078  74.711  0.00  0.00    +0.000 A 
ATOM     11  C   UNL     1       8.969   3.933  77.193  0.00  0.00    +0.000 A 
ATOM     12  C   UNL     1      11.669   0.792  74.311  0.00  0.00    +0.000 A 
ATOM     13  C   UNL     1      10.098   4.646  76.793  0.00  0.00    +0.000 A 
ATOM     14  C   UNL     1      12.972   2.834  74.334  0.00  0.00    +0.000 A 
ATOM     15  C   UNL     1      12.188   4.757  75.572  0.00  0.00    +0.000 A 
ATOM     16  C   UNL     1       8.147  -1.384  75.578  0.00  0.00    +0.000 A 
ATOM     17  C   UNL     1       6.310  -0.084  77.207  0.00  0.00    +0.000 A 
ATOM     18  C   UNL     1      13.141   4.152  74.755  0.00  0.00    +0.000 A 
ATOM     19  C   UNL     1       7.002  -2.053  76.005  0.00  0.00    +0.000 A 
ATOM     20  C   UNL     1       6.084  -1.403  76.820  0.00  0.00    +0.000 A 
ENDROOT
TORSDOF 0
ENDMDL
MODEL 8
REMARK VINA RESULT:      -5.6     21.840     23.740
REMARK  Name = Benzo[a]pyrene.pdbqt.pdb
REMARK  0 active torsions:
REMARK  status: ('A' for Active; 'I' for Inactive)
REMARK                            x       y       z     vdW  Elec       q    Type
REMARK                         _______ _______ _______ _____ _____    ______ ____
ROOT
ATOM      1  C   UNL     1      10.642   2.675  75.670  0.00  0.00    +0.000 A 
ATOM      2  C   UNL     1       9.651   1.685  75.856  0.00  0.00    +0.000 A 
ATOM      3  C   UNL     1      10.491   3.955  76.249  0.00  0.00    +0.000 A 
ATOM      4  C   UNL     1      11.783   2.368  74.899  0.00  0.00    +0.000 A 
ATOM      5  C   UNL     1      11.500   4.929  76.046  0.00  0.00    +0.000 A 
ATOM      6  C   UNL     1       8.504   1.970  76.623  0.00  0.00    +0.000 A 
ATOM      7  C   UNL     1       9.807   0.409  75.276  0.00  0.00    +0.000 A 
ATOM      8  C   UNL     1      12.636   4.601  75.270  0.00  0.00    +0.000 A 
ATOM      9  C   UNL     1      12.766   3.334  74.708  0.00  0.00    +0.000 A 
ATOM     10  C   UNL     1       9.334   4.205  77.007  0.00  0.00    +0.000 A 
ATOM     11  C   UNL     1      11.923   1.102  74.332  0.00  0.00    +0.000 A 
ATOM     12  C   UNL     1       8.354   3.231  77.193  0.00  0.00    +0.000 A 
ATOM     13  C   UNL     1      10.943   0.128  74.518  0.00  0.00    +0.000 A 
ATOM     14  C   UNL     1       7.531   0.987  76.801  0.00  0.00    +0.000 A 
ATOM     15  C   UNL     1       8.823  -0.561  75.467  0.00  0.00    +0.000 A 
ATOM     16  C   UNL     1      11.424   6.223  76.587  0.00  0.00    +0.000 A 
ATOM     17  C   UNL     1      13.641   5.544  75.057  0.00  0.00    +0.000 A 
ATOM     18  C   UNL     1       7.690  -0.273  76.226  0.00  0.00    +0.000 A 
ATOM     19  C   UNL     1      12.432   7.160  76.371  0.00  0.00    +0.000 A 
ATOM     20  C   UNL     1      13.541   6.820  75.605  0.00  0.00    +0.000 A 
ENDROOT
TORSDOF 0
ENDMDL
MODEL 9
REMARK VINA RESULT:      -5.6     21.892     23.881
REMARK  Name = Benzo[a]pyrene.pdbqt.pdb
REMARK  0 active torsions:
REMARK  status: ('A' for Active; 'I' for Inactive)
REMARK                            x       y       z     vdW  Elec       q    Type
REMARK                         _______ _______ _______ _____ _____    ______ ____
ROOT
ATOM      1  C   UNL     1      10.058   1.881  75.741  0.00  0.00    +0.000 A 
ATOM      2  C   UNL     1       8.916   1.140  76.116  0.00  0.00    +0.000 A 
ATOM      3  C   UNL     1      10.217   3.217  76.174  0.00  0.00    +0.000 A 
ATOM      4  C   UNL     1      11.038   1.270  74.930  0.00  0.00    +0.000 A 
ATOM      5  C   UNL     1      11.373   3.937  75.783  0.00  0.00    +0.000 A 
ATOM      6  C   UNL     1       7.925   1.731  76.926  0.00  0.00    +0.000 A 
ATOM      7  C   UNL     1       8.762  -0.193  75.682  0.00  0.00    +0.000 A 
ATOM      8  C   UNL     1      12.343   3.307  74.970  0.00  0.00    +0.000 A 
ATOM      9  C   UNL     1      12.167   1.990  74.554  0.00  0.00    +0.000 A 
ATOM     10  C   UNL     1       9.210   3.774  76.981  0.00  0.00    +0.000 A 
ATOM     11  C   UNL     1      10.872  -0.048  74.508  0.00  0.00    +0.000 A 
ATOM     12  C   UNL     1       8.081   3.046  77.353  0.00  0.00    +0.000 A 
ATOM     13  C   UNL     1       9.743  -0.776  74.880  0.00  0.00    +0.000 A 
ATOM     14  C   UNL     1       6.801   0.991  77.291  0.00  0.00    +0.000 A 
ATOM     15  C   UNL     1       7.630  -0.916  76.058  0.00  0.00    +0.000 A 
ATOM     16  C   UNL     1      11.605   5.267  76.171  0.00  0.00    +0.000 A 
ATOM     17  C   UNL     1      13.488   3.996  74.573  0.00  0.00    +0.000 A 
ATOM     18  C   UNL     1       6.654  -0.326  76.859  0.00  0.00    +0.000 A 
ATOM     19  C   UNL     1      12.751   5.951  75.772  0.00  0.00    +0.000 A 
ATOM     20  C   UNL     1      13.693   5.315  74.972  0.00  0.00    +0.000 A 
ENDROOT
TORSDOF 0
ENDMDL
