MODEL 1
REMARK VINA RESULT:      -4.5      0.000      0.000
REMARK  Name = Bicalutamide.pdbqt.pdb
REMARK  8 active torsions:
REMARK  status: ('A' for Active; 'I' for Inactive)
REMARK    1  A    between atoms: C_2  and  N_13
REMARK    2  A    between atoms: C_5  and  C_9
REMARK    3  A    between atoms: C_6  and  C_8
REMARK    4  A    between atoms: C_14  and  C_17
REMARK    5  A    between atoms: C_17  and  O_19
REMARK    6  A    between atoms: C_17  and  C_21
REMARK    7  A    between atoms: C_21  and  S_22
REMARK    8  A    between atoms: S_22  and  C_25
REMARK                            x       y       z     vdW  Elec       q    Type
REMARK                         _______ _______ _______ _____ _____    ______ ____
ROOT
ATOM      1  N   UNL     1       8.895  11.598  61.807  0.00  0.00    +0.000 N 
ATOM      2  C   UNL     1       7.739  12.220  62.272  0.00  0.00    +0.000 C 
ATOM      3  O   UNL     1       7.615  13.437  62.440  0.00  0.00    +0.000 OA
ATOM      4  H   UNL     1       8.829  10.597  61.617  0.00  0.00    +0.000 HD
ENDROOT
BRANCH   1   5
ATOM      5  C   UNL     1      10.107  12.235  61.498  0.00  0.00    +0.000 A 
ATOM      6  C   UNL     1      10.515  12.246  60.165  0.00  0.00    +0.000 A 
ATOM      7  C   UNL     1      10.912  12.838  62.460  0.00  0.00    +0.000 A 
ATOM      8  C   UNL     1      11.715  12.852  59.776  0.00  0.00    +0.000 A 
ATOM      9  C   UNL     1      12.516  13.458  60.756  0.00  0.00    +0.000 A 
ATOM     10  C   UNL     1      12.110  13.446  62.092  0.00  0.00    +0.000 A 
BRANCH   8  11
ATOM     11  C   UNL     1      12.107  12.835  58.327  0.00  0.00    +0.000 C 
ATOM     12  F   UNL     1      12.524  14.047  57.869  0.00  0.00    +0.000 F 
ATOM     13  F   UNL     1      13.127  11.972  58.078  0.00  0.00    +0.000 F 
ATOM     14  F   UNL     1      11.080  12.465  57.517  0.00  0.00    +0.000 F 
ENDBRANCH   8  11
BRANCH   9  16
ATOM     15  N   UNL     1      14.765  14.618  60.198  0.00  0.00    +0.000 NA
ATOM     16  C   UNL     1      13.757  14.098  60.440  0.00  0.00    +0.000 C 
ENDBRANCH   9  16
ENDBRANCH   1   5
BRANCH   2  17
ATOM     17  C   UNL     1       6.546  11.244  62.633  0.00  0.00    +0.000 C 
ATOM     18  C   UNL     1       5.205  12.017  62.776  0.00  0.00    +0.000 C 
BRANCH  17  19
ATOM     19  O   UNL     1       6.794  10.604  63.875  0.00  0.00    +0.000 OA
ATOM     20  H   UNL     1       6.423  11.210  64.544  0.00  0.00    +0.000 HD
ENDBRANCH  17  19
BRANCH  17  21
ATOM     21  C   UNL     1       6.460  10.250  61.608  0.00  0.00    +0.000 C 
BRANCH  21  22
ATOM     22  S   UNL     1       6.563   9.112  60.315  0.00  0.00    +0.000 S 
ATOM     23  O   UNL     1       7.993   9.138  60.142  0.00  0.00    +0.000 OA
ATOM     24  O   UNL     1       5.600   9.753  59.453  0.00  0.00    +0.000 OA
BRANCH  22  25
ATOM     25  C   UNL     1       6.007   7.569  60.868  0.00  0.00    +0.000 A 
ATOM     26  C   UNL     1       5.971   6.520  59.955  0.00  0.00    +0.000 A 
ATOM     27  C   UNL     1       5.506   5.275  60.370  0.00  0.00    +0.000 A 
ATOM     28  C   UNL     1       5.082   5.106  61.685  0.00  0.00    +0.000 A 
ATOM     29  F   UNL     1       4.635   3.908  62.084  0.00  0.00    +0.000 F 
ATOM     30  C   UNL     1       5.113   6.161  62.594  0.00  0.00    +0.000 A 
ATOM     31  C   UNL     1       5.577   7.406  62.181  0.00  0.00    +0.000 A 
ENDBRANCH  22  25
ENDBRANCH  21  22
ENDBRANCH  17  21
ENDBRANCH   2  17
TORSDOF 8
ENDMDL
MODEL 2
REMARK VINA RESULT:      -4.5     11.798     13.377
REMARK  Name = Bicalutamide.pdbqt.pdb
REMARK  8 active torsions:
REMARK  status: ('A' for Active; 'I' for Inactive)
REMARK    1  A    between atoms: C_2  and  N_13
REMARK    2  A    between atoms: C_5  and  C_9
REMARK    3  A    between atoms: C_6  and  C_8
REMARK    4  A    between atoms: C_14  and  C_17
REMARK    5  A    between atoms: C_17  and  O_19
REMARK    6  A    between atoms: C_17  and  C_21
REMARK    7  A    between atoms: C_21  and  S_22
REMARK    8  A    between atoms: S_22  and  C_25
REMARK                            x       y       z     vdW  Elec       q    Type
REMARK                         _______ _______ _______ _____ _____    ______ ____
ROOT
ATOM      1  N   UNL     1      14.845   8.192  69.974  0.00  0.00    +0.000 N 
ATOM      2  C   UNL     1      14.857   7.444  68.799  0.00  0.00    +0.000 C 
ATOM      3  O   UNL     1      14.142   7.669  67.817  0.00  0.00    +0.000 OA
ATOM      4  H   UNL     1      15.557   7.960  70.668  0.00  0.00    +0.000 HD
ENDROOT
BRANCH   1   5
ATOM      5  C   UNL     1      14.002   9.280  70.251  0.00  0.00    +0.000 A 
ATOM      6  C   UNL     1      13.060   9.130  71.269  0.00  0.00    +0.000 A 
ATOM      7  C   UNL     1      14.061  10.481  69.551  0.00  0.00    +0.000 A 
ATOM      8  C   UNL     1      12.177  10.164  71.600  0.00  0.00    +0.000 A 
ATOM      9  C   UNL     1      12.249  11.371  70.888  0.00  0.00    +0.000 A 
ATOM     10  C   UNL     1      13.190  11.521  69.867  0.00  0.00    +0.000 A 
BRANCH   8  11
ATOM     11  C   UNL     1      11.184   9.950  72.704  0.00  0.00    +0.000 C 
ATOM     12  F   UNL     1       9.891  10.098  72.300  0.00  0.00    +0.000 F 
ATOM     13  F   UNL     1      11.265   8.702  73.238  0.00  0.00    +0.000 F 
ATOM     14  F   UNL     1      11.353  10.823  73.732  0.00  0.00    +0.000 F 
ENDBRANCH   8  11
BRANCH   9  16
ATOM     15  N   UNL     1      10.691  13.377  71.399  0.00  0.00    +0.000 NA
ATOM     16  C   UNL     1      11.382  12.475  71.166  0.00  0.00    +0.000 C 
ENDBRANCH   9  16
ENDBRANCH   1   5
BRANCH   2  17
ATOM     17  C   UNL     1      15.845   6.208  68.795  0.00  0.00    +0.000 C 
ATOM     18  C   UNL     1      17.329   6.670  68.824  0.00  0.00    +0.000 C 
BRANCH  17  19
ATOM     19  O   UNL     1      15.668   5.441  67.616  0.00  0.00    +0.000 OA
ATOM     20  H   UNL     1      14.700   5.346  67.526  0.00  0.00    +0.000 HD
ENDBRANCH  17  19
BRANCH  17  21
ATOM     21  C   UNL     1      15.539   5.392  69.930  0.00  0.00    +0.000 C 
BRANCH  21  22
ATOM     22  S   UNL     1      15.375   4.460  71.372  0.00  0.00    +0.000 S 
ATOM     23  O   UNL     1      16.775   4.226  71.617  0.00  0.00    +0.000 OA
ATOM     24  O   UNL     1      14.441   3.496  70.842  0.00  0.00    +0.000 OA
BRANCH  22  25
ATOM     25  C   UNL     1      14.658   5.441  72.606  0.00  0.00    +0.000 A 
ATOM     26  C   UNL     1      15.369   6.547  73.060  0.00  0.00    +0.000 A 
ATOM     27  C   UNL     1      14.824   7.337  74.068  0.00  0.00    +0.000 A 
ATOM     28  C   UNL     1      13.584   7.003  74.604  0.00  0.00    +0.000 A 
ATOM     29  F   UNL     1      13.060   7.764  75.575  0.00  0.00    +0.000 F 
ATOM     30  C   UNL     1      12.879   5.891  74.152  0.00  0.00    +0.000 A 
ATOM     31  C   UNL     1      13.422   5.099  73.145  0.00  0.00    +0.000 A 
ENDBRANCH  22  25
ENDBRANCH  21  22
ENDBRANCH  17  21
ENDBRANCH   2  17
TORSDOF 8
ENDMDL
MODEL 3
REMARK VINA RESULT:      -4.4     13.717     15.170
REMARK  Name = Bicalutamide.pdbqt.pdb
REMARK  8 active torsions:
REMARK  status: ('A' for Active; 'I' for Inactive)
REMARK    1  A    between atoms: C_2  and  N_13
REMARK    2  A    between atoms: C_5  and  C_9
REMARK    3  A    between atoms: C_6  and  C_8
REMARK    4  A    between atoms: C_14  and  C_17
REMARK    5  A    between atoms: C_17  and  O_19
REMARK    6  A    between atoms: C_17  and  C_21
REMARK    7  A    between atoms: C_21  and  S_22
REMARK    8  A    between atoms: S_22  and  C_25
REMARK                            x       y       z     vdW  Elec       q    Type
REMARK                         _______ _______ _______ _____ _____    ______ ____
ROOT
ATOM      1  N   UNL     1      17.096   0.014  54.061  0.00  0.00    +0.000 N 
ATOM      2  C   UNL     1      15.917   0.622  53.638  0.00  0.00    +0.000 C 
ATOM      3  O   UNL     1      15.821   1.804  53.291  0.00  0.00    +0.000 OA
ATOM      4  H   UNL     1      17.057  -0.993  54.222  0.00  0.00    +0.000 HD
ENDROOT
BRANCH   1   5
ATOM      5  C   UNL     1      18.344   0.643  54.202  0.00  0.00    +0.000 A 
ATOM      6  C   UNL     1      19.100   0.341  55.334  0.00  0.00    +0.000 A 
ATOM      7  C   UNL     1      18.842   1.553  53.275  0.00  0.00    +0.000 A 
ATOM      8  C   UNL     1      20.349   0.932  55.553  0.00  0.00    +0.000 A 
ATOM      9  C   UNL     1      20.841   1.847  54.609  0.00  0.00    +0.000 A 
ATOM     10  C   UNL     1      20.083   2.152  53.477  0.00  0.00    +0.000 A 
BRANCH   8  11
ATOM     11  C   UNL     1      21.121   0.571  56.788  0.00  0.00    +0.000 C 
ATOM     12  F   UNL     1      22.233  -0.172  56.529  0.00  0.00    +0.000 F 
ATOM     13  F   UNL     1      21.557   1.666  57.465  0.00  0.00    +0.000 F 
ATOM     14  F   UNL     1      20.384  -0.160  57.666  0.00  0.00    +0.000 F 
ENDBRANCH   8  11
BRANCH   9  16
ATOM     15  N   UNL     1      23.130   3.026  54.893  0.00  0.00    +0.000 NA
ATOM     16  C   UNL     1      22.109   2.493  54.761  0.00  0.00    +0.000 C 
ENDBRANCH   9  16
ENDBRANCH   1   5
BRANCH   2  17
ATOM     17  C   UNL     1      14.633  -0.304  53.666  0.00  0.00    +0.000 C 
ATOM     18  C   UNL     1      14.367  -0.944  52.274  0.00  0.00    +0.000 C 
BRANCH  17  19
ATOM     19  O   UNL     1      13.485   0.458  54.003  0.00  0.00    +0.000 OA
ATOM     20  H   UNL     1      13.832   1.217  54.509  0.00  0.00    +0.000 HD
ENDBRANCH  17  19
BRANCH  17  21
ATOM     21  C   UNL     1      14.832  -1.309  54.664  0.00  0.00    +0.000 C 
BRANCH  21  22
ATOM     22  S   UNL     1      15.291  -2.494  55.831  0.00  0.00    +0.000 S 
ATOM     23  O   UNL     1      16.692  -2.565  55.501  0.00  0.00    +0.000 OA
ATOM     24  O   UNL     1      14.293  -3.473  55.475  0.00  0.00    +0.000 OA
BRANCH  22  25
ATOM     25  C   UNL     1      15.033  -1.859  57.421  0.00  0.00    +0.000 A 
ATOM     26  C   UNL     1      13.739  -1.500  57.782  0.00  0.00    +0.000 A 
ATOM     27  C   UNL     1      13.510  -0.966  59.047  0.00  0.00    +0.000 A 
ATOM     28  C   UNL     1      14.579  -0.797  59.922  0.00  0.00    +0.000 A 
ATOM     29  F   UNL     1      14.358  -0.283  61.139  0.00  0.00    +0.000 F 
ATOM     30  C   UNL     1      15.875  -1.152  59.554  0.00  0.00    +0.000 A 
ATOM     31  C   UNL     1      16.106  -1.685  58.290  0.00  0.00    +0.000 A 
ENDBRANCH  22  25
ENDBRANCH  21  22
ENDBRANCH  17  21
ENDBRANCH   2  17
TORSDOF 8
ENDMDL
MODEL 4
REMARK VINA RESULT:      -4.4      6.462      8.754
REMARK  Name = Bicalutamide.pdbqt.pdb
REMARK  8 active torsions:
REMARK  status: ('A' for Active; 'I' for Inactive)
REMARK    1  A    between atoms: C_2  and  N_13
REMARK    2  A    between atoms: C_5  and  C_9
REMARK    3  A    between atoms: C_6  and  C_8
REMARK    4  A    between atoms: C_14  and  C_17
REMARK    5  A    between atoms: C_17  and  O_19
REMARK    6  A    between atoms: C_17  and  C_21
REMARK    7  A    between atoms: C_21  and  S_22
REMARK    8  A    between atoms: S_22  and  C_25
REMARK                            x       y       z     vdW  Elec       q    Type
REMARK                         _______ _______ _______ _____ _____    ______ ____
ROOT
ATOM      1  N   UNL     1       3.443   5.393  64.348  0.00  0.00    +0.000 N 
ATOM      2  C   UNL     1       2.189   5.913  64.659  0.00  0.00    +0.000 C 
ATOM      3  O   UNL     1       1.480   6.553  63.875  0.00  0.00    +0.000 OA
ATOM      4  H   UNL     1       3.877   4.798  65.055  0.00  0.00    +0.000 HD
ENDROOT
BRANCH   1   5
ATOM      5  C   UNL     1       4.119   5.544  63.127  0.00  0.00    +0.000 A 
ATOM      6  C   UNL     1       4.853   6.714  62.931  0.00  0.00    +0.000 A 
ATOM      7  C   UNL     1       4.075   4.592  62.114  0.00  0.00    +0.000 A 
ATOM      8  C   UNL     1       5.548   6.944  61.738  0.00  0.00    +0.000 A 
ATOM      9  C   UNL     1       5.497   5.974  60.726  0.00  0.00    +0.000 A 
ATOM     10  C   UNL     1       4.760   4.805  60.920  0.00  0.00    +0.000 A 
BRANCH   8  11
ATOM     11  C   UNL     1       6.324   8.220  61.580  0.00  0.00    +0.000 C 
ATOM     12  F   UNL     1       5.791   9.061  60.651  0.00  0.00    +0.000 F 
ATOM     13  F   UNL     1       6.385   8.934  62.735  0.00  0.00    +0.000 F 
ATOM     14  F   UNL     1       7.607   8.002  61.190  0.00  0.00    +0.000 F 
ENDBRANCH   8  11
BRANCH   9  16
ATOM     15  N   UNL     1       6.720   6.269  58.461  0.00  0.00    +0.000 NA
ATOM     16  C   UNL     1       6.180   6.136  59.478  0.00  0.00    +0.000 C 
ENDBRANCH   9  16
ENDBRANCH   1   5
BRANCH   2  17
ATOM     17  C   UNL     1       1.708   5.672  66.147  0.00  0.00    +0.000 C 
ATOM     18  C   UNL     1       0.246   6.158  66.355  0.00  0.00    +0.000 C 
BRANCH  17  19
ATOM     19  O   UNL     1       2.524   6.399  67.051  0.00  0.00    +0.000 OA
ATOM     20  H   UNL     1       1.928   6.630  67.790  0.00  0.00    +0.000 HD
ENDBRANCH  17  19
BRANCH  17  21
ATOM     21  C   UNL     1       1.830   4.275  66.432  0.00  0.00    +0.000 C 
BRANCH  21  22
ATOM     22  S   UNL     1       2.060   2.571  66.569  0.00  0.00    +0.000 S 
ATOM     23  O   UNL     1       0.672   2.183  66.566  0.00  0.00    +0.000 OA
ATOM     24  O   UNL     1       2.918   2.611  67.727  0.00  0.00    +0.000 OA
BRANCH  22  25
ATOM     25  C   UNL     1       2.895   1.994  65.166  0.00  0.00    +0.000 A 
ATOM     26  C   UNL     1       2.136   1.539  64.093  0.00  0.00    +0.000 A 
ATOM     27  C   UNL     1       2.785   1.048  62.963  0.00  0.00    +0.000 A 
ATOM     28  C   UNL     1       4.177   1.018  62.932  0.00  0.00    +0.000 A 
ATOM     29  F   UNL     1       4.800   0.546  61.844  0.00  0.00    +0.000 F 
ATOM     30  C   UNL     1       4.932   1.468  64.012  0.00  0.00    +0.000 A 
ATOM     31  C   UNL     1       4.286   1.958  65.142  0.00  0.00    +0.000 A 
ENDBRANCH  22  25
ENDBRANCH  21  22
ENDBRANCH  17  21
ENDBRANCH   2  17
TORSDOF 8
ENDMDL
MODEL 5
REMARK VINA RESULT:      -4.3     16.351     18.045
REMARK  Name = Bicalutamide.pdbqt.pdb
REMARK  8 active torsions:
REMARK  status: ('A' for Active; 'I' for Inactive)
REMARK    1  A    between atoms: C_2  and  N_13
REMARK    2  A    between atoms: C_5  and  C_9
REMARK    3  A    between atoms: C_6  and  C_8
REMARK    4  A    between atoms: C_14  and  C_17
REMARK    5  A    between atoms: C_17  and  O_19
REMARK    6  A    between atoms: C_17  and  C_21
REMARK    7  A    between atoms: C_21  and  S_22
REMARK    8  A    between atoms: S_22  and  C_25
REMARK                            x       y       z     vdW  Elec       q    Type
REMARK                         _______ _______ _______ _____ _____    ______ ____
ROOT
ATOM      1  N   UNL     1       6.913   3.003  77.293  0.00  0.00    +0.000 N 
ATOM      2  C   UNL     1       6.558   3.000  78.640  0.00  0.00    +0.000 C 
ATOM      3  O   UNL     1       7.291   2.617  79.558  0.00  0.00    +0.000 OA
ATOM      4  H   UNL     1       6.251   3.441  76.650  0.00  0.00    +0.000 HD
ENDROOT
BRANCH   1   5
ATOM      5  C   UNL     1       8.124   2.538  76.758  0.00  0.00    +0.000 A 
ATOM      6  C   UNL     1       9.170   3.451  76.628  0.00  0.00    +0.000 A 
ATOM      7  C   UNL     1       8.315   1.223  76.345  0.00  0.00    +0.000 A 
ATOM      8  C   UNL     1      10.407   3.069  76.095  0.00  0.00    +0.000 A 
ATOM      9  C   UNL     1      10.586   1.739  75.685  0.00  0.00    +0.000 A 
ATOM     10  C   UNL     1       9.538   0.825  75.812  0.00  0.00    +0.000 A 
BRANCH   8  11
ATOM     11  C   UNL     1      11.499   4.092  75.978  0.00  0.00    +0.000 C 
ATOM     12  F   UNL     1      12.033   4.168  74.727  0.00  0.00    +0.000 F 
ATOM     13  F   UNL     1      11.066   5.346  76.272  0.00  0.00    +0.000 F 
ATOM     14  F   UNL     1      12.541   3.836  76.811  0.00  0.00    +0.000 F 
ENDBRANCH   8  11
BRANCH   9  16
ATOM     15  N   UNL     1      12.816   0.878  74.687  0.00  0.00    +0.000 NA
ATOM     16  C   UNL     1      11.819   1.270  75.130  0.00  0.00    +0.000 C 
ENDBRANCH   9  16
ENDBRANCH   1   5
BRANCH   2  17
ATOM     17  C   UNL     1       5.087   3.493  78.952  0.00  0.00    +0.000 C 
ATOM     18  C   UNL     1       5.016   4.228  80.321  0.00  0.00    +0.000 C 
BRANCH  17  19
ATOM     19  O   UNL     1       4.203   2.387  79.025  0.00  0.00    +0.000 OA
ATOM     20  H   UNL     1       3.782   2.349  78.145  0.00  0.00    +0.000 HD
ENDBRANCH  17  19
BRANCH  17  21
ATOM     21  C   UNL     1       4.671   4.351  77.886  0.00  0.00    +0.000 C 
BRANCH  21  22
ATOM     22  S   UNL     1       4.375   5.357  76.516  0.00  0.00    +0.000 S 
ATOM     23  O   UNL     1       3.048   5.792  76.874  0.00  0.00    +0.000 OA
ATOM     24  O   UNL     1       4.694   4.370  75.513  0.00  0.00    +0.000 OA
BRANCH  22  25
ATOM     25  C   UNL     1       5.506   6.667  76.515  0.00  0.00    +0.000 A 
ATOM     26  C   UNL     1       5.038   7.938  76.196  0.00  0.00    +0.000 A 
ATOM     27  C   UNL     1       5.933   9.003  76.166  0.00  0.00    +0.000 A 
ATOM     28  C   UNL     1       7.277   8.776  76.450  0.00  0.00    +0.000 A 
ATOM     29  F   UNL     1       8.138   9.803  76.421  0.00  0.00    +0.000 F 
ATOM     30  C   UNL     1       7.742   7.502  76.762  0.00  0.00    +0.000 A 
ATOM     31  C   UNL     1       6.850   6.436  76.793  0.00  0.00    +0.000 A 
ENDBRANCH  22  25
ENDBRANCH  21  22
ENDBRANCH  17  21
ENDBRANCH   2  17
TORSDOF 8
ENDMDL
MODEL 6
REMARK VINA RESULT:      -4.2     11.190     12.647
REMARK  Name = Bicalutamide.pdbqt.pdb
REMARK  8 active torsions:
REMARK  status: ('A' for Active; 'I' for Inactive)
REMARK    1  A    between atoms: C_2  and  N_13
REMARK    2  A    between atoms: C_5  and  C_9
REMARK    3  A    between atoms: C_6  and  C_8
REMARK    4  A    between atoms: C_14  and  C_17
REMARK    5  A    between atoms: C_17  and  O_19
REMARK    6  A    between atoms: C_17  and  C_21
REMARK    7  A    between atoms: C_21  and  S_22
REMARK    8  A    between atoms: S_22  and  C_25
REMARK                            x       y       z     vdW  Elec       q    Type
REMARK                         _______ _______ _______ _____ _____    ______ ____
ROOT
ATOM      1  N   UNL     1      14.929   9.676  69.382  0.00  0.00    +0.000 N 
ATOM      2  C   UNL     1      15.027   8.535  68.588  0.00  0.00    +0.000 C 
ATOM      3  O   UNL     1      14.075   7.991  68.019  0.00  0.00    +0.000 OA
ATOM      4  H   UNL     1      15.807  10.079  69.709  0.00  0.00    +0.000 HD
ENDROOT
BRANCH   1   5
ATOM      5  C   UNL     1      13.744  10.360  69.699  0.00  0.00    +0.000 A 
ATOM      6  C   UNL     1      13.144  10.086  70.927  0.00  0.00    +0.000 A 
ATOM      7  C   UNL     1      13.149  11.280  68.841  0.00  0.00    +0.000 A 
ATOM      8  C   UNL     1      11.957  10.720  71.313  0.00  0.00    +0.000 A 
ATOM      9  C   UNL     1      11.368  11.646  70.439  0.00  0.00    +0.000 A 
ATOM     10  C   UNL     1      11.968  11.920  69.209  0.00  0.00    +0.000 A 
BRANCH   8  11
ATOM     11  C   UNL     1      11.353  10.388  72.646  0.00  0.00    +0.000 C 
ATOM     12  F   UNL     1      10.064   9.955  72.560  0.00  0.00    +0.000 F 
ATOM     13  F   UNL     1      12.032   9.402  73.290  0.00  0.00    +0.000 F 
ATOM     14  F   UNL     1      11.330  11.456  73.486  0.00  0.00    +0.000 F 
ENDBRANCH   8  11
BRANCH   9  16
ATOM     15  N   UNL     1       9.174  12.889  71.035  0.00  0.00    +0.000 NA
ATOM     16  C   UNL     1      10.156  12.336  70.761  0.00  0.00    +0.000 C 
ENDBRANCH   9  16
ENDBRANCH   1   5
BRANCH   2  17
ATOM     17  C   UNL     1      16.478   7.913  68.478  0.00  0.00    +0.000 C 
ATOM     18  C   UNL     1      17.415   8.463  69.591  0.00  0.00    +0.000 C 
BRANCH  17  19
ATOM     19  O   UNL     1      17.065   8.252  67.232  0.00  0.00    +0.000 OA
ATOM     20  H   UNL     1      16.385   8.782  66.774  0.00  0.00    +0.000 HD
ENDBRANCH  17  19
BRANCH  17  21
ATOM     21  C   UNL     1      16.359   6.490  68.563  0.00  0.00    +0.000 C 
BRANCH  21  22
ATOM     22  S   UNL     1      16.331   4.791  68.856  0.00  0.00    +0.000 S 
ATOM     23  O   UNL     1      17.729   4.619  69.162  0.00  0.00    +0.000 OA
ATOM     24  O   UNL     1      15.689   4.419  67.619  0.00  0.00    +0.000 OA
BRANCH  22  25
ATOM     25  C   UNL     1      15.326   4.465  70.228  0.00  0.00    +0.000 A 
ATOM     26  C   UNL     1      15.303   5.397  71.260  0.00  0.00    +0.000 A 
ATOM     27  C   UNL     1      14.520   5.146  72.384  0.00  0.00    +0.000 A 
ATOM     28  C   UNL     1      13.781   3.968  72.454  0.00  0.00    +0.000 A 
ATOM     29  F   UNL     1      13.028   3.727  73.535  0.00  0.00    +0.000 F 
ATOM     30  C   UNL     1      13.813   3.035  71.421  0.00  0.00    +0.000 A 
ATOM     31  C   UNL     1      14.595   3.283  70.298  0.00  0.00    +0.000 A 
ENDBRANCH  22  25
ENDBRANCH  21  22
ENDBRANCH  17  21
ENDBRANCH   2  17
TORSDOF 8
ENDMDL
MODEL 7
REMARK VINA RESULT:      -4.1      3.119      3.615
REMARK  Name = Bicalutamide.pdbqt.pdb
REMARK  8 active torsions:
REMARK  status: ('A' for Active; 'I' for Inactive)
REMARK    1  A    between atoms: C_2  and  N_13
REMARK    2  A    between atoms: C_5  and  C_9
REMARK    3  A    between atoms: C_6  and  C_8
REMARK    4  A    between atoms: C_14  and  C_17
REMARK    5  A    between atoms: C_17  and  O_19
REMARK    6  A    between atoms: C_17  and  C_21
REMARK    7  A    between atoms: C_21  and  S_22
REMARK    8  A    between atoms: S_22  and  C_25
REMARK                            x       y       z     vdW  Elec       q    Type
REMARK                         _______ _______ _______ _____ _____    ______ ____
ROOT
ATOM      1  N   UNL     1       9.697  12.162  62.192  0.00  0.00    +0.000 N 
ATOM      2  C   UNL     1       9.127  13.100  63.048  0.00  0.00    +0.000 C 
ATOM      3  O   UNL     1       9.346  14.315  63.004  0.00  0.00    +0.000 OA
ATOM      4  H   UNL     1       9.352  11.204  62.272  0.00  0.00    +0.000 HD
ENDROOT
BRANCH   1   5
ATOM      5  C   UNL     1      10.634  12.429  61.181  0.00  0.00    +0.000 A 
ATOM      6  C   UNL     1      10.159  12.590  59.880  0.00  0.00    +0.000 A 
ATOM      7  C   UNL     1      12.001  12.524  61.421  0.00  0.00    +0.000 A 
ATOM      8  C   UNL     1      11.029  12.849  58.815  0.00  0.00    +0.000 A 
ATOM      9  C   UNL     1      12.405  12.945  59.072  0.00  0.00    +0.000 A 
ATOM     10  C   UNL     1      12.882  12.781  60.374  0.00  0.00    +0.000 A 
BRANCH   8  11
ATOM     11  C   UNL     1      10.464  13.015  57.434  0.00  0.00    +0.000 C 
ATOM     12  F   UNL     1       9.187  12.555  57.317  0.00  0.00    +0.000 F 
ATOM     13  F   UNL     1      10.426  14.316  57.044  0.00  0.00    +0.000 F 
ATOM     14  F   UNL     1      11.185  12.349  56.494  0.00  0.00    +0.000 F 
ENDBRANCH   8  11
BRANCH   9  16
ATOM     15  N   UNL     1      14.143  13.418  57.210  0.00  0.00    +0.000 NA
ATOM     16  C   UNL     1      13.359  13.208  58.038  0.00  0.00    +0.000 C 
ENDBRANCH   9  16
ENDBRANCH   1   5
BRANCH   2  17
ATOM     17  C   UNL     1       8.172  12.506  64.161  0.00  0.00    +0.000 C 
ATOM     18  C   UNL     1       7.553  13.633  65.035  0.00  0.00    +0.000 C 
BRANCH  17  19
ATOM     19  O   UNL     1       8.901  11.655  65.031  0.00  0.00    +0.000 OA
ATOM     20  H   UNL     1       8.994  12.167  65.857  0.00  0.00    +0.000 HD
ENDBRANCH  17  19
BRANCH  17  21
ATOM     21  C   UNL     1       7.153  11.742  63.511  0.00  0.00    +0.000 C 
BRANCH  21  22
ATOM     22  S   UNL     1       5.835  10.793  62.929  0.00  0.00    +0.000 S 
ATOM     23  O   UNL     1       4.763  11.643  63.382  0.00  0.00    +0.000 OA
ATOM     24  O   UNL     1       6.241   9.551  63.543  0.00  0.00    +0.000 OA
BRANCH  22  25
ATOM     25  C   UNL     1       5.909  10.712  61.201  0.00  0.00    +0.000 A 
ATOM     26  C   UNL     1       4.732  10.899  60.485  0.00  0.00    +0.000 A 
ATOM     27  C   UNL     1       4.761  10.816  59.096  0.00  0.00    +0.000 A 
ATOM     28  C   UNL     1       5.966  10.543  58.452  0.00  0.00    +0.000 A 
ATOM     29  F   UNL     1       5.994  10.463  57.115  0.00  0.00    +0.000 F 
ATOM     30  C   UNL     1       7.141  10.349  59.174  0.00  0.00    +0.000 A 
ATOM     31  C   UNL     1       7.113  10.431  60.562  0.00  0.00    +0.000 A 
ENDBRANCH  22  25
ENDBRANCH  21  22
ENDBRANCH  17  21
ENDBRANCH   2  17
TORSDOF 8
ENDMDL
MODEL 8
REMARK VINA RESULT:      -4.1      5.070      7.093
REMARK  Name = Bicalutamide.pdbqt.pdb
REMARK  8 active torsions:
REMARK  status: ('A' for Active; 'I' for Inactive)
REMARK    1  A    between atoms: C_2  and  N_13
REMARK    2  A    between atoms: C_5  and  C_9
REMARK    3  A    between atoms: C_6  and  C_8
REMARK    4  A    between atoms: C_14  and  C_17
REMARK    5  A    between atoms: C_17  and  O_19
REMARK    6  A    between atoms: C_17  and  C_21
REMARK    7  A    between atoms: C_21  and  S_22
REMARK    8  A    between atoms: S_22  and  C_25
REMARK                            x       y       z     vdW  Elec       q    Type
REMARK                         _______ _______ _______ _____ _____    ______ ____
ROOT
ATOM      1  N   UNL     1       4.436   6.267  63.123  0.00  0.00    +0.000 N 
ATOM      2  C   UNL     1       3.098   5.960  62.890  0.00  0.00    +0.000 C 
ATOM      3  O   UNL     1       2.402   6.475  62.009  0.00  0.00    +0.000 OA
ATOM      4  H   UNL     1       4.920   5.695  63.817  0.00  0.00    +0.000 HD
ENDROOT
BRANCH   1   5
ATOM      5  C   UNL     1       5.194   7.228  62.434  0.00  0.00    +0.000 A 
ATOM      6  C   UNL     1       5.827   6.834  61.256  0.00  0.00    +0.000 A 
ATOM      7  C   UNL     1       5.347   8.536  62.883  0.00  0.00    +0.000 A 
ATOM      8  C   UNL     1       6.608   7.729  60.516  0.00  0.00    +0.000 A 
ATOM      9  C   UNL     1       6.752   9.045  60.979  0.00  0.00    +0.000 A 
ATOM     10  C   UNL     1       6.121   9.440  62.160  0.00  0.00    +0.000 A 
BRANCH   8  11
ATOM     11  C   UNL     1       7.266   7.253  59.254  0.00  0.00    +0.000 C 
ATOM     12  F   UNL     1       6.899   5.990  58.899  0.00  0.00    +0.000 F 
ATOM     13  F   UNL     1       6.968   8.039  58.186  0.00  0.00    +0.000 F 
ATOM     14  F   UNL     1       8.622   7.231  59.352  0.00  0.00    +0.000 F 
ENDBRANCH   8  11
BRANCH   9  16
ATOM     15  N   UNL     1       8.165  10.819  59.726  0.00  0.00    +0.000 NA
ATOM     16  C   UNL     1       7.533  10.020  60.280  0.00  0.00    +0.000 C 
ENDBRANCH   9  16
ENDBRANCH   1   5
BRANCH   2  17
ATOM     17  C   UNL     1       2.465   4.903  63.883  0.00  0.00    +0.000 C 
ATOM     18  C   UNL     1       0.932   4.767  63.663  0.00  0.00    +0.000 C 
BRANCH  17  19
ATOM     19  O   UNL     1       2.661   5.311  65.227  0.00  0.00    +0.000 OA
ATOM     20  H   UNL     1       2.871   6.263  65.168  0.00  0.00    +0.000 HD
ENDBRANCH  17  19
BRANCH  17  21
ATOM     21  C   UNL     1       3.127   3.651  63.678  0.00  0.00    +0.000 C 
BRANCH  21  22
ATOM     22  S   UNL     1       4.051   2.249  63.282  0.00  0.00    +0.000 S 
ATOM     23  O   UNL     1       2.956   1.326  63.130  0.00  0.00    +0.000 OA
ATOM     24  O   UNL     1       4.945   2.314  64.413  0.00  0.00    +0.000 OA
BRANCH  22  25
ATOM     25  C   UNL     1       4.882   2.518  61.787  0.00  0.00    +0.000 A 
ATOM     26  C   UNL     1       4.240   3.267  60.806  0.00  0.00    +0.000 A 
ATOM     27  C   UNL     1       4.878   3.477  59.586  0.00  0.00    +0.000 A 
ATOM     28  C   UNL     1       6.141   2.931  59.372  0.00  0.00    +0.000 A 
ATOM     29  F   UNL     1       6.754   3.133  58.198  0.00  0.00    +0.000 F 
ATOM     30  C   UNL     1       6.776   2.176  60.354  0.00  0.00    +0.000 A 
ATOM     31  C   UNL     1       6.141   1.964  61.573  0.00  0.00    +0.000 A 
ENDBRANCH  22  25
ENDBRANCH  21  22
ENDBRANCH  17  21
ENDBRANCH   2  17
TORSDOF 8
ENDMDL
MODEL 9
REMARK VINA RESULT:      -4.0      5.232      7.571
REMARK  Name = Bicalutamide.pdbqt.pdb
REMARK  8 active torsions:
REMARK  status: ('A' for Active; 'I' for Inactive)
REMARK    1  A    between atoms: C_2  and  N_13
REMARK    2  A    between atoms: C_5  and  C_9
REMARK    3  A    between atoms: C_6  and  C_8
REMARK    4  A    between atoms: C_14  and  C_17
REMARK    5  A    between atoms: C_17  and  O_19
REMARK    6  A    between atoms: C_17  and  C_21
REMARK    7  A    between atoms: C_21  and  S_22
REMARK    8  A    between atoms: S_22  and  C_25
REMARK                            x       y       z     vdW  Elec       q    Type
REMARK                         _______ _______ _______ _____ _____    ______ ____
ROOT
ATOM      1  N   UNL     1       4.328   6.751  63.283  0.00  0.00    +0.000 N 
ATOM      2  C   UNL     1       2.940   6.667  63.217  0.00  0.00    +0.000 C 
ATOM      3  O   UNL     1       2.231   7.338  62.459  0.00  0.00    +0.000 OA
ATOM      4  H   UNL     1       4.797   6.068  63.880  0.00  0.00    +0.000 HD
ENDROOT
BRANCH   1   5
ATOM      5  C   UNL     1       5.138   7.628  62.544  0.00  0.00    +0.000 A 
ATOM      6  C   UNL     1       5.749   7.135  61.392  0.00  0.00    +0.000 A 
ATOM      7  C   UNL     1       5.362   8.949  62.920  0.00  0.00    +0.000 A 
ATOM      8  C   UNL     1       6.578   7.943  60.606  0.00  0.00    +0.000 A 
ATOM      9  C   UNL     1       6.794   9.274  60.995  0.00  0.00    +0.000 A 
ATOM     10  C   UNL     1       6.184   9.768  62.150  0.00  0.00    +0.000 A 
BRANCH   8  11
ATOM     11  C   UNL     1       7.210   7.361  59.376  0.00  0.00    +0.000 C 
ATOM     12  F   UNL     1       6.801   6.089  59.111  0.00  0.00    +0.000 F 
ATOM     13  F   UNL     1       6.926   8.081  58.259  0.00  0.00    +0.000 F 
ATOM     14  F   UNL     1       8.565   7.304  59.465  0.00  0.00    +0.000 F 
ENDBRANCH   8  11
BRANCH   9  16
ATOM     15  N   UNL     1       8.305  10.892  59.650  0.00  0.00    +0.000 NA
ATOM     16  C   UNL     1       7.627  10.163  60.245  0.00  0.00    +0.000 C 
ENDBRANCH   9  16
ENDBRANCH   1   5
BRANCH   2  17
ATOM     17  C   UNL     1       2.275   5.654  64.235  0.00  0.00    +0.000 C 
ATOM     18  C   UNL     1       0.726   5.653  64.102  0.00  0.00    +0.000 C 
BRANCH  17  19
ATOM     19  O   UNL     1       2.580   6.028  65.569  0.00  0.00    +0.000 OA
ATOM     20  H   UNL     1       2.428   5.218  66.093  0.00  0.00    +0.000 HD
ENDBRANCH  17  19
BRANCH  17  21
ATOM     21  C   UNL     1       2.813   4.353  63.983  0.00  0.00    +0.000 C 
BRANCH  21  22
ATOM     22  S   UNL     1       3.383   2.728  63.880  0.00  0.00    +0.000 S 
ATOM     23  O   UNL     1       4.722   3.016  63.430  0.00  0.00    +0.000 OA
ATOM     24  O   UNL     1       2.310   2.227  63.056  0.00  0.00    +0.000 OA
BRANCH  22  25
ATOM     25  C   UNL     1       3.371   2.018  65.459  0.00  0.00    +0.000 A 
ATOM     26  C   UNL     1       2.588   2.617  66.441  0.00  0.00    +0.000 A 
ATOM     27  C   UNL     1       2.579   2.078  67.724  0.00  0.00    +0.000 A 
ATOM     28  C   UNL     1       3.356   0.956  68.000  0.00  0.00    +0.000 A 
ATOM     29  F   UNL     1       3.347   0.437  69.236  0.00  0.00    +0.000 F 
ATOM     30  C   UNL     1       4.143   0.364  67.016  0.00  0.00    +0.000 A 
ATOM     31  C   UNL     1       4.154   0.901  65.733  0.00  0.00    +0.000 A 
ENDBRANCH  22  25
ENDBRANCH  21  22
ENDBRANCH  17  21
ENDBRANCH   2  17
TORSDOF 8
ENDMDL
