MODEL 1
REMARK VINA RESULT:      -4.6      0.000      0.000
REMARK  Name = Bisphenol_A.pdbqt.pdb
REMARK  4 active torsions:
REMARK  status: ('A' for Active; 'I' for Inactive)
REMARK    1  A    between atoms: C_1  and  C_4
REMARK    2  A    between atoms: C_1  and  C_12
REMARK    3  A    between atoms: C_7  and  O_10
REMARK    4  A    between atoms: C_15  and  O_18
REMARK                            x       y       z     vdW  Elec       q    Type
REMARK                         _______ _______ _______ _____ _____    ______ ____
ROOT
ATOM      1  C   UNL     1       6.599   6.012  58.166  0.00  0.00    +0.000 C 
ATOM      2  C   UNL     1       7.080   6.897  56.962  0.00  0.00    +0.000 C 
ATOM      3  C   UNL     1       5.136   5.531  57.863  0.00  0.00    +0.000 C 
ENDROOT
BRANCH   1   4
ATOM      4  C   UNL     1       7.577   4.832  58.269  0.00  0.00    +0.000 A 
ATOM      5  C   UNL     1       7.088   3.536  58.516  0.00  0.00    +0.000 A 
ATOM      6  C   UNL     1       7.948   2.445  58.633  0.00  0.00    +0.000 A 
ATOM      7  C   UNL     1       9.317   2.644  58.510  0.00  0.00    +0.000 A 
ATOM      8  C   UNL     1       9.835   3.911  58.274  0.00  0.00    +0.000 A 
ATOM      9  C   UNL     1       8.965   4.994  58.161  0.00  0.00    +0.000 A 
BRANCH   7  10
ATOM     10  O   UNL     1      10.186   1.598  58.614  0.00  0.00    +0.000 OA
ATOM     11  H   UNL     1      10.568   1.601  59.509  0.00  0.00    +0.000 HD
ENDBRANCH   7  10
ENDBRANCH   1   4
BRANCH   1  12
ATOM     12  C   UNL     1       6.541   6.813  59.475  0.00  0.00    +0.000 A 
ATOM     13  C   UNL     1       7.325   7.971  59.626  0.00  0.00    +0.000 A 
ATOM     14  C   UNL     1       7.309   8.711  60.806  0.00  0.00    +0.000 A 
ATOM     15  C   UNL     1       6.505   8.293  61.859  0.00  0.00    +0.000 A 
ATOM     16  C   UNL     1       5.723   7.150  61.748  0.00  0.00    +0.000 A 
ATOM     17  C   UNL     1       5.749   6.417  60.564  0.00  0.00    +0.000 A 
BRANCH  15  18
ATOM     18  O   UNL     1       6.462   8.997  63.027  0.00  0.00    +0.000 OA
ATOM     19  H   UNL     1       6.675   8.394  63.760  0.00  0.00    +0.000 HD
ENDBRANCH  15  18
ENDBRANCH   1  12
TORSDOF 4
ENDMDL
MODEL 2
REMARK VINA RESULT:      -4.3      0.512      5.499
REMARK  Name = Bisphenol_A.pdbqt.pdb
REMARK  4 active torsions:
REMARK  status: ('A' for Active; 'I' for Inactive)
REMARK    1  A    between atoms: C_1  and  C_4
REMARK    2  A    between atoms: C_1  and  C_12
REMARK    3  A    between atoms: C_7  and  O_10
REMARK    4  A    between atoms: C_15  and  O_18
REMARK                            x       y       z     vdW  Elec       q    Type
REMARK                         _______ _______ _______ _____ _____    ______ ____
ROOT
ATOM      1  C   UNL     1       6.143   5.651  58.569  0.00  0.00    +0.000 C 
ATOM      2  C   UNL     1       4.693   5.050  58.577  0.00  0.00    +0.000 C 
ATOM      3  C   UNL     1       6.339   6.433  57.222  0.00  0.00    +0.000 C 
ENDROOT
BRANCH   1   4
ATOM      4  C   UNL     1       6.246   6.580  59.787  0.00  0.00    +0.000 A 
ATOM      5  C   UNL     1       5.518   6.290  60.955  0.00  0.00    +0.000 A 
ATOM      6  C   UNL     1       5.574   7.121  62.072  0.00  0.00    +0.000 A 
ATOM      7  C   UNL     1       6.362   8.265  62.029  0.00  0.00    +0.000 A 
ATOM      8  C   UNL     1       7.089   8.586  60.889  0.00  0.00    +0.000 A 
ATOM      9  C   UNL     1       7.022   7.748  59.778  0.00  0.00    +0.000 A 
BRANCH   7  10
ATOM     10  O   UNL     1       6.443   9.098  63.105  0.00  0.00    +0.000 OA
ATOM     11  H   UNL     1       7.354   9.076  63.446  0.00  0.00    +0.000 HD
ENDBRANCH   7  10
ENDBRANCH   1   4
BRANCH   1  12
ATOM     12  C   UNL     1       7.216   4.553  58.604  0.00  0.00    +0.000 A 
ATOM     13  C   UNL     1       8.519   4.828  58.148  0.00  0.00    +0.000 A 
ATOM     14  C   UNL     1       9.511   3.851  58.150  0.00  0.00    +0.000 A 
ATOM     15  C   UNL     1       9.206   2.574  58.607  0.00  0.00    +0.000 A 
ATOM     16  C   UNL     1       7.929   2.265  59.058  0.00  0.00    +0.000 A 
ATOM     17  C   UNL     1       6.944   3.250  59.049  0.00  0.00    +0.000 A 
BRANCH  15  18
ATOM     18  O   UNL     1      10.155   1.595  58.628  0.00  0.00    +0.000 OA
ATOM     19  H   UNL     1      10.855   1.829  57.994  0.00  0.00    +0.000 HD
ENDBRANCH  15  18
ENDBRANCH   1  12
TORSDOF 4
ENDMDL
MODEL 3
REMARK VINA RESULT:      -4.1      2.829      3.961
REMARK  Name = Bisphenol_A.pdbqt.pdb
REMARK  4 active torsions:
REMARK  status: ('A' for Active; 'I' for Inactive)
REMARK    1  A    between atoms: C_1  and  C_4
REMARK    2  A    between atoms: C_1  and  C_12
REMARK    3  A    between atoms: C_7  and  O_10
REMARK    4  A    between atoms: C_15  and  O_18
REMARK                            x       y       z     vdW  Elec       q    Type
REMARK                         _______ _______ _______ _____ _____    ______ ____
ROOT
ATOM      1  C   UNL     1       6.414   2.812  58.712  0.00  0.00    +0.000 C 
ATOM      2  C   UNL     1       5.429   3.238  57.566  0.00  0.00    +0.000 C 
ATOM      3  C   UNL     1       6.649   1.263  58.600  0.00  0.00    +0.000 C 
ENDROOT
BRANCH   1   4
ATOM      4  C   UNL     1       7.714   3.601  58.497  0.00  0.00    +0.000 A 
ATOM      5  C   UNL     1       8.957   2.966  58.671  0.00  0.00    +0.000 A 
ATOM      6  C   UNL     1      10.156   3.657  58.502  0.00  0.00    +0.000 A 
ATOM      7  C   UNL     1      10.121   5.004  58.161  0.00  0.00    +0.000 A 
ATOM      8  C   UNL     1       8.911   5.664  57.990  0.00  0.00    +0.000 A 
ATOM      9  C   UNL     1       7.720   4.963  58.164  0.00  0.00    +0.000 A 
BRANCH   7  10
ATOM     10  O   UNL     1      11.275   5.708  57.985  0.00  0.00    +0.000 OA
ATOM     11  H   UNL     1      11.944   5.370  58.605  0.00  0.00    +0.000 HD
ENDBRANCH   7  10
ENDBRANCH   1   4
BRANCH   1  12
ATOM     12  C   UNL     1       5.818   3.071  60.103  0.00  0.00    +0.000 A 
ATOM     13  C   UNL     1       5.834   2.055  61.075  0.00  0.00    +0.000 A 
ATOM     14  C   UNL     1       5.287   2.251  62.341  0.00  0.00    +0.000 A 
ATOM     15  C   UNL     1       4.708   3.477  62.648  0.00  0.00    +0.000 A 
ATOM     16  C   UNL     1       4.669   4.501  61.710  0.00  0.00    +0.000 A 
ATOM     17  C   UNL     1       5.217   4.291  60.447  0.00  0.00    +0.000 A 
BRANCH  15  18
ATOM     18  O   UNL     1       4.169   3.705  63.880  0.00  0.00    +0.000 OA
ATOM     19  H   UNL     1       3.360   4.236  63.770  0.00  0.00    +0.000 HD
ENDBRANCH  15  18
ENDBRANCH   1  12
TORSDOF 4
ENDMDL
MODEL 4
REMARK VINA RESULT:      -3.9     16.437     17.477
REMARK  Name = Bisphenol_A.pdbqt.pdb
REMARK  4 active torsions:
REMARK  status: ('A' for Active; 'I' for Inactive)
REMARK    1  A    between atoms: C_1  and  C_4
REMARK    2  A    between atoms: C_1  and  C_12
REMARK    3  A    between atoms: C_7  and  O_10
REMARK    4  A    between atoms: C_15  and  O_18
REMARK                            x       y       z     vdW  Elec       q    Type
REMARK                         _______ _______ _______ _____ _____    ______ ____
ROOT
ATOM      1  C   UNL     1       8.527   3.110  77.796  0.00  0.00    +0.000 C 
ATOM      2  C   UNL     1       7.858   1.856  78.462  0.00  0.00    +0.000 C 
ATOM      3  C   UNL     1       9.269   3.919  78.918  0.00  0.00    +0.000 C 
ENDROOT
BRANCH   1   4
ATOM      4  C   UNL     1       9.503   2.582  76.734  0.00  0.00    +0.000 A 
ATOM      5  C   UNL     1       9.339   1.287  76.211  0.00  0.00    +0.000 A 
ATOM      6  C   UNL     1      10.216   0.770  75.260  0.00  0.00    +0.000 A 
ATOM      7  C   UNL     1      11.281   1.549  74.824  0.00  0.00    +0.000 A 
ATOM      8  C   UNL     1      11.478   2.830  75.324  0.00  0.00    +0.000 A 
ATOM      9  C   UNL     1      10.595   3.335  76.277  0.00  0.00    +0.000 A 
BRANCH   7  10
ATOM     10  O   UNL     1      12.156   1.076  73.891  0.00  0.00    +0.000 OA
ATOM     11  H   UNL     1      11.967   0.134  73.738  0.00  0.00    +0.000 HD
ENDBRANCH   7  10
ENDBRANCH   1   4
BRANCH   1  12
ATOM     12  C   UNL     1       7.483   4.056  77.183  0.00  0.00    +0.000 A 
ATOM     13  C   UNL     1       7.727   5.441  77.143  0.00  0.00    +0.000 A 
ATOM     14  C   UNL     1       6.795   6.328  76.611  0.00  0.00    +0.000 A 
ATOM     15  C   UNL     1       5.596   5.834  76.112  0.00  0.00    +0.000 A 
ATOM     16  C   UNL     1       5.318   4.473  76.141  0.00  0.00    +0.000 A 
ATOM     17  C   UNL     1       6.257   3.596  76.679  0.00  0.00    +0.000 A 
BRANCH  15  18
ATOM     18  O   UNL     1       4.663   6.674  75.578  0.00  0.00    +0.000 OA
ATOM     19  H   UNL     1       4.905   6.858  74.653  0.00  0.00    +0.000 HD
ENDBRANCH  15  18
ENDBRANCH   1  12
TORSDOF 4
ENDMDL
MODEL 5
REMARK VINA RESULT:      -3.8     16.446     18.165
REMARK  Name = Bisphenol_A.pdbqt.pdb
REMARK  4 active torsions:
REMARK  status: ('A' for Active; 'I' for Inactive)
REMARK    1  A    between atoms: C_1  and  C_4
REMARK    2  A    between atoms: C_1  and  C_12
REMARK    3  A    between atoms: C_7  and  O_10
REMARK    4  A    between atoms: C_15  and  O_18
REMARK                            x       y       z     vdW  Elec       q    Type
REMARK                         _______ _______ _______ _____ _____    ______ ____
ROOT
ATOM      1  C   UNL     1       7.921   2.594  77.550  0.00  0.00    +0.000 C 
ATOM      2  C   UNL     1       8.427   2.985  78.984  0.00  0.00    +0.000 C 
ATOM      3  C   UNL     1       7.038   1.302  77.680  0.00  0.00    +0.000 C 
ENDROOT
BRANCH   1   4
ATOM      4  C   UNL     1       7.110   3.788  77.025  0.00  0.00    +0.000 A 
ATOM      5  C   UNL     1       7.568   5.099  77.246  0.00  0.00    +0.000 A 
ATOM      6  C   UNL     1       6.848   6.205  76.799  0.00  0.00    +0.000 A 
ATOM      7  C   UNL     1       5.649   6.008  76.124  0.00  0.00    +0.000 A 
ATOM      8  C   UNL     1       5.163   4.727  75.895  0.00  0.00    +0.000 A 
ATOM      9  C   UNL     1       5.891   3.629  76.350  0.00  0.00    +0.000 A 
BRANCH   7  10
ATOM     10  O   UNL     1       4.921   7.068  75.669  0.00  0.00    +0.000 OA
ATOM     11  H   UNL     1       5.412   7.492  74.944  0.00  0.00    +0.000 HD
ENDBRANCH   7  10
ENDBRANCH   1   4
BRANCH   1  12
ATOM     12  C   UNL     1       9.084   2.244  76.611  0.00  0.00    +0.000 A 
ATOM     13  C   UNL     1       9.143   0.974  76.008  0.00  0.00    +0.000 A 
ATOM     14  C   UNL     1      10.192   0.618  75.164  0.00  0.00    +0.000 A 
ATOM     15  C   UNL     1      11.206   1.535  74.917  0.00  0.00    +0.000 A 
ATOM     16  C   UNL     1      11.184   2.796  75.501  0.00  0.00    +0.000 A 
ATOM     17  C   UNL     1      10.131   3.140  76.345  0.00  0.00    +0.000 A 
BRANCH  15  18
ATOM     18  O   UNL     1      12.246   1.221  74.092  0.00  0.00    +0.000 OA
ATOM     19  H   UNL     1      12.535   0.313  74.289  0.00  0.00    +0.000 HD
ENDBRANCH  15  18
ENDBRANCH   1  12
TORSDOF 4
ENDMDL
MODEL 6
REMARK VINA RESULT:      -3.8     16.494     17.550
REMARK  Name = Bisphenol_A.pdbqt.pdb
REMARK  4 active torsions:
REMARK  status: ('A' for Active; 'I' for Inactive)
REMARK    1  A    between atoms: C_1  and  C_4
REMARK    2  A    between atoms: C_1  and  C_12
REMARK    3  A    between atoms: C_7  and  O_10
REMARK    4  A    between atoms: C_15  and  O_18
REMARK                            x       y       z     vdW  Elec       q    Type
REMARK                         _______ _______ _______ _____ _____    ______ ____
ROOT
ATOM      1  C   UNL     1       9.480   4.824  77.639  0.00  0.00    +0.000 C 
ATOM      2  C   UNL     1       9.682   4.074  79.003  0.00  0.00    +0.000 C 
ATOM      3  C   UNL     1       9.810   6.342  77.864  0.00  0.00    +0.000 C 
ENDROOT
BRANCH   1   4
ATOM      4  C   UNL     1      10.441   4.177  76.629  0.00  0.00    +0.000 A 
ATOM      5  C   UNL     1      11.486   4.935  76.070  0.00  0.00    +0.000 A 
ATOM      6  C   UNL     1      12.364   4.385  75.138  0.00  0.00    +0.000 A 
ATOM      7  C   UNL     1      12.200   3.062  74.749  0.00  0.00    +0.000 A 
ATOM      8  C   UNL     1      11.174   2.286  75.274  0.00  0.00    +0.000 A 
ATOM      9  C   UNL     1      10.300   2.848  76.204  0.00  0.00    +0.000 A 
BRANCH   7  10
ATOM     10  O   UNL     1      13.044   2.491  73.842  0.00  0.00    +0.000 OA
ATOM     11  H   UNL     1      13.635   1.878  74.312  0.00  0.00    +0.000 HD
ENDBRANCH   7  10
ENDBRANCH   1   4
BRANCH   1  12
ATOM     12  C   UNL     1       8.024   4.753  77.158  0.00  0.00    +0.000 A 
ATOM     13  C   UNL     1       7.357   3.514  77.115  0.00  0.00    +0.000 A 
ATOM     14  C   UNL     1       6.043   3.411  76.668  0.00  0.00    +0.000 A 
ATOM     15  C   UNL     1       5.375   4.556  76.251  0.00  0.00    +0.000 A 
ATOM     16  C   UNL     1       6.004   5.795  76.273  0.00  0.00    +0.000 A 
ATOM     17  C   UNL     1       7.321   5.885  76.719  0.00  0.00    +0.000 A 
BRANCH  15  18
ATOM     18  O   UNL     1       4.085   4.492  75.813  0.00  0.00    +0.000 OA
ATOM     19  H   UNL     1       3.505   4.859  76.503  0.00  0.00    +0.000 HD
ENDBRANCH  15  18
ENDBRANCH   1  12
TORSDOF 4
ENDMDL
MODEL 7
REMARK VINA RESULT:      -3.7     10.211     12.334
REMARK  Name = Bisphenol_A.pdbqt.pdb
REMARK  4 active torsions:
REMARK  status: ('A' for Active; 'I' for Inactive)
REMARK    1  A    between atoms: C_1  and  C_4
REMARK    2  A    between atoms: C_1  and  C_12
REMARK    3  A    between atoms: C_7  and  O_10
REMARK    4  A    between atoms: C_15  and  O_18
REMARK                            x       y       z     vdW  Elec       q    Type
REMARK                         _______ _______ _______ _____ _____    ______ ____
ROOT
ATOM      1  C   UNL     1       1.078   8.839  69.238  0.00  0.00    +0.000 C 
ATOM      2  C   UNL     1       1.704   9.821  68.186  0.00  0.00    +0.000 C 
ATOM      3  C   UNL     1      -0.339   9.387  69.633  0.00  0.00    +0.000 C 
ENDROOT
BRANCH   1   4
ATOM      4  C   UNL     1       0.987   7.462  68.562  0.00  0.00    +0.000 A 
ATOM      5  C   UNL     1      -0.232   6.760  68.562  0.00  0.00    +0.000 A 
ATOM      6  C   UNL     1      -0.345   5.502  67.974  0.00  0.00    +0.000 A 
ATOM      7  C   UNL     1       0.772   4.926  67.381  0.00  0.00    +0.000 A 
ATOM      8  C   UNL     1       1.993   5.588  67.370  0.00  0.00    +0.000 A 
ATOM      9  C   UNL     1       2.094   6.845  67.963  0.00  0.00    +0.000 A 
BRANCH   7  10
ATOM     10  O   UNL     1       0.695   3.698  66.793  0.00  0.00    +0.000 OA
ATOM     11  H   UNL     1       0.825   3.805  65.834  0.00  0.00    +0.000 HD
ENDBRANCH   7  10
ENDBRANCH   1   4
BRANCH   1  12
ATOM     12  C   UNL     1       1.907   8.780  70.529  0.00  0.00    +0.000 A 
ATOM     13  C   UNL     1       1.337   9.186  71.750  0.00  0.00    +0.000 A 
ATOM     14  C   UNL     1       2.066   9.162  72.936  0.00  0.00    +0.000 A 
ATOM     15  C   UNL     1       3.388   8.732  72.913  0.00  0.00    +0.000 A 
ATOM     16  C   UNL     1       3.985   8.331  71.724  0.00  0.00    +0.000 A 
ATOM     17  C   UNL     1       3.246   8.362  70.543  0.00  0.00    +0.000 A 
BRANCH  15  18
ATOM     18  O   UNL     1       4.129   8.691  74.057  0.00  0.00    +0.000 OA
ATOM     19  H   UNL     1       4.844   9.347  73.986  0.00  0.00    +0.000 HD
ENDBRANCH  15  18
ENDBRANCH   1  12
TORSDOF 4
ENDMDL
MODEL 8
REMARK VINA RESULT:      -3.7     10.286     11.404
REMARK  Name = Bisphenol_A.pdbqt.pdb
REMARK  4 active torsions:
REMARK  status: ('A' for Active; 'I' for Inactive)
REMARK    1  A    between atoms: C_1  and  C_4
REMARK    2  A    between atoms: C_1  and  C_12
REMARK    3  A    between atoms: C_7  and  O_10
REMARK    4  A    between atoms: C_15  and  O_18
REMARK                            x       y       z     vdW  Elec       q    Type
REMARK                         _______ _______ _______ _____ _____    ______ ____
ROOT
ATOM      1  C   UNL     1       5.898  -1.694  67.466  0.00  0.00    +0.000 C 
ATOM      2  C   UNL     1       6.249  -1.781  65.939  0.00  0.00    +0.000 C 
ATOM      3  C   UNL     1       5.332  -3.088  67.916  0.00  0.00    +0.000 C 
ENDROOT
BRANCH   1   4
ATOM      4  C   UNL     1       7.200  -1.344  68.203  0.00  0.00    +0.000 A 
ATOM      5  C   UNL     1       7.283  -1.508  69.597  0.00  0.00    +0.000 A 
ATOM      6  C   UNL     1       8.442  -1.183  70.299  0.00  0.00    +0.000 A 
ATOM      7  C   UNL     1       9.537  -0.680  69.607  0.00  0.00    +0.000 A 
ATOM      8  C   UNL     1       9.486  -0.497  68.231  0.00  0.00    +0.000 A 
ATOM      9  C   UNL     1       8.321  -0.823  67.540  0.00  0.00    +0.000 A 
BRANCH   7  10
ATOM     10  O   UNL     1      10.688  -0.356  70.262  0.00  0.00    +0.000 OA
ATOM     11  H   UNL     1      10.519   0.425  70.817  0.00  0.00    +0.000 HD
ENDBRANCH   7  10
ENDBRANCH   1   4
BRANCH   1  12
ATOM     12  C   UNL     1       4.797  -0.659  67.741  0.00  0.00    +0.000 A 
ATOM     13  C   UNL     1       4.676   0.474  66.916  0.00  0.00    +0.000 A 
ATOM     14  C   UNL     1       3.700   1.440  67.147  0.00  0.00    +0.000 A 
ATOM     15  C   UNL     1       2.831   1.285  68.220  0.00  0.00    +0.000 A 
ATOM     16  C   UNL     1       2.926   0.182  69.060  0.00  0.00    +0.000 A 
ATOM     17  C   UNL     1       3.908  -0.777  68.820  0.00  0.00    +0.000 A 
BRANCH  15  18
ATOM     18  O   UNL     1       1.860   2.209  68.472  0.00  0.00    +0.000 OA
ATOM     19  H   UNL     1       1.311   1.888  69.209  0.00  0.00    +0.000 HD
ENDBRANCH  15  18
ENDBRANCH   1  12
TORSDOF 4
ENDMDL
MODEL 9
REMARK VINA RESULT:      -3.6     10.329     12.749
REMARK  Name = Bisphenol_A.pdbqt.pdb
REMARK  4 active torsions:
REMARK  status: ('A' for Active; 'I' for Inactive)
REMARK    1  A    between atoms: C_1  and  C_4
REMARK    2  A    between atoms: C_1  and  C_12
REMARK    3  A    between atoms: C_7  and  O_10
REMARK    4  A    between atoms: C_15  and  O_18
REMARK                            x       y       z     vdW  Elec       q    Type
REMARK                         _______ _______ _______ _____ _____    ______ ____
ROOT
ATOM      1  C   UNL     1       1.089   9.177  69.294  0.00  0.00    +0.000 C 
ATOM      2  C   UNL     1      -0.155   9.496  70.197  0.00  0.00    +0.000 C 
ATOM      3  C   UNL     1       1.078  10.173  68.080  0.00  0.00    +0.000 C 
ENDROOT
BRANCH   1   4
ATOM      4  C   UNL     1       2.336   9.364  70.171  0.00  0.00    +0.000 A 
ATOM      5  C   UNL     1       2.697   8.370  71.099  0.00  0.00    +0.000 A 
ATOM      6  C   UNL     1       3.811   8.515  71.923  0.00  0.00    +0.000 A 
ATOM      7  C   UNL     1       4.578   9.670  71.831  0.00  0.00    +0.000 A 
ATOM      8  C   UNL     1       4.246  10.676  70.933  0.00  0.00    +0.000 A 
ATOM      9  C   UNL     1       3.128  10.520  70.115  0.00  0.00    +0.000 A 
BRANCH   7  10
ATOM     10  O   UNL     1       5.677   9.842  72.620  0.00  0.00    +0.000 OA
ATOM     11  H   UNL     1       6.247  10.518  72.214  0.00  0.00    +0.000 HD
ENDBRANCH   7  10
ENDBRANCH   1   4
BRANCH   1  12
ATOM     12  C   UNL     1       1.020   7.760  68.706  0.00  0.00    +0.000 A 
ATOM     13  C   UNL     1       2.180   7.155  68.190  0.00  0.00    +0.000 A 
ATOM     14  C   UNL     1       2.149   5.879  67.634  0.00  0.00    +0.000 A 
ATOM     15  C   UNL     1       0.944   5.189  67.585  0.00  0.00    +0.000 A 
ATOM     16  C   UNL     1      -0.223   5.757  68.079  0.00  0.00    +0.000 A 
ATOM     17  C   UNL     1      -0.180   7.036  68.630  0.00  0.00    +0.000 A 
BRANCH  15  18
ATOM     18  O   UNL     1       0.879   3.935  67.053  0.00  0.00    +0.000 OA
ATOM     19  H   UNL     1       0.663   4.010  66.107  0.00  0.00    +0.000 HD
ENDBRANCH  15  18
ENDBRANCH   1  12
TORSDOF 4
ENDMDL
