REMARK  Name = BX795.pdbqt.pdb
REMARK  7 active torsions:
REMARK  status: ('A' for Active; 'I' for Inactive)
REMARK    1  A    between atoms: C_4  and  N_25
REMARK    2  A    between atoms: N_8  and  C_10
REMARK    3  A    between atoms: C_12  and  N_16
REMARK    4  A    between atoms: N_25  and  C_27
REMARK    5  A    between atoms: C_27  and  C_28
REMARK    6  A    between atoms: C_29  and  N_30
REMARK    7  A    between atoms: C_31  and  C_34
REMARK                            x       y       z     vdW  Elec       q    Type
REMARK                         _______ _______ _______ _____ _____    ______ ____
ROOT
ATOM      1  I   UNL     1       5.757  -4.388  -2.154  0.00  0.00    +0.000 I 
ATOM      2  N   UNL     1       2.926  -1.119  -2.113  0.00  0.00    +0.000 NA
ATOM      3  N   UNL     1       4.184  -0.911  -4.091  0.00  0.00    +0.000 NA
ATOM      4  C   UNL     1       3.633  -2.206  -1.738  0.00  0.00    +0.000 A 
ATOM      5  C   UNL     1       3.217  -0.501  -3.267  0.00  0.00    +0.000 A 
ATOM      6  C   UNL     1       4.616  -2.720  -2.560  0.00  0.00    +0.000 A 
ATOM      7  C   UNL     1       4.847  -2.022  -3.720  0.00  0.00    +0.000 A 
ATOM      8  N   UNL     1       2.532   0.651  -3.639  0.00  0.00    +0.000 N 
ATOM      9  H   UNL     1       2.907   1.045  -4.489  0.00  0.00    +0.000 HD
ENDROOT
BRANCH   8  10
ATOM     10  C   UNL     1       1.342   1.194  -3.141  0.00  0.00    +0.000 A 
ATOM     11  C   UNL     1       0.531   0.512  -2.229  0.00  0.00    +0.000 A 
ATOM     12  C   UNL     1      -0.600   1.099  -1.663  0.00  0.00    +0.000 A 
ATOM     13  C   UNL     1      -0.919   2.412  -1.992  0.00  0.00    +0.000 A 
ATOM     14  C   UNL     1      -0.122   3.118  -2.889  0.00  0.00    +0.000 A 
ATOM     15  C   UNL     1       1.000   2.512  -3.455  0.00  0.00    +0.000 A 
BRANCH  12  16
ATOM     16  N   UNL     1      -1.389   0.302  -0.814  0.00  0.00    +0.000 N 
ATOM     17  C   UNL     1      -2.465   0.734  -0.059  0.00  0.00    +0.000 C 
ATOM     18  O   UNL     1      -2.787   1.914   0.073  0.00  0.00    +0.000 OA
ATOM     19  N   UNL     1      -3.152  -0.300   0.577  0.00  0.00    +0.000 N 
ATOM     20  C   UNL     1      -2.967  -1.650   0.600  0.00  0.00    +0.000 A 
ATOM     21  C   UNL     1      -4.240  -0.223   1.393  0.00  0.00    +0.000 A 
ATOM     22  C   UNL     1      -3.894  -2.547   1.427  0.00  0.00    +0.000 A 
ATOM     23  C   UNL     1      -4.839  -1.489   2.016  0.00  0.00    +0.000 A 
ATOM     24  H   UNL     1      -1.093  -0.659  -0.693  0.00  0.00    +0.000 HD
ENDBRANCH  12  16
ENDBRANCH   8  10
BRANCH   4  25
ATOM     25  N   UNL     1       3.298  -2.848  -0.518  0.00  0.00    +0.000 N 
ATOM     26  H   UNL     1       4.144  -3.190  -0.067  0.00  0.00    +0.000 HD
BRANCH  25  27
ATOM     27  C   UNL     1       2.400  -2.110   0.366  0.00  0.00    +0.000 C 
BRANCH  27  28
ATOM     28  C   UNL     1       1.467  -1.251   1.226  0.00  0.00    +0.000 C 
ATOM     29  C   UNL     1       0.526  -0.334   2.012  0.00  0.00    +0.000 C 
BRANCH  29  30
ATOM     30  N   UNL     1      -0.329   0.491   2.658  0.00  0.00    +0.000 N 
ATOM     31  C   UNL     1      -1.298   0.176   3.600  0.00  0.00    +0.000 C 
ATOM     32  O   UNL     1      -1.459  -0.982   3.983  0.00  0.00    +0.000 OA
ATOM     33  H   UNL     1      -0.272   1.454   2.348  0.00  0.00    +0.000 HD
BRANCH  31  34
ATOM     34  C   UNL     1      -2.093   1.302   4.060  0.00  0.00    +0.000 A 
ATOM     35  S   UNL     1      -3.354   1.053   5.205  0.00  0.00    +0.000 S 
ATOM     36  C   UNL     1      -3.761   2.698   5.195  0.00  0.00    +0.000 A 
ATOM     37  C   UNL     1      -2.977   3.442   4.358  0.00  0.00    +0.000 A 
ATOM     38  C   UNL     1      -2.018   2.634   3.707  0.00  0.00    +0.000 A 
ENDBRANCH  31  34
ENDBRANCH  29  30
ENDBRANCH  27  28
ENDBRANCH  25  27
ENDBRANCH   4  25
TORSDOF 7
