MODEL 1
REMARK VINA RESULT:      -4.0      0.000      0.000
REMARK  Name = BX795.pdbqt.pdb
REMARK  7 active torsions:
REMARK  status: ('A' for Active; 'I' for Inactive)
REMARK    1  A    between atoms: C_4  and  N_25
REMARK    2  A    between atoms: N_8  and  C_10
REMARK    3  A    between atoms: C_12  and  N_16
REMARK    4  A    between atoms: N_25  and  C_27
REMARK    5  A    between atoms: C_27  and  C_28
REMARK    6  A    between atoms: C_29  and  N_30
REMARK    7  A    between atoms: C_31  and  C_34
REMARK                            x       y       z     vdW  Elec       q    Type
REMARK                         _______ _______ _______ _____ _____    ______ ____
ROOT
ATOM      1  I   UNL     1      10.946  12.658  69.311  0.00  0.00    +0.000 I 
ATOM      2  N   UNL     1      12.672   9.681  71.930  0.00  0.00    +0.000 NA
ATOM      3  N   UNL     1      10.537  10.187  72.781  0.00  0.00    +0.000 NA
ATOM      4  C   UNL     1      12.524  10.580  70.934  0.00  0.00    +0.000 A 
ATOM      5  C   UNL     1      11.686   9.510  72.824  0.00  0.00    +0.000 A 
ATOM      6  C   UNL     1      11.345  11.283  70.794  0.00  0.00    +0.000 A 
ATOM      7  C   UNL     1      10.392  11.045  71.754  0.00  0.00    +0.000 A 
ATOM      8  N   UNL     1      11.847   8.626  73.886  0.00  0.00    +0.000 N 
ATOM      9  H   UNL     1      11.058   8.657  74.514  0.00  0.00    +0.000 HD
ENDROOT
BRANCH   8  10
ATOM     10  C   UNL     1      12.798   7.619  74.086  0.00  0.00    +0.000 A 
ATOM     11  C   UNL     1      12.745   6.394  73.413  0.00  0.00    +0.000 A 
ATOM     12  C   UNL     1      13.749   5.435  73.544  0.00  0.00    +0.000 A 
ATOM     13  C   UNL     1      14.851   5.713  74.345  0.00  0.00    +0.000 A 
ATOM     14  C   UNL     1      14.934   6.929  75.017  0.00  0.00    +0.000 A 
ATOM     15  C   UNL     1      13.916   7.873  74.885  0.00  0.00    +0.000 A 
BRANCH  12  16
ATOM     16  N   UNL     1      13.563   4.208  72.883  0.00  0.00    +0.000 N 
ATOM     17  C   UNL     1      14.224   3.789  71.742  0.00  0.00    +0.000 C 
ATOM     18  O   UNL     1      14.969   4.504  71.073  0.00  0.00    +0.000 OA
ATOM     19  N   UNL     1      13.948   2.468  71.389  0.00  0.00    +0.000 N 
ATOM     20  C   UNL     1      13.153   1.513  71.948  0.00  0.00    +0.000 A 
ATOM     21  C   UNL     1      14.420   1.754  70.329  0.00  0.00    +0.000 A 
ATOM     22  C   UNL     1      13.033   0.128  71.306  0.00  0.00    +0.000 A 
ATOM     23  C   UNL     1      13.973   0.305  70.104  0.00  0.00    +0.000 A 
ATOM     24  H   UNL     1      12.826   3.611  73.237  0.00  0.00    +0.000 HD
ENDBRANCH  12  16
ENDBRANCH   8  10
BRANCH   4  25
ATOM     25  N   UNL     1      13.577  10.734  69.995  0.00  0.00    +0.000 N 
ATOM     26  H   UNL     1      14.284  11.361  70.374  0.00  0.00    +0.000 HD
BRANCH  25  27
ATOM     27  C   UNL     1      14.110   9.500  69.425  0.00  0.00    +0.000 C 
BRANCH  27  28
ATOM     28  C   UNL     1      14.723   8.190  68.918  0.00  0.00    +0.000 C 
ATOM     29  C   UNL     1      15.290   6.837  68.481  0.00  0.00    +0.000 C 
BRANCH  29  30
ATOM     30  N   UNL     1      15.745   5.617  68.115  0.00  0.00    +0.000 N 
ATOM     31  C   UNL     1      17.052   5.155  68.063  0.00  0.00    +0.000 C 
ATOM     32  O   UNL     1      17.993   5.871  68.401  0.00  0.00    +0.000 OA
ATOM     33  H   UNL     1      15.015   4.998  67.782  0.00  0.00    +0.000 HD
BRANCH  31  34
ATOM     34  C   UNL     1      17.202   3.797  67.566  0.00  0.00    +0.000 A 
ATOM     35  S   UNL     1      17.617   3.526  65.918  0.00  0.00    +0.000 S 
ATOM     36  C   UNL     1      17.577   1.845  66.128  0.00  0.00    +0.000 A 
ATOM     37  C   UNL     1      17.263   1.469  67.405  0.00  0.00    +0.000 A 
ATOM     38  C   UNL     1      17.048   2.597  68.229  0.00  0.00    +0.000 A 
ENDBRANCH  31  34
ENDBRANCH  29  30
ENDBRANCH  27  28
ENDBRANCH  25  27
ENDBRANCH   4  25
TORSDOF 7
ENDMDL
MODEL 2
REMARK VINA RESULT:      -3.8      6.149      8.713
REMARK  Name = BX795.pdbqt.pdb
REMARK  7 active torsions:
REMARK  status: ('A' for Active; 'I' for Inactive)
REMARK    1  A    between atoms: C_4  and  N_25
REMARK    2  A    between atoms: N_8  and  C_10
REMARK    3  A    between atoms: C_12  and  N_16
REMARK    4  A    between atoms: N_25  and  C_27
REMARK    5  A    between atoms: C_27  and  C_28
REMARK    6  A    between atoms: C_29  and  N_30
REMARK    7  A    between atoms: C_31  and  C_34
REMARK                            x       y       z     vdW  Elec       q    Type
REMARK                         _______ _______ _______ _____ _____    ______ ____
ROOT
ATOM      1  I   UNL     1      19.816   5.719  66.744  0.00  0.00    +0.000 I 
ATOM      2  N   UNL     1      16.465   8.097  68.090  0.00  0.00    +0.000 NA
ATOM      3  N   UNL     1      15.916   5.846  68.502  0.00  0.00    +0.000 NA
ATOM      4  C   UNL     1      17.648   7.744  67.544  0.00  0.00    +0.000 A 
ATOM      5  C   UNL     1      15.633   7.150  68.548  0.00  0.00    +0.000 A 
ATOM      6  C   UNL     1      18.033   6.419  67.505  0.00  0.00    +0.000 A 
ATOM      7  C   UNL     1      17.119   5.519  67.995  0.00  0.00    +0.000 A 
ATOM      8  N   UNL     1      14.389   7.497  69.063  0.00  0.00    +0.000 N 
ATOM      9  H   UNL     1      13.846   6.679  69.299  0.00  0.00    +0.000 HD
ENDROOT
BRANCH   8  10
ATOM     10  C   UNL     1      13.893   8.743  69.463  0.00  0.00    +0.000 A 
ATOM     11  C   UNL     1      13.534   9.017  70.786  0.00  0.00    +0.000 A 
ATOM     12  C   UNL     1      13.134  10.289  71.195  0.00  0.00    +0.000 A 
ATOM     13  C   UNL     1      13.118  11.325  70.268  0.00  0.00    +0.000 A 
ATOM     14  C   UNL     1      13.482  11.083  68.946  0.00  0.00    +0.000 A 
ATOM     15  C   UNL     1      13.869   9.802  68.551  0.00  0.00    +0.000 A 
BRANCH  12  16
ATOM     16  N   UNL     1      12.722  10.442  72.531  0.00  0.00    +0.000 N 
ATOM     17  C   UNL     1      11.472  10.136  73.038  0.00  0.00    +0.000 C 
ATOM     18  O   UNL     1      10.505   9.817  72.347  0.00  0.00    +0.000 OA
ATOM     19  N   UNL     1      11.388  10.250  74.426  0.00  0.00    +0.000 N 
ATOM     20  C   UNL     1      12.297  10.606  75.376  0.00  0.00    +0.000 A 
ATOM     21  C   UNL     1      10.313  10.034  75.234  0.00  0.00    +0.000 A 
ATOM     22  C   UNL     1      11.895  10.662  76.854  0.00  0.00    +0.000 A 
ATOM     23  C   UNL     1      10.423  10.237  76.749  0.00  0.00    +0.000 A 
ATOM     24  H   UNL     1      13.382  10.884  73.160  0.00  0.00    +0.000 HD
ENDBRANCH  12  16
ENDBRANCH   8  10
BRANCH   4  25
ATOM     25  N   UNL     1      18.514   8.766  67.077  0.00  0.00    +0.000 N 
ATOM     26  H   UNL     1      19.463   8.584  67.396  0.00  0.00    +0.000 HD
BRANCH  25  27
ATOM     27  C   UNL     1      18.407   9.094  65.658  0.00  0.00    +0.000 C 
BRANCH  27  28
ATOM     28  C   UNL     1      18.402   9.460  64.170  0.00  0.00    +0.000 C 
ATOM     29  C   UNL     1      18.463   9.760  62.670  0.00  0.00    +0.000 C 
BRANCH  29  30
ATOM     30  N   UNL     1      18.532   9.972  61.336  0.00  0.00    +0.000 N 
ATOM     31  C   UNL     1      17.569   9.732  60.366  0.00  0.00    +0.000 C 
ATOM     32  O   UNL     1      16.461   9.290  60.666  0.00  0.00    +0.000 OA
ATOM     33  H   UNL     1      19.441  10.294  61.026  0.00  0.00    +0.000 HD
BRANCH  31  34
ATOM     34  C   UNL     1      17.988  10.020  59.005  0.00  0.00    +0.000 A 
ATOM     35  S   UNL     1      17.512  11.494  58.253  0.00  0.00    +0.000 S 
ATOM     36  C   UNL     1      18.313  11.083  56.818  0.00  0.00    +0.000 A 
ATOM     37  C   UNL     1      18.937   9.868  56.877  0.00  0.00    +0.000 A 
ATOM     38  C   UNL     1      18.747   9.260  58.138  0.00  0.00    +0.000 A 
ENDBRANCH  31  34
ENDBRANCH  29  30
ENDBRANCH  27  28
ENDBRANCH  25  27
ENDBRANCH   4  25
TORSDOF 7
ENDMDL
MODEL 3
REMARK VINA RESULT:      -3.7     13.104     16.871
REMARK  Name = BX795.pdbqt.pdb
REMARK  7 active torsions:
REMARK  status: ('A' for Active; 'I' for Inactive)
REMARK    1  A    between atoms: C_4  and  N_25
REMARK    2  A    between atoms: N_8  and  C_10
REMARK    3  A    between atoms: C_12  and  N_16
REMARK    4  A    between atoms: N_25  and  C_27
REMARK    5  A    between atoms: C_27  and  C_28
REMARK    6  A    between atoms: C_29  and  N_30
REMARK    7  A    between atoms: C_31  and  C_34
REMARK                            x       y       z     vdW  Elec       q    Type
REMARK                         _______ _______ _______ _____ _____    ______ ____
ROOT
ATOM      1  I   UNL     1      19.660   8.824  63.585  0.00  0.00    +0.000 I 
ATOM      2  N   UNL     1      19.299   9.470  59.324  0.00  0.00    +0.000 NA
ATOM      3  N   UNL     1      17.170   9.843  60.256  0.00  0.00    +0.000 NA
ATOM      4  C   UNL     1      19.811   9.158  60.534  0.00  0.00    +0.000 A 
ATOM      5  C   UNL     1      18.003   9.799  59.214  0.00  0.00    +0.000 A 
ATOM      6  C   UNL     1      19.025   9.230  61.666  0.00  0.00    +0.000 A 
ATOM      7  C   UNL     1      17.711   9.572  61.459  0.00  0.00    +0.000 A 
ATOM      8  N   UNL     1      17.451  10.070  57.966  0.00  0.00    +0.000 N 
ATOM      9  H   UNL     1      16.456  10.228  58.030  0.00  0.00    +0.000 HD
ENDROOT
BRANCH   8  10
ATOM     10  C   UNL     1      18.075  10.336  56.742  0.00  0.00    +0.000 A 
ATOM     11  C   UNL     1      18.226   9.361  55.751  0.00  0.00    +0.000 A 
ATOM     12  C   UNL     1      18.759   9.659  54.497  0.00  0.00    +0.000 A 
ATOM     13  C   UNL     1      19.127  10.969  54.211  0.00  0.00    +0.000 A 
ATOM     14  C   UNL     1      18.976  11.961  55.176  0.00  0.00    +0.000 A 
ATOM     15  C   UNL     1      18.452  11.644  56.429  0.00  0.00    +0.000 A 
BRANCH  12  16
ATOM     16  N   UNL     1      18.937   8.592  53.598  0.00  0.00    +0.000 N 
ATOM     17  C   UNL     1      20.083   7.830  53.455  0.00  0.00    +0.000 C 
ATOM     18  O   UNL     1      21.153   8.081  54.008  0.00  0.00    +0.000 OA
ATOM     19  N   UNL     1      19.929   6.747  52.590  0.00  0.00    +0.000 N 
ATOM     20  C   UNL     1      18.871   6.296  51.859  0.00  0.00    +0.000 A 
ATOM     21  C   UNL     1      20.850   5.812  52.225  0.00  0.00    +0.000 A 
ATOM     22  C   UNL     1      19.015   5.061  50.963  0.00  0.00    +0.000 A 
ATOM     23  C   UNL     1      20.484   4.701  51.234  0.00  0.00    +0.000 A 
ATOM     24  H   UNL     1      18.180   8.418  52.948  0.00  0.00    +0.000 HD
ENDBRANCH  12  16
ENDBRANCH   8  10
BRANCH   4  25
ATOM     25  N   UNL     1      21.187   8.825  60.625  0.00  0.00    +0.000 N 
ATOM     26  H   UNL     1      21.365   8.344  61.504  0.00  0.00    +0.000 HD
BRANCH  25  27
ATOM     27  C   UNL     1      21.764   8.173  59.453  0.00  0.00    +0.000 C 
BRANCH  27  28
ATOM     28  C   UNL     1      22.272   7.448  58.202  0.00  0.00    +0.000 C 
ATOM     29  C   UNL     1      22.717   6.773  56.902  0.00  0.00    +0.000 C 
BRANCH  29  30
ATOM     30  N   UNL     1      23.094   6.222  55.726  0.00  0.00    +0.000 N 
ATOM     31  C   UNL     1      23.355   4.891  55.432  0.00  0.00    +0.000 C 
ATOM     32  O   UNL     1      23.229   4.015  56.286  0.00  0.00    +0.000 OA
ATOM     33  H   UNL     1      23.259   6.905  54.995  0.00  0.00    +0.000 HD
BRANCH  31  34
ATOM     34  C   UNL     1      23.799   4.641  54.071  0.00  0.00    +0.000 A 
ATOM     35  S   UNL     1      23.455   3.132  53.318  0.00  0.00    +0.000 S 
ATOM     36  C   UNL     1      24.254   3.597  51.898  0.00  0.00    +0.000 A 
ATOM     37  C   UNL     1      24.776   4.859  51.961  0.00  0.00    +0.000 A 
ATOM     38  C   UNL     1      24.511   5.456  53.214  0.00  0.00    +0.000 A 
ENDBRANCH  31  34
ENDBRANCH  29  30
ENDBRANCH  27  28
ENDBRANCH  25  27
ENDBRANCH   4  25
TORSDOF 7
ENDMDL
MODEL 4
REMARK VINA RESULT:      -3.6      9.545     13.008
REMARK  Name = BX795.pdbqt.pdb
REMARK  7 active torsions:
REMARK  status: ('A' for Active; 'I' for Inactive)
REMARK    1  A    between atoms: C_4  and  N_25
REMARK    2  A    between atoms: N_8  and  C_10
REMARK    3  A    between atoms: C_12  and  N_16
REMARK    4  A    between atoms: N_25  and  C_27
REMARK    5  A    between atoms: C_27  and  C_28
REMARK    6  A    between atoms: C_29  and  N_30
REMARK    7  A    between atoms: C_31  and  C_34
REMARK                            x       y       z     vdW  Elec       q    Type
REMARK                         _______ _______ _______ _____ _____    ______ ____
ROOT
ATOM      1  I   UNL     1      11.494  10.315  75.794  0.00  0.00    +0.000 I 
ATOM      2  N   UNL     1       7.382   9.945  74.505  0.00  0.00    +0.000 NA
ATOM      3  N   UNL     1       8.451  11.386  72.982  0.00  0.00    +0.000 NA
ATOM      4  C   UNL     1       8.514   9.818  75.231  0.00  0.00    +0.000 A 
ATOM      5  C   UNL     1       7.376  10.720  73.411  0.00  0.00    +0.000 A 
ATOM      6  C   UNL     1       9.679  10.436  74.824  0.00  0.00    +0.000 A 
ATOM      7  C   UNL     1       9.579  11.211  73.694  0.00  0.00    +0.000 A 
ATOM      8  N   UNL     1       6.203  10.901  72.685  0.00  0.00    +0.000 N 
ATOM      9  H   UNL     1       6.332  11.565  71.936  0.00  0.00    +0.000 HD
ENDROOT
BRANCH   8  10
ATOM     10  C   UNL     1       5.001  10.186  72.721  0.00  0.00    +0.000 A 
ATOM     11  C   UNL     1       4.516   9.479  71.617  0.00  0.00    +0.000 A 
ATOM     12  C   UNL     1       3.369   8.690  71.690  0.00  0.00    +0.000 A 
ATOM     13  C   UNL     1       2.699   8.578  72.903  0.00  0.00    +0.000 A 
ATOM     14  C   UNL     1       3.166   9.263  74.022  0.00  0.00    +0.000 A 
ATOM     15  C   UNL     1       4.310  10.057  73.929  0.00  0.00    +0.000 A 
BRANCH  12  16
ATOM     16  N   UNL     1       2.924   8.079  70.503  0.00  0.00    +0.000 N 
ATOM     17  C   UNL     1       2.117   8.661  69.541  0.00  0.00    +0.000 C 
ATOM     18  O   UNL     1       1.566   9.753  69.670  0.00  0.00    +0.000 OA
ATOM     19  N   UNL     1       1.954   7.875  68.400  0.00  0.00    +0.000 N 
ATOM     20  C   UNL     1       2.433   6.647  68.052  0.00  0.00    +0.000 A 
ATOM     21  C   UNL     1       1.225   8.141  67.281  0.00  0.00    +0.000 A 
ATOM     22  C   UNL     1       2.053   6.018  66.707  0.00  0.00    +0.000 A 
ATOM     23  C   UNL     1       1.156   7.126  66.134  0.00  0.00    +0.000 A 
ATOM     24  H   UNL     1       3.160   7.102  70.382  0.00  0.00    +0.000 HD
ENDBRANCH  12  16
ENDBRANCH   8  10
BRANCH   4  25
ATOM     25  N   UNL     1       8.497   8.983  76.378  0.00  0.00    +0.000 N 
ATOM     26  H   UNL     1       8.888   9.485  77.172  0.00  0.00    +0.000 HD
BRANCH  25  27
ATOM     27  C   UNL     1       7.234   8.305  76.655  0.00  0.00    +0.000 C 
BRANCH  27  28
ATOM     28  C   UNL     1       5.897   7.659  77.032  0.00  0.00    +0.000 C 
ATOM     29  C   UNL     1       4.536   7.019  77.318  0.00  0.00    +0.000 C 
BRANCH  29  30
ATOM     30  N   UNL     1       3.333   6.434  77.518  0.00  0.00    +0.000 N 
ATOM     31  C   UNL     1       2.562   5.702  76.626  0.00  0.00    +0.000 C 
ATOM     32  O   UNL     1       2.954   5.480  75.481  0.00  0.00    +0.000 OA
ATOM     33  H   UNL     1       2.940   6.622  78.433  0.00  0.00    +0.000 HD
BRANCH  31  34
ATOM     34  C   UNL     1       1.281   5.256  77.148  0.00  0.00    +0.000 A 
ATOM     35  S   UNL     1       1.175   4.632  78.749  0.00  0.00    +0.000 S 
ATOM     36  C   UNL     1      -0.488   4.347  78.585  0.00  0.00    +0.000 A 
ATOM     37  C   UNL     1      -0.978   4.709  77.362  0.00  0.00    +0.000 A 
ATOM     38  C   UNL     1       0.043   5.232  76.538  0.00  0.00    +0.000 A 
ENDBRANCH  31  34
ENDBRANCH  29  30
ENDBRANCH  27  28
ENDBRANCH  25  27
ENDBRANCH   4  25
TORSDOF 7
ENDMDL
MODEL 5
REMARK VINA RESULT:      -3.6      4.127      8.121
REMARK  Name = BX795.pdbqt.pdb
REMARK  7 active torsions:
REMARK  status: ('A' for Active; 'I' for Inactive)
REMARK    1  A    between atoms: C_4  and  N_25
REMARK    2  A    between atoms: N_8  and  C_10
REMARK    3  A    between atoms: C_12  and  N_16
REMARK    4  A    between atoms: N_25  and  C_27
REMARK    5  A    between atoms: C_27  and  C_28
REMARK    6  A    between atoms: C_29  and  N_30
REMARK    7  A    between atoms: C_31  and  C_34
REMARK                            x       y       z     vdW  Elec       q    Type
REMARK                         _______ _______ _______ _____ _____    ______ ____
ROOT
ATOM      1  I   UNL     1      16.740  -2.851  70.715  0.00  0.00    +0.000 I 
ATOM      2  N   UNL     1      14.266  -0.204  73.075  0.00  0.00    +0.000 NA
ATOM      3  N   UNL     1      15.586  -1.434  74.585  0.00  0.00    +0.000 NA
ATOM      4  C   UNL     1      14.801  -0.857  72.022  0.00  0.00    +0.000 A 
ATOM      5  C   UNL     1      14.664  -0.506  74.319  0.00  0.00    +0.000 A 
ATOM      6  C   UNL     1      15.796  -1.795  72.212  0.00  0.00    +0.000 A 
ATOM      7  C   UNL     1      16.139  -2.042  73.519  0.00  0.00    +0.000 A 
ATOM      8  N   UNL     1      14.082   0.122  75.415  0.00  0.00    +0.000 N 
ATOM      9  H   UNL     1      14.427  -0.258  76.284  0.00  0.00    +0.000 HD
ENDROOT
BRANCH   8  10
ATOM     10  C   UNL     1      13.285   1.271  75.479  0.00  0.00    +0.000 A 
ATOM     11  C   UNL     1      13.770   2.538  75.142  0.00  0.00    +0.000 A 
ATOM     12  C   UNL     1      12.944   3.662  75.113  0.00  0.00    +0.000 A 
ATOM     13  C   UNL     1      11.592   3.516  75.402  0.00  0.00    +0.000 A 
ATOM     14  C   UNL     1      11.081   2.264  75.730  0.00  0.00    +0.000 A 
ATOM     15  C   UNL     1      11.923   1.152  75.765  0.00  0.00    +0.000 A 
BRANCH  12  16
ATOM     16  N   UNL     1      13.545   4.902  74.833  0.00  0.00    +0.000 N 
ATOM     17  C   UNL     1      13.686   5.475  73.582  0.00  0.00    +0.000 C 
ATOM     18  O   UNL     1      13.422   4.902  72.526  0.00  0.00    +0.000 OA
ATOM     19  N   UNL     1      14.189   6.776  73.617  0.00  0.00    +0.000 N 
ATOM     20  C   UNL     1      14.571   7.588  74.642  0.00  0.00    +0.000 A 
ATOM     21  C   UNL     1      14.454   7.614  72.576  0.00  0.00    +0.000 A 
ATOM     22  C   UNL     1      15.117   8.991  74.360  0.00  0.00    +0.000 A 
ATOM     23  C   UNL     1      15.031   9.011  72.827  0.00  0.00    +0.000 A 
ATOM     24  H   UNL     1      13.977   5.381  75.614  0.00  0.00    +0.000 HD
ENDBRANCH  12  16
ENDBRANCH   8  10
BRANCH   4  25
ATOM     25  N   UNL     1      14.370  -0.511  70.716  0.00  0.00    +0.000 N 
ATOM     26  H   UNL     1      13.451  -0.912  70.540  0.00  0.00    +0.000 HD
BRANCH  25  27
ATOM     27  C   UNL     1      14.491   0.900  70.357  0.00  0.00    +0.000 C 
BRANCH  27  28
ATOM     28  C   UNL     1      14.648   2.399  70.083  0.00  0.00    +0.000 C 
ATOM     29  C   UNL     1      14.821   3.909  69.901  0.00  0.00    +0.000 C 
BRANCH  29  30
ATOM     30  N   UNL     1      15.009   5.244  69.785  0.00  0.00    +0.000 N 
ATOM     31  C   UNL     1      15.500   5.963  68.705  0.00  0.00    +0.000 C 
ATOM     32  O   UNL     1      15.810   5.400  67.655  0.00  0.00    +0.000 OA
ATOM     33  H   UNL     1      14.812   5.754  70.638  0.00  0.00    +0.000 HD
BRANCH  31  34
ATOM     34  C   UNL     1      15.630   7.392  68.930  0.00  0.00    +0.000 A 
ATOM     35  S   UNL     1      14.277   8.428  68.683  0.00  0.00    +0.000 S 
ATOM     36  C   UNL     1      15.183   9.799  69.098  0.00  0.00    +0.000 A 
ATOM     37  C   UNL     1      16.479   9.510  69.423  0.00  0.00    +0.000 A 
ATOM     38  C   UNL     1      16.732   8.124  69.325  0.00  0.00    +0.000 A 
ENDBRANCH  31  34
ENDBRANCH  29  30
ENDBRANCH  27  28
ENDBRANCH  25  27
ENDBRANCH   4  25
TORSDOF 7
ENDMDL
MODEL 6
REMARK VINA RESULT:      -3.4     10.443     13.282
REMARK  Name = BX795.pdbqt.pdb
REMARK  7 active torsions:
REMARK  status: ('A' for Active; 'I' for Inactive)
REMARK    1  A    between atoms: C_4  and  N_25
REMARK    2  A    between atoms: N_8  and  C_10
REMARK    3  A    between atoms: C_12  and  N_16
REMARK    4  A    between atoms: N_25  and  C_27
REMARK    5  A    between atoms: C_27  and  C_28
REMARK    6  A    between atoms: C_29  and  N_30
REMARK    7  A    between atoms: C_31  and  C_34
REMARK                            x       y       z     vdW  Elec       q    Type
REMARK                         _______ _______ _______ _____ _____    ______ ____
ROOT
ATOM      1  I   UNL     1       3.523  -5.150  74.126  0.00  0.00    +0.000 I 
ATOM      2  N   UNL     1       6.414  -2.970  71.759  0.00  0.00    +0.000 NA
ATOM      3  N   UNL     1       7.548  -4.799  72.712  0.00  0.00    +0.000 NA
ATOM      4  C   UNL     1       5.265  -3.318  72.377  0.00  0.00    +0.000 A 
ATOM      5  C   UNL     1       7.518  -3.709  71.942  0.00  0.00    +0.000 A 
ATOM      6  C   UNL     1       5.203  -4.460  73.150  0.00  0.00    +0.000 A 
ATOM      7  C   UNL     1       6.381  -5.154  73.283  0.00  0.00    +0.000 A 
ATOM      8  N   UNL     1       8.721  -3.331  71.355  0.00  0.00    +0.000 N 
ATOM      9  H   UNL     1       9.477  -3.936  71.640  0.00  0.00    +0.000 HD
ENDROOT
BRANCH   8  10
ATOM     10  C   UNL     1       8.976  -2.410  70.332  0.00  0.00    +0.000 A 
ATOM     11  C   UNL     1       8.763  -2.710  68.984  0.00  0.00    +0.000 A 
ATOM     12  C   UNL     1       8.925  -1.755  67.980  0.00  0.00    +0.000 A 
ATOM     13  C   UNL     1       9.284  -0.458  68.330  0.00  0.00    +0.000 A 
ATOM     14  C   UNL     1       9.492  -0.130  69.667  0.00  0.00    +0.000 A 
ATOM     15  C   UNL     1       9.336  -1.099  70.658  0.00  0.00    +0.000 A 
BRANCH  12  16
ATOM     16  N   UNL     1       8.758  -2.178  66.649  0.00  0.00    +0.000 N 
ATOM     17  C   UNL     1       7.784  -1.737  65.771  0.00  0.00    +0.000 C 
ATOM     18  O   UNL     1       6.844  -1.011  66.089  0.00  0.00    +0.000 OA
ATOM     19  N   UNL     1       7.945  -2.218  64.471  0.00  0.00    +0.000 N 
ATOM     20  C   UNL     1       8.872  -3.039  63.902  0.00  0.00    +0.000 A 
ATOM     21  C   UNL     1       7.168  -1.988  63.376  0.00  0.00    +0.000 A 
ATOM     22  C   UNL     1       8.772  -3.414  62.420  0.00  0.00    +0.000 A 
ATOM     23  C   UNL     1       7.507  -2.635  62.029  0.00  0.00    +0.000 A 
ATOM     24  H   UNL     1       9.363  -2.926  66.333  0.00  0.00    +0.000 HD
ENDBRANCH  12  16
ENDBRANCH   8  10
BRANCH   4  25
ATOM     25  N   UNL     1       4.108  -2.526  72.158  0.00  0.00    +0.000 N 
ATOM     26  H   UNL     1       3.929  -1.948  72.976  0.00  0.00    +0.000 HD
BRANCH  25  27
ATOM     27  C   UNL     1       4.058  -1.807  70.888  0.00  0.00    +0.000 C 
BRANCH  27  28
ATOM     28  C   UNL     1       4.024  -1.146  69.506  0.00  0.00    +0.000 C 
ATOM     29  C   UNL     1       4.064  -0.540  68.101  0.00  0.00    +0.000 C 
BRANCH  29  30
ATOM     30  N   UNL     1       4.122  -0.052  66.841  0.00  0.00    +0.000 N 
ATOM     31  C   UNL     1       3.884   1.241  66.396  0.00  0.00    +0.000 C 
ATOM     32  O   UNL     1       3.600   2.142  67.185  0.00  0.00    +0.000 OA
ATOM     33  H   UNL     1       4.307  -0.762  66.142  0.00  0.00    +0.000 HD
BRANCH  31  34
ATOM     34  C   UNL     1       3.976   1.419  64.957  0.00  0.00    +0.000 A 
ATOM     35  S   UNL     1       3.802   0.064  63.910  0.00  0.00    +0.000 S 
ATOM     36  C   UNL     1       4.039   1.028  62.536  0.00  0.00    +0.000 A 
ATOM     37  C   UNL     1       4.243   2.347  62.831  0.00  0.00    +0.000 A 
ATOM     38  C   UNL     1       4.206   2.567  64.226  0.00  0.00    +0.000 A 
ENDBRANCH  31  34
ENDBRANCH  29  30
ENDBRANCH  27  28
ENDBRANCH  25  27
ENDBRANCH   4  25
TORSDOF 7
ENDMDL
MODEL 7
REMARK VINA RESULT:      -3.4     13.374     16.815
REMARK  Name = BX795.pdbqt.pdb
REMARK  7 active torsions:
REMARK  status: ('A' for Active; 'I' for Inactive)
REMARK    1  A    between atoms: C_4  and  N_25
REMARK    2  A    between atoms: N_8  and  C_10
REMARK    3  A    between atoms: C_12  and  N_16
REMARK    4  A    between atoms: N_25  and  C_27
REMARK    5  A    between atoms: C_27  and  C_28
REMARK    6  A    between atoms: C_29  and  N_30
REMARK    7  A    between atoms: C_31  and  C_34
REMARK                            x       y       z     vdW  Elec       q    Type
REMARK                         _______ _______ _______ _____ _____    ______ ____
ROOT
ATOM      1  I   UNL     1       2.754  -5.325  75.949  0.00  0.00    +0.000 I 
ATOM      2  N   UNL     1       3.451  -2.922  72.422  0.00  0.00    +0.000 NA
ATOM      3  N   UNL     1       5.538  -3.230  73.464  0.00  0.00    +0.000 NA
ATOM      4  C   UNL     1       2.826  -3.621  73.393  0.00  0.00    +0.000 A 
ATOM      5  C   UNL     1       4.779  -2.742  72.481  0.00  0.00    +0.000 A 
ATOM      6  C   UNL     1       3.549  -4.200  74.416  0.00  0.00    +0.000 A 
ATOM      7  C   UNL     1       4.902  -3.962  74.398  0.00  0.00    +0.000 A 
ATOM      8  N   UNL     1       5.428  -1.978  71.516  0.00  0.00    +0.000 N 
ATOM      9  H   UNL     1       6.408  -1.869  71.730  0.00  0.00    +0.000 HD
ENDROOT
BRANCH   8  10
ATOM     10  C   UNL     1       4.983  -1.538  70.265  0.00  0.00    +0.000 A 
ATOM     11  C   UNL     1       3.805  -0.801  70.105  0.00  0.00    +0.000 A 
ATOM     12  C   UNL     1       3.421  -0.281  68.869  0.00  0.00    +0.000 A 
ATOM     13  C   UNL     1       4.244  -0.477  67.766  0.00  0.00    +0.000 A 
ATOM     14  C   UNL     1       5.428  -1.197  67.900  0.00  0.00    +0.000 A 
ATOM     15  C   UNL     1       5.793  -1.720  69.141  0.00  0.00    +0.000 A 
BRANCH  12  16
ATOM     16  N   UNL     1       2.182   0.381  68.801  0.00  0.00    +0.000 N 
ATOM     17  C   UNL     1       1.969   1.664  68.327  0.00  0.00    +0.000 C 
ATOM     18  O   UNL     1       2.869   2.448  68.030  0.00  0.00    +0.000 OA
ATOM     19  N   UNL     1       0.621   2.011  68.241  0.00  0.00    +0.000 N 
ATOM     20  C   UNL     1      -0.524   1.333  68.534  0.00  0.00    +0.000 A 
ATOM     21  C   UNL     1       0.070   3.186  67.827  0.00  0.00    +0.000 A 
ATOM     22  C   UNL     1      -1.891   2.001  68.351  0.00  0.00    +0.000 A 
ATOM     23  C   UNL     1      -1.451   3.376  67.826  0.00  0.00    +0.000 A 
ATOM     24  H   UNL     1       1.388  -0.103  69.203  0.00  0.00    +0.000 HD
ENDBRANCH  12  16
ENDBRANCH   8  10
BRANCH   4  25
ATOM     25  N   UNL     1       1.422  -3.807  73.301  0.00  0.00    +0.000 N 
ATOM     26  H   UNL     1       1.087  -4.300  74.125  0.00  0.00    +0.000 HD
BRANCH  25  27
ATOM     27  C   UNL     1       0.643  -2.623  72.949  0.00  0.00    +0.000 C 
BRANCH  27  28
ATOM     28  C   UNL     1      -0.139  -1.335  72.672  0.00  0.00    +0.000 C 
ATOM     29  C   UNL     1      -0.999  -0.093  72.421  0.00  0.00    +0.000 C 
BRANCH  29  30
ATOM     30  N   UNL     1      -1.793   0.986  72.239  0.00  0.00    +0.000 N 
ATOM     31  C   UNL     1      -1.660   2.264  72.764  0.00  0.00    +0.000 C 
ATOM     32  O   UNL     1      -0.706   2.559  73.483  0.00  0.00    +0.000 OA
ATOM     33  H   UNL     1      -2.622   0.789  71.690  0.00  0.00    +0.000 HD
BRANCH  31  34
ATOM     34  C   UNL     1      -2.729   3.184  72.413  0.00  0.00    +0.000 A 
ATOM     35  S   UNL     1      -4.013   3.472  73.522  0.00  0.00    +0.000 S 
ATOM     36  C   UNL     1      -4.773   4.539  72.448  0.00  0.00    +0.000 A 
ATOM     37  C   UNL     1      -4.093   4.696  71.273  0.00  0.00    +0.000 A 
ATOM     38  C   UNL     1      -2.917   3.914  71.257  0.00  0.00    +0.000 A 
ENDBRANCH  31  34
ENDBRANCH  29  30
ENDBRANCH  27  28
ENDBRANCH  25  27
ENDBRANCH   4  25
TORSDOF 7
ENDMDL
MODEL 8
REMARK VINA RESULT:      -3.4      8.851     12.741
REMARK  Name = BX795.pdbqt.pdb
REMARK  7 active torsions:
REMARK  status: ('A' for Active; 'I' for Inactive)
REMARK    1  A    between atoms: C_4  and  N_25
REMARK    2  A    between atoms: N_8  and  C_10
REMARK    3  A    between atoms: C_12  and  N_16
REMARK    4  A    between atoms: N_25  and  C_27
REMARK    5  A    between atoms: C_27  and  C_28
REMARK    6  A    between atoms: C_29  and  N_30
REMARK    7  A    between atoms: C_31  and  C_34
REMARK                            x       y       z     vdW  Elec       q    Type
REMARK                         _______ _______ _______ _____ _____    ______ ____
ROOT
ATOM      1  I   UNL     1      22.588  13.138  66.594  0.00  0.00    +0.000 I 
ATOM      2  N   UNL     1      19.346  12.175  63.899  0.00  0.00    +0.000 NA
ATOM      3  N   UNL     1      20.055  14.355  63.368  0.00  0.00    +0.000 NA
ATOM      4  C   UNL     1      20.249  12.090  64.899  0.00  0.00    +0.000 A 
ATOM      5  C   UNL     1      19.268  13.295  63.166  0.00  0.00    +0.000 A 
ATOM      6  C   UNL     1      21.131  13.125  65.137  0.00  0.00    +0.000 A 
ATOM      7  C   UNL     1      20.977  14.233  64.340  0.00  0.00    +0.000 A 
ATOM      8  N   UNL     1      18.307  13.417  62.169  0.00  0.00    +0.000 N 
ATOM      9  H   UNL     1      18.319  14.337  61.754  0.00  0.00    +0.000 HD
ENDROOT
BRANCH   8  10
ATOM     10  C   UNL     1      17.510  12.440  61.559  0.00  0.00    +0.000 A 
ATOM     11  C   UNL     1      17.730  12.005  60.249  0.00  0.00    +0.000 A 
ATOM     12  C   UNL     1      16.995  10.963  59.684  0.00  0.00    +0.000 A 
ATOM     13  C   UNL     1      16.033  10.317  60.453  0.00  0.00    +0.000 A 
ATOM     14  C   UNL     1      15.802  10.723  61.764  0.00  0.00    +0.000 A 
ATOM     15  C   UNL     1      16.538  11.775  62.311  0.00  0.00    +0.000 A 
BRANCH  12  16
ATOM     16  N   UNL     1      17.243  10.652  58.335  0.00  0.00    +0.000 N 
ATOM     17  C   UNL     1      18.190   9.759  57.866  0.00  0.00    +0.000 C 
ATOM     18  O   UNL     1      19.041   9.220  58.572  0.00  0.00    +0.000 OA
ATOM     19  N   UNL     1      18.117   9.538  56.490  0.00  0.00    +0.000 N 
ATOM     20  C   UNL     1      17.296  10.033  55.521  0.00  0.00    +0.000 A 
ATOM     21  C   UNL     1      18.897   8.735  55.715  0.00  0.00    +0.000 A 
ATOM     22  C   UNL     1      17.477   9.610  54.060  0.00  0.00    +0.000 A 
ATOM     23  C   UNL     1      18.665   8.647  54.202  0.00  0.00    +0.000 A 
ATOM     24  H   UNL     1      16.727  11.186  57.646  0.00  0.00    +0.000 HD
ENDBRANCH  12  16
ENDBRANCH   8  10
BRANCH   4  25
ATOM     25  N   UNL     1      20.319  10.889  65.652  0.00  0.00    +0.000 N 
ATOM     26  H   UNL     1      21.247  10.792  66.058  0.00  0.00    +0.000 HD
BRANCH  25  27
ATOM     27  C   UNL     1      19.224  10.661  66.591  0.00  0.00    +0.000 C 
BRANCH  27  28
ATOM     28  C   UNL     1      18.055  10.328  67.524  0.00  0.00    +0.000 C 
ATOM     29  C   UNL     1      16.925  10.053  68.520  0.00  0.00    +0.000 C 
BRANCH  29  30
ATOM     30  N   UNL     1      15.935   9.862  69.421  0.00  0.00    +0.000 N 
ATOM     31  C   UNL     1      14.564   9.815  69.211  0.00  0.00    +0.000 C 
ATOM     32  O   UNL     1      14.090   9.927  68.081  0.00  0.00    +0.000 OA
ATOM     33  H   UNL     1      16.264   9.809  70.378  0.00  0.00    +0.000 HD
BRANCH  31  34
ATOM     34  C   UNL     1      13.766   9.649  70.414  0.00  0.00    +0.000 A 
ATOM     35  S   UNL     1      14.081   8.335  71.480  0.00  0.00    +0.000 S 
ATOM     36  C   UNL     1      12.826   8.804  72.517  0.00  0.00    +0.000 A 
ATOM     37  C   UNL     1      12.168   9.926  72.094  0.00  0.00    +0.000 A 
ATOM     38  C   UNL     1      12.714  10.409  70.883  0.00  0.00    +0.000 A 
ENDBRANCH  31  34
ENDBRANCH  29  30
ENDBRANCH  27  28
ENDBRANCH  25  27
ENDBRANCH   4  25
TORSDOF 7
ENDMDL
MODEL 9
REMARK VINA RESULT:      -3.3      6.171      8.771
REMARK  Name = BX795.pdbqt.pdb
REMARK  7 active torsions:
REMARK  status: ('A' for Active; 'I' for Inactive)
REMARK    1  A    between atoms: C_4  and  N_25
REMARK    2  A    between atoms: N_8  and  C_10
REMARK    3  A    between atoms: C_12  and  N_16
REMARK    4  A    between atoms: N_25  and  C_27
REMARK    5  A    between atoms: C_27  and  C_28
REMARK    6  A    between atoms: C_29  and  N_30
REMARK    7  A    between atoms: C_31  and  C_34
REMARK                            x       y       z     vdW  Elec       q    Type
REMARK                         _______ _______ _______ _____ _____    ______ ____
ROOT
ATOM      1  I   UNL     1      20.981   6.968  64.406  0.00  0.00    +0.000 I 
ATOM      2  N   UNL     1      17.611   7.487  67.065  0.00  0.00    +0.000 NA
ATOM      3  N   UNL     1      17.978   5.170  66.869  0.00  0.00    +0.000 NA
ATOM      4  C   UNL     1      18.621   7.753  66.210  0.00  0.00    +0.000 A 
ATOM      5  C   UNL     1      17.314   6.215  67.369  0.00  0.00    +0.000 A 
ATOM      6  C   UNL     1      19.386   6.729  65.690  0.00  0.00    +0.000 A 
ATOM      7  C   UNL     1      19.009   5.460  66.054  0.00  0.00    +0.000 A 
ATOM      8  N   UNL     1      16.242   5.925  68.207  0.00  0.00    +0.000 N 
ATOM      9  H   UNL     1      16.093   4.929  68.285  0.00  0.00    +0.000 HD
ENDROOT
BRANCH   8  10
ATOM     10  C   UNL     1      15.512   6.759  69.061  0.00  0.00    +0.000 A 
ATOM     11  C   UNL     1      15.658   6.720  70.451  0.00  0.00    +0.000 A 
ATOM     12  C   UNL     1      15.001   7.621  71.288  0.00  0.00    +0.000 A 
ATOM     13  C   UNL     1      14.198   8.608  70.726  0.00  0.00    +0.000 A 
ATOM     14  C   UNL     1      14.045   8.676  69.344  0.00  0.00    +0.000 A 
ATOM     15  C   UNL     1      14.700   7.760  68.521  0.00  0.00    +0.000 A 
BRANCH  12  16
ATOM     16  N   UNL     1      15.156   7.450  72.676  0.00  0.00    +0.000 N 
ATOM     17  C   UNL     1      14.364   6.663  73.493  0.00  0.00    +0.000 C 
ATOM     18  O   UNL     1      13.326   6.114  73.127  0.00  0.00    +0.000 OA
ATOM     19  N   UNL     1      14.836   6.565  74.802  0.00  0.00    +0.000 N 
ATOM     20  C   UNL     1      15.923   7.095  75.430  0.00  0.00    +0.000 A 
ATOM     21  C   UNL     1      14.298   5.884  75.851  0.00  0.00    +0.000 A 
ATOM     22  C   UNL     1      16.173   6.819  76.916  0.00  0.00    +0.000 A 
ATOM     23  C   UNL     1      14.967   5.920  77.230  0.00  0.00    +0.000 A 
ATOM     24  H   UNL     1      15.870   8.013  73.123  0.00  0.00    +0.000 HD
ENDBRANCH  12  16
ENDBRANCH   8  10
BRANCH   4  25
ATOM     25  N   UNL     1      18.922   9.108  65.914  0.00  0.00    +0.000 N 
ATOM     26  H   UNL     1      19.930   9.226  65.839  0.00  0.00    +0.000 HD
BRANCH  25  27
ATOM     27  C   UNL     1      18.162   9.706  64.820  0.00  0.00    +0.000 C 
BRANCH  27  28
ATOM     28  C   UNL     1      17.373  10.239  63.620  0.00  0.00    +0.000 C 
ATOM     29  C   UNL     1      16.515  10.713  62.443  0.00  0.00    +0.000 C 
BRANCH  29  30
ATOM     30  N   UNL     1      15.712  11.118  61.434  0.00  0.00    +0.000 N 
ATOM     31  C   UNL     1      14.982  12.293  61.320  0.00  0.00    +0.000 C 
ATOM     32  O   UNL     1      15.027  13.156  62.196  0.00  0.00    +0.000 OA
ATOM     33  H   UNL     1      15.601  10.425  60.703  0.00  0.00    +0.000 HD
BRANCH  31  34
ATOM     34  C   UNL     1      14.168  12.394  60.121  0.00  0.00    +0.000 A 
ATOM     35  S   UNL     1      12.456  12.513  60.251  0.00  0.00    +0.000 S 
ATOM     36  C   UNL     1      12.277  12.565  58.567  0.00  0.00    +0.000 A 
ATOM     37  C   UNL     1      13.467  12.499  57.897  0.00  0.00    +0.000 A 
ATOM     38  C   UNL     1      14.552  12.401  58.795  0.00  0.00    +0.000 A 
ENDBRANCH  31  34
ENDBRANCH  29  30
ENDBRANCH  27  28
ENDBRANCH  25  27
ENDBRANCH   4  25
TORSDOF 7
ENDMDL
