MODEL 1
REMARK VINA RESULT:      -2.2      0.000      0.000
REMARK  Name = CadmiumAcetate.pdbqt.pdb
REMARK  1 active torsions:
REMARK  status: ('A' for Active; 'I' for Inactive)
REMARK    1  A    between atoms: C_3  and  O_4
REMARK                            x       y       z     vdW  Elec       q    Type
REMARK                         _______ _______ _______ _____ _____    ______ ____
ROOT
ATOM      1  O   UNL     1       3.671   7.814  72.658  0.00  0.00    +0.000 OA
ATOM      2  C   UNL     1       2.765   8.647  70.716  0.00  0.00    +0.000 C 
ATOM      3  C   UNL     1       3.912   8.230  71.544  0.00  0.00    +0.000 C 
ENDROOT
BRANCH   3   4
ATOM      4  O   UNL     1       5.115   8.350  70.984  0.00  0.00    +0.000 OA
ATOM      5  H   UNL     1       5.716   8.192  71.735  0.00  0.00    +0.000 HD
ENDBRANCH   3   4
TORSDOF 1
ENDMDL
MODEL 2
REMARK VINA RESULT:      -1.7     14.967     15.134
REMARK  Name = CadmiumAcetate.pdbqt.pdb
REMARK  1 active torsions:
REMARK  status: ('A' for Active; 'I' for Inactive)
REMARK    1  A    between atoms: C_3  and  O_4
REMARK                            x       y       z     vdW  Elec       q    Type
REMARK                         _______ _______ _______ _____ _____    ______ ____
ROOT
ATOM      1  O   UNL     1       8.439   4.288  58.024  0.00  0.00    +0.000 OA
ATOM      2  C   UNL     1       9.500   2.353  58.670  0.00  0.00    +0.000 C 
ATOM      3  C   UNL     1       9.509   3.775  58.277  0.00  0.00    +0.000 C 
ENDROOT
BRANCH   3   4
ATOM      4  O   UNL     1      10.702   4.365  58.238  0.00  0.00    +0.000 OA
ATOM      5  H   UNL     1      10.471   5.312  58.226  0.00  0.00    +0.000 HD
ENDBRANCH   3   4
TORSDOF 1
ENDMDL
MODEL 3
REMARK VINA RESULT:      -1.7     16.836     17.480
REMARK  Name = CadmiumAcetate.pdbqt.pdb
REMARK  1 active torsions:
REMARK  status: ('A' for Active; 'I' for Inactive)
REMARK    1  A    between atoms: C_3  and  O_4
REMARK                            x       y       z     vdW  Elec       q    Type
REMARK                         _______ _______ _______ _____ _____    ______ ____
ROOT
ATOM      1  O   UNL     1      15.953   9.650  60.789  0.00  0.00    +0.000 OA
ATOM      2  C   UNL     1      18.191   9.252  61.131  0.00  0.00    +0.000 C 
ATOM      3  C   UNL     1      17.048   9.605  60.268  0.00  0.00    +0.000 C 
ENDROOT
BRANCH   3   4
ATOM      4  O   UNL     1      17.330   9.844  58.989  0.00  0.00    +0.000 OA
ATOM      5  H   UNL     1      17.566   8.959  58.654  0.00  0.00    +0.000 HD
ENDBRANCH   3   4
TORSDOF 1
ENDMDL
MODEL 4
REMARK VINA RESULT:      -1.6      4.907      5.144
REMARK  Name = CadmiumAcetate.pdbqt.pdb
REMARK  1 active torsions:
REMARK  status: ('A' for Active; 'I' for Inactive)
REMARK    1  A    between atoms: C_3  and  O_4
REMARK                            x       y       z     vdW  Elec       q    Type
REMARK                         _______ _______ _______ _____ _____    ______ ____
ROOT
ATOM      1  O   UNL     1       2.143   4.718  67.889  0.00  0.00    +0.000 OA
ATOM      2  C   UNL     1       2.222   6.985  68.264  0.00  0.00    +0.000 C 
ATOM      3  C   UNL     1       2.281   5.809  67.376  0.00  0.00    +0.000 C 
ENDROOT
BRANCH   3   4
ATOM      4  O   UNL     1       2.481   6.059  66.083  0.00  0.00    +0.000 OA
ATOM      5  H   UNL     1       3.431   5.869  65.974  0.00  0.00    +0.000 HD
ENDBRANCH   3   4
TORSDOF 1
ENDMDL
MODEL 5
REMARK VINA RESULT:      -1.6      7.247      7.366
REMARK  Name = CadmiumAcetate.pdbqt.pdb
REMARK  1 active torsions:
REMARK  status: ('A' for Active; 'I' for Inactive)
REMARK    1  A    between atoms: C_3  and  O_4
REMARK                            x       y       z     vdW  Elec       q    Type
REMARK                         _______ _______ _______ _____ _____    ______ ____
ROOT
ATOM      1  O   UNL     1       2.549   3.549  67.522  0.00  0.00    +0.000 OA
ATOM      2  C   UNL     1       3.611   1.794  66.483  0.00  0.00    +0.000 C 
ATOM      3  C   UNL     1       2.936   2.405  67.644  0.00  0.00    +0.000 C 
ENDROOT
BRANCH   3   4
ATOM      4  O   UNL     1       2.814   1.635  68.724  0.00  0.00    +0.000 OA
ATOM      5  H   UNL     1       3.529   0.984  68.602  0.00  0.00    +0.000 HD
ENDBRANCH   3   4
TORSDOF 1
ENDMDL
MODEL 6
REMARK VINA RESULT:      -1.6     21.768     22.227
REMARK  Name = CadmiumAcetate.pdbqt.pdb
REMARK  1 active torsions:
REMARK  status: ('A' for Active; 'I' for Inactive)
REMARK    1  A    between atoms: C_3  and  O_4
REMARK                            x       y       z     vdW  Elec       q    Type
REMARK                         _______ _______ _______ _____ _____    ______ ____
ROOT
ATOM      1  O   UNL     1      10.398   5.455  51.394  0.00  0.00    +0.000 OA
ATOM      2  C   UNL     1      11.128   6.917  49.777  0.00  0.00    +0.000 C 
ATOM      3  C   UNL     1      11.360   5.849  50.768  0.00  0.00    +0.000 C 
ENDROOT
BRANCH   3   4
ATOM      4  O   UNL     1      12.615   5.416  50.882  0.00  0.00    +0.000 OA
ATOM      5  H   UNL     1      12.726   5.336  51.847  0.00  0.00    +0.000 HD
ENDBRANCH   3   4
TORSDOF 1
ENDMDL
MODEL 7
REMARK VINA RESULT:      -1.5     20.503     20.910
REMARK  Name = CadmiumAcetate.pdbqt.pdb
REMARK  1 active torsions:
REMARK  status: ('A' for Active; 'I' for Inactive)
REMARK    1  A    between atoms: C_3  and  O_4
REMARK                            x       y       z     vdW  Elec       q    Type
REMARK                         _______ _______ _______ _____ _____    ______ ____
ROOT
ATOM      1  O   UNL     1      18.163  10.075  57.331  0.00  0.00    +0.000 OA
ATOM      2  C   UNL     1      19.016   8.763  55.647  0.00  0.00    +0.000 C 
ATOM      3  C   UNL     1      17.933   9.556  56.259  0.00  0.00    +0.000 C 
ENDROOT
BRANCH   3   4
ATOM      4  O   UNL     1      16.796   9.628  55.568  0.00  0.00    +0.000 OA
ATOM      5  H   UNL     1      16.738  10.577  55.352  0.00  0.00    +0.000 HD
ENDBRANCH   3   4
TORSDOF 1
ENDMDL
MODEL 8
REMARK VINA RESULT:      -1.5     17.873     18.364
REMARK  Name = CadmiumAcetate.pdbqt.pdb
REMARK  1 active torsions:
REMARK  status: ('A' for Active; 'I' for Inactive)
REMARK    1  A    between atoms: C_3  and  O_4
REMARK                            x       y       z     vdW  Elec       q    Type
REMARK                         _______ _______ _______ _____ _____    ______ ____
ROOT
ATOM      1  O   UNL     1      18.715   2.045  61.556  0.00  0.00    +0.000 OA
ATOM      2  C   UNL     1      18.273   0.298  62.985  0.00  0.00    +0.000 C 
ATOM      3  C   UNL     1      17.849   1.338  62.029  0.00  0.00    +0.000 C 
ENDROOT
BRANCH   3   4
ATOM      4  O   UNL     1      16.543   1.401  61.772  0.00  0.00    +0.000 OA
ATOM      5  H   UNL     1      16.486   1.033  60.871  0.00  0.00    +0.000 HD
ENDBRANCH   3   4
TORSDOF 1
ENDMDL
MODEL 9
REMARK VINA RESULT:      -1.5     20.877     21.254
REMARK  Name = CadmiumAcetate.pdbqt.pdb
REMARK  1 active torsions:
REMARK  status: ('A' for Active; 'I' for Inactive)
REMARK    1  A    between atoms: C_3  and  O_4
REMARK                            x       y       z     vdW  Elec       q    Type
REMARK                         _______ _______ _______ _____ _____    ______ ____
ROOT
ATOM      1  O   UNL     1      18.136  11.069  55.613  0.00  0.00    +0.000 OA
ATOM      2  C   UNL     1      18.540   8.808  55.726  0.00  0.00    +0.000 C 
ATOM      3  C   UNL     1      17.643   9.963  55.530  0.00  0.00    +0.000 C 
ENDROOT
BRANCH   3   4
ATOM      4  O   UNL     1      16.366   9.679  55.278  0.00  0.00    +0.000 OA
ATOM      5  H   UNL     1      16.398   9.358  54.358  0.00  0.00    +0.000 HD
ENDBRANCH   3   4
TORSDOF 1
ENDMDL
