MODEL 1
REMARK VINA RESULT:      -5.0      0.000      0.000
REMARK  Name = Calcitriol.pdbqt.pdb
REMARK  9 active torsions:
REMARK  status: ('A' for Active; 'I' for Inactive)
REMARK    1  A    between atoms: C_2  and  C_24
REMARK    2  A    between atoms: C_7  and  C_11
REMARK    3  A    between atoms: C_12  and  C_13
REMARK    4  A    between atoms: C_16  and  O_20
REMARK    5  A    between atoms: C_18  and  O_22
REMARK    6  A    between atoms: C_24  and  C_26
REMARK    7  A    between atoms: C_27  and  C_28
REMARK    8  A    between atoms: C_28  and  C_29
REMARK    9  A    between atoms: C_29  and  O_32
REMARK                            x       y       z     vdW  Elec       q    Type
REMARK                         _______ _______ _______ _____ _____    ______ ____
ROOT
ATOM      1  C   UNL     1      12.636   1.227  74.484  0.00  0.00    +0.000 C 
ATOM      2  C   UNL     1      11.864   2.260  75.300  0.00  0.00    +0.000 C 
ATOM      3  C   UNL     1      13.394   2.136  73.372  0.00  0.00    +0.000 C 
ATOM      4  C   UNL     1      12.219   3.573  74.872  0.00  0.00    +0.000 C 
ATOM      5  C   UNL     1      13.174   3.508  73.712  0.00  0.00    +0.000 C 
ATOM      6  C   UNL     1      11.789   0.279  73.743  0.00  0.00    +0.000 C 
ATOM      7  C   UNL     1      13.463   1.708  71.969  0.00  0.00    +0.000 C 
ATOM      8  C   UNL     1      13.745   0.555  75.342  0.00  0.00    +0.000 C 
ATOM      9  C   UNL     1      11.584  -0.236  72.329  0.00  0.00    +0.000 C 
ATOM     10  C   UNL     1      12.587   0.648  71.617  0.00  0.00    +0.000 C 
ENDROOT
BRANCH   7  11
ATOM     11  C   UNL     1      14.148   2.315  71.051  0.00  0.00    +0.000 C 
ATOM     12  C   UNL     1      14.945   3.041  69.961  0.00  0.00    +0.000 C 
BRANCH  12  13
ATOM     13  C   UNL     1      15.615   3.663  69.039  0.00  0.00    +0.000 A 
ATOM     14  C   UNL     1      16.164   2.924  67.942  0.00  0.00    +0.000 A 
ATOM     15  C   UNL     1      15.950   5.122  69.005  0.00  0.00    +0.000 A 
ATOM     16  C   UNL     1      16.965   3.293  66.823  0.00  0.00    +0.000 A 
ATOM     17  C   UNL     1      17.211   4.692  66.922  0.00  0.00    +0.000 A 
ATOM     18  C   UNL     1      16.792   5.652  67.887  0.00  0.00    +0.000 A 
ATOM     19  C   UNL     1      15.510   5.979  69.945  0.00  0.00    +0.000 C 
BRANCH  16  20
ATOM     20  O   UNL     1      16.832   2.664  65.619  0.00  0.00    +0.000 OA
ATOM     21  H   UNL     1      15.949   2.270  65.522  0.00  0.00    +0.000 HD
ENDBRANCH  16  20
BRANCH  18  22
ATOM     22  O   UNL     1      17.126   6.982  67.798  0.00  0.00    +0.000 OA
ATOM     23  H   UNL     1      17.669   7.246  68.566  0.00  0.00    +0.000 HD
ENDBRANCH  18  22
ENDBRANCH  12  13
ENDBRANCH   7  11
BRANCH   2  24
ATOM     24  C   UNL     1      11.041   1.968  76.431  0.00  0.00    +0.000 C 
ATOM     25  C   UNL     1      11.365   0.881  77.424  0.00  0.00    +0.000 C 
BRANCH  24  26
ATOM     26  C   UNL     1       9.761   2.567  76.582  0.00  0.00    +0.000 C 
ATOM     27  C   UNL     1       8.384   3.219  76.761  0.00  0.00    +0.000 C 
BRANCH  27  28
ATOM     28  C   UNL     1       7.011   3.875  76.953  0.00  0.00    +0.000 C 
BRANCH  28  29
ATOM     29  C   UNL     1       5.701   4.501  77.131  0.00  0.00    +0.000 C 
ATOM     30  C   UNL     1       5.027   4.106  78.450  0.00  0.00    +0.000 C 
ATOM     31  C   UNL     1       5.735   6.026  76.978  0.00  0.00    +0.000 C 
BRANCH  29  32
ATOM     32  O   UNL     1       4.834   4.048  76.116  0.00  0.00    +0.000 OA
ATOM     33  H   UNL     1       4.120   3.712  76.678  0.00  0.00    +0.000 HD
ENDBRANCH  29  32
ENDBRANCH  28  29
ENDBRANCH  27  28
ENDBRANCH  24  26
ENDBRANCH   2  24
TORSDOF 9
ENDMDL
MODEL 2
REMARK VINA RESULT:      -4.8     14.102     20.189
REMARK  Name = Calcitriol.pdbqt.pdb
REMARK  9 active torsions:
REMARK  status: ('A' for Active; 'I' for Inactive)
REMARK    1  A    between atoms: C_2  and  C_24
REMARK    2  A    between atoms: C_7  and  C_11
REMARK    3  A    between atoms: C_12  and  C_13
REMARK    4  A    between atoms: C_16  and  O_20
REMARK    5  A    between atoms: C_18  and  O_22
REMARK    6  A    between atoms: C_24  and  C_26
REMARK    7  A    between atoms: C_27  and  C_28
REMARK    8  A    between atoms: C_28  and  C_29
REMARK    9  A    between atoms: C_29  and  O_32
REMARK                            x       y       z     vdW  Elec       q    Type
REMARK                         _______ _______ _______ _____ _____    ______ ____
ROOT
ATOM      1  C   UNL     1      18.181   0.039  53.611  0.00  0.00    +0.000 C 
ATOM      2  C   UNL     1      18.818  -0.178  54.980  0.00  0.00    +0.000 C 
ATOM      3  C   UNL     1      18.851   1.433  53.115  0.00  0.00    +0.000 C 
ATOM      4  C   UNL     1      19.820   0.812  55.205  0.00  0.00    +0.000 C 
ATOM      5  C   UNL     1      19.867   1.784  54.059  0.00  0.00    +0.000 C 
ATOM      6  C   UNL     1      16.726   0.262  53.645  0.00  0.00    +0.000 C 
ATOM      7  C   UNL     1      18.040   2.466  52.458  0.00  0.00    +0.000 C 
ATOM      8  C   UNL     1      18.634  -1.057  52.605  0.00  0.00    +0.000 C 
ATOM      9  C   UNL     1      15.694   1.269  53.170  0.00  0.00    +0.000 C 
ATOM     10  C   UNL     1      16.635   2.294  52.570  0.00  0.00    +0.000 C 
ENDROOT
BRANCH   7  11
ATOM     11  C   UNL     1      18.520   3.548  51.930  0.00  0.00    +0.000 C 
ATOM     12  C   UNL     1      19.088   4.822  51.293  0.00  0.00    +0.000 C 
BRANCH  12  13
ATOM     13  C   UNL     1      19.565   5.898  50.745  0.00  0.00    +0.000 A 
ATOM     14  C   UNL     1      20.456   5.789  49.629  0.00  0.00    +0.000 A 
ATOM     15  C   UNL     1      19.332   7.308  51.190  0.00  0.00    +0.000 A 
ATOM     16  C   UNL     1      21.168   6.749  48.854  0.00  0.00    +0.000 A 
ATOM     17  C   UNL     1      20.864   8.033  49.388  0.00  0.00    +0.000 A 
ATOM     18  C   UNL     1      20.023   8.424  50.470  0.00  0.00    +0.000 A 
ATOM     19  C   UNL     1      18.514   7.610  52.215  0.00  0.00    +0.000 C 
BRANCH  16  20
ATOM     20  O   UNL     1      21.400   6.555  47.523  0.00  0.00    +0.000 OA
ATOM     21  H   UNL     1      20.696   6.021  47.118  0.00  0.00    +0.000 HD
ENDBRANCH  16  20
BRANCH  18  22
ATOM     22  O   UNL     1      19.843   9.739  50.828  0.00  0.00    +0.000 OA
ATOM     23  H   UNL     1      20.093  10.327  50.089  0.00  0.00    +0.000 HD
ENDBRANCH  18  22
ENDBRANCH  12  13
ENDBRANCH   7  11
BRANCH   2  24
ATOM     24  C   UNL     1      18.573  -1.296  55.835  0.00  0.00    +0.000 C 
ATOM     25  C   UNL     1      19.338  -2.591  55.734  0.00  0.00    +0.000 C 
BRANCH  24  26
ATOM     26  C   UNL     1      17.457  -1.317  56.715  0.00  0.00    +0.000 C 
ATOM     27  C   UNL     1      16.247  -1.325  57.658  0.00  0.00    +0.000 C 
BRANCH  27  28
ATOM     28  C   UNL     1      15.034  -1.321  58.596  0.00  0.00    +0.000 C 
BRANCH  28  29
ATOM     29  C   UNL     1      13.879  -1.315  59.494  0.00  0.00    +0.000 C 
ATOM     30  C   UNL     1      13.054  -2.604  59.412  0.00  0.00    +0.000 C 
ATOM     31  C   UNL     1      14.246  -1.000  60.948  0.00  0.00    +0.000 C 
BRANCH  29  32
ATOM     32  O   UNL     1      13.001  -0.283  59.103  0.00  0.00    +0.000 OA
ATOM     33  H   UNL     1      12.597  -0.105  59.965  0.00  0.00    +0.000 HD
ENDBRANCH  29  32
ENDBRANCH  28  29
ENDBRANCH  27  28
ENDBRANCH  24  26
ENDBRANCH   2  24
TORSDOF 9
ENDMDL
MODEL 3
REMARK VINA RESULT:      -4.8      1.841      2.541
REMARK  Name = Calcitriol.pdbqt.pdb
REMARK  9 active torsions:
REMARK  status: ('A' for Active; 'I' for Inactive)
REMARK    1  A    between atoms: C_2  and  C_24
REMARK    2  A    between atoms: C_7  and  C_11
REMARK    3  A    between atoms: C_12  and  C_13
REMARK    4  A    between atoms: C_16  and  O_20
REMARK    5  A    between atoms: C_18  and  O_22
REMARK    6  A    between atoms: C_24  and  C_26
REMARK    7  A    between atoms: C_27  and  C_28
REMARK    8  A    between atoms: C_28  and  C_29
REMARK    9  A    between atoms: C_29  and  O_32
REMARK                            x       y       z     vdW  Elec       q    Type
REMARK                         _______ _______ _______ _____ _____    ______ ____
ROOT
ATOM      1  C   UNL     1      12.813   4.086  75.568  0.00  0.00    +0.000 C 
ATOM      2  C   UNL     1      12.115   5.439  75.672  0.00  0.00    +0.000 C 
ATOM      3  C   UNL     1      13.481   4.135  74.088  0.00  0.00    +0.000 C 
ATOM      4  C   UNL     1      12.439   6.236  74.534  0.00  0.00    +0.000 C 
ATOM      5  C   UNL     1      13.296   5.457  73.574  0.00  0.00    +0.000 C 
ATOM      6  C   UNL     1      11.903   2.929  75.579  0.00  0.00    +0.000 C 
ATOM      7  C   UNL     1      13.432   2.966  73.201  0.00  0.00    +0.000 C 
ATOM      8  C   UNL     1      13.985   3.984  76.584  0.00  0.00    +0.000 C 
ATOM      9  C   UNL     1      11.580   1.698  74.751  0.00  0.00    +0.000 C 
ATOM     10  C   UNL     1      12.525   1.946  73.593  0.00  0.00    +0.000 C 
ENDROOT
BRANCH   7  11
ATOM     11  C   UNL     1      14.041   2.887  72.060  0.00  0.00    +0.000 C 
ATOM     12  C   UNL     1      14.751   2.801  70.703  0.00  0.00    +0.000 C 
BRANCH  12  13
ATOM     13  C   UNL     1      15.348   2.735  69.552  0.00  0.00    +0.000 A 
ATOM     14  C   UNL     1      15.769   1.464  69.043  0.00  0.00    +0.000 A 
ATOM     15  C   UNL     1      15.719   3.886  68.669  0.00  0.00    +0.000 A 
ATOM     16  C   UNL     1      16.470   1.069  67.868  0.00  0.00    +0.000 A 
ATOM     17  C   UNL     1      16.764   2.253  67.134  0.00  0.00    +0.000 A 
ATOM     18  C   UNL     1      16.467   3.620  67.400  0.00  0.00    +0.000 A 
ATOM     19  C   UNL     1      15.395   5.156  68.974  0.00  0.00    +0.000 C 
BRANCH  16  20
ATOM     20  O   UNL     1      16.206  -0.119  67.251  0.00  0.00    +0.000 OA
ATOM     21  H   UNL     1      15.846  -0.769  67.878  0.00  0.00    +0.000 HD
ENDBRANCH  16  20
BRANCH  18  22
ATOM     22  O   UNL     1      16.828   4.635  66.545  0.00  0.00    +0.000 OA
ATOM     23  H   UNL     1      16.955   5.466  67.042  0.00  0.00    +0.000 HD
ENDBRANCH  18  22
ENDBRANCH  12  13
ENDBRANCH   7  11
BRANCH   2  24
ATOM     24  C   UNL     1      11.387   5.905  76.810  0.00  0.00    +0.000 C 
ATOM     25  C   UNL     1      12.034   6.638  77.956  0.00  0.00    +0.000 C 
BRANCH  24  26
ATOM     26  C   UNL     1      10.029   5.536  77.014  0.00  0.00    +0.000 C 
ATOM     27  C   UNL     1       8.560   5.143  77.219  0.00  0.00    +0.000 C 
BRANCH  27  28
ATOM     28  C   UNL     1       7.089   4.757  77.412  0.00  0.00    +0.000 C 
BRANCH  28  29
ATOM     29  C   UNL     1       5.684   4.393  77.596  0.00  0.00    +0.000 C 
ATOM     30  C   UNL     1       5.106   4.900  78.923  0.00  0.00    +0.000 C 
ATOM     31  C   UNL     1       4.792   4.814  76.423  0.00  0.00    +0.000 C 
BRANCH  29  32
ATOM     32  O   UNL     1       5.578   2.988  77.654  0.00  0.00    +0.000 OA
ATOM     33  H   UNL     1       5.379   2.898  78.597  0.00  0.00    +0.000 HD
ENDBRANCH  29  32
ENDBRANCH  28  29
ENDBRANCH  27  28
ENDBRANCH  24  26
ENDBRANCH   2  24
TORSDOF 9
ENDMDL
MODEL 4
REMARK VINA RESULT:      -4.7      1.202      2.243
REMARK  Name = Calcitriol.pdbqt.pdb
REMARK  9 active torsions:
REMARK  status: ('A' for Active; 'I' for Inactive)
REMARK    1  A    between atoms: C_2  and  C_24
REMARK    2  A    between atoms: C_7  and  C_11
REMARK    3  A    between atoms: C_12  and  C_13
REMARK    4  A    between atoms: C_16  and  O_20
REMARK    5  A    between atoms: C_18  and  O_22
REMARK    6  A    between atoms: C_24  and  C_26
REMARK    7  A    between atoms: C_27  and  C_28
REMARK    8  A    between atoms: C_28  and  C_29
REMARK    9  A    between atoms: C_29  and  O_32
REMARK                            x       y       z     vdW  Elec       q    Type
REMARK                         _______ _______ _______ _____ _____    ______ ____
ROOT
ATOM      1  C   UNL     1      11.652   0.676  75.060  0.00  0.00    +0.000 C 
ATOM      2  C   UNL     1      10.950   1.846  75.745  0.00  0.00    +0.000 C 
ATOM      3  C   UNL     1      12.582   1.411  73.949  0.00  0.00    +0.000 C 
ATOM      4  C   UNL     1      11.481   3.076  75.257  0.00  0.00    +0.000 C 
ATOM      5  C   UNL     1      12.499   2.820  74.179  0.00  0.00    +0.000 C 
ATOM      6  C   UNL     1      10.753  -0.226  74.323  0.00  0.00    +0.000 C 
ATOM      7  C   UNL     1      12.695   0.874  72.588  0.00  0.00    +0.000 C 
ATOM      8  C   UNL     1      12.616  -0.047  76.042  0.00  0.00    +0.000 C 
ATOM      9  C   UNL     1      10.585  -0.820  72.936  0.00  0.00    +0.000 C 
ATOM     10  C   UNL     1      11.729  -0.108  72.242  0.00  0.00    +0.000 C 
ENDROOT
BRANCH   7  11
ATOM     11  C   UNL     1      13.504   1.331  71.684  0.00  0.00    +0.000 C 
ATOM     12  C   UNL     1      14.473   1.866  70.623  0.00  0.00    +0.000 C 
BRANCH  12  13
ATOM     13  C   UNL     1      15.299   2.313  69.727  0.00  0.00    +0.000 A 
ATOM     14  C   UNL     1      15.268   3.698  69.362  0.00  0.00    +0.000 A 
ATOM     15  C   UNL     1      16.294   1.511  68.946  0.00  0.00    +0.000 A 
ATOM     16  C   UNL     1      15.990   4.470  68.408  0.00  0.00    +0.000 A 
ATOM     17  C   UNL     1      16.885   3.587  67.740  0.00  0.00    +0.000 A 
ATOM     18  C   UNL     1      17.121   2.192  67.901  0.00  0.00    +0.000 A 
ATOM     19  C   UNL     1      16.476   0.195  69.158  0.00  0.00    +0.000 C 
BRANCH  16  20
ATOM     20  O   UNL     1      16.305   5.777  68.646  0.00  0.00    +0.000 OA
ATOM     21  H   UNL     1      16.333   5.965  69.599  0.00  0.00    +0.000 HD
ENDBRANCH  16  20
BRANCH  18  22
ATOM     22  O   UNL     1      18.056   1.510  67.159  0.00  0.00    +0.000 OA
ATOM     23  H   UNL     1      17.621   0.824  66.617  0.00  0.00    +0.000 HD
ENDBRANCH  18  22
ENDBRANCH  12  13
ENDBRANCH   7  11
BRANCH   2  24
ATOM     24  C   UNL     1      10.026   1.731  76.828  0.00  0.00    +0.000 C 
ATOM     25  C   UNL     1      10.168   0.708  77.925  0.00  0.00    +0.000 C 
BRANCH  24  26
ATOM     26  C   UNL     1       8.806   2.461  76.832  0.00  0.00    +0.000 C 
ATOM     27  C   UNL     1       7.493   3.255  76.852  0.00  0.00    +0.000 C 
BRANCH  27  28
ATOM     28  C   UNL     1       6.184   4.053  76.886  0.00  0.00    +0.000 C 
BRANCH  28  29
ATOM     29  C   UNL     1       4.935   4.814  76.913  0.00  0.00    +0.000 C 
ATOM     30  C   UNL     1       4.090   4.527  78.159  0.00  0.00    +0.000 C 
ATOM     31  C   UNL     1       5.144   6.322  76.738  0.00  0.00    +0.000 C 
BRANCH  29  32
ATOM     32  O   UNL     1       4.135   4.423  75.819  0.00  0.00    +0.000 OA
ATOM     33  H   UNL     1       4.819   4.427  75.134  0.00  0.00    +0.000 HD
ENDBRANCH  29  32
ENDBRANCH  28  29
ENDBRANCH  27  28
ENDBRANCH  24  26
ENDBRANCH   2  24
TORSDOF 9
ENDMDL
MODEL 5
REMARK VINA RESULT:      -4.7     16.559     21.163
REMARK  Name = Calcitriol.pdbqt.pdb
REMARK  9 active torsions:
REMARK  status: ('A' for Active; 'I' for Inactive)
REMARK    1  A    between atoms: C_2  and  C_24
REMARK    2  A    between atoms: C_7  and  C_11
REMARK    3  A    between atoms: C_12  and  C_13
REMARK    4  A    between atoms: C_16  and  O_20
REMARK    5  A    between atoms: C_18  and  O_22
REMARK    6  A    between atoms: C_24  and  C_26
REMARK    7  A    between atoms: C_27  and  C_28
REMARK    8  A    between atoms: C_28  and  C_29
REMARK    9  A    between atoms: C_29  and  O_32
REMARK                            x       y       z     vdW  Elec       q    Type
REMARK                         _______ _______ _______ _____ _____    ______ ____
ROOT
ATOM      1  C   UNL     1      18.900   1.577  52.498  0.00  0.00    +0.000 C 
ATOM      2  C   UNL     1      17.891   2.625  52.038  0.00  0.00    +0.000 C 
ATOM      3  C   UNL     1      18.045   0.690  53.557  0.00  0.00    +0.000 C 
ATOM      4  C   UNL     1      16.608   2.329  52.587  0.00  0.00    +0.000 C 
ATOM      5  C   UNL     1      16.686   1.132  53.494  0.00  0.00    +0.000 C 
ATOM      6  C   UNL     1      20.049   2.121  53.239  0.00  0.00    +0.000 C 
ATOM      7  C   UNL     1      18.639   0.254  54.826  0.00  0.00    +0.000 C 
ATOM      8  C   UNL     1      19.287   0.626  51.330  0.00  0.00    +0.000 C 
ATOM      9  C   UNL     1      20.769   1.938  54.563  0.00  0.00    +0.000 C 
ATOM     10  C   UNL     1      19.852   0.903  55.181  0.00  0.00    +0.000 C 
ENDROOT
BRANCH   7  11
ATOM     11  C   UNL     1      18.066  -0.551  55.666  0.00  0.00    +0.000 C 
ATOM     12  C   UNL     1      17.376  -1.502  56.651  0.00  0.00    +0.000 C 
BRANCH  12  13
ATOM     13  C   UNL     1      16.786  -2.310  57.478  0.00  0.00    +0.000 A 
ATOM     14  C   UNL     1      17.559  -3.279  58.195  0.00  0.00    +0.000 A 
ATOM     15  C   UNL     1      15.316  -2.396  57.751  0.00  0.00    +0.000 A 
ATOM     16  C   UNL     1      17.216  -4.312  59.115  0.00  0.00    +0.000 A 
ATOM     17  C   UNL     1      15.801  -4.284  59.273  0.00  0.00    +0.000 A 
ATOM     18  C   UNL     1      14.809  -3.441  58.695  0.00  0.00    +0.000 A 
ATOM     19  C   UNL     1      14.432  -1.558  57.179  0.00  0.00    +0.000 C 
BRANCH  16  20
ATOM     20  O   UNL     1      18.052  -4.656  60.137  0.00  0.00    +0.000 OA
ATOM     21  H   UNL     1      18.871  -4.132  60.115  0.00  0.00    +0.000 HD
ENDBRANCH  16  20
BRANCH  18  22
ATOM     22  O   UNL     1      13.473  -3.564  58.990  0.00  0.00    +0.000 OA
ATOM     23  H   UNL     1      13.329  -3.469  59.951  0.00  0.00    +0.000 HD
ENDBRANCH  18  22
ENDBRANCH  12  13
ENDBRANCH   7  11
BRANCH   2  24
ATOM     24  C   UNL     1      18.147   3.647  51.074  0.00  0.00    +0.000 C 
ATOM     25  C   UNL     1      18.471   3.353  49.631  0.00  0.00    +0.000 C 
BRANCH  24  26
ATOM     26  C   UNL     1      18.295   5.006  51.465  0.00  0.00    +0.000 C 
ATOM     27  C   UNL     1      18.439   6.474  51.887  0.00  0.00    +0.000 C 
BRANCH  27  28
ATOM     28  C   UNL     1      18.569   7.943  52.306  0.00  0.00    +0.000 C 
BRANCH  28  29
ATOM     29  C   UNL     1      18.689   9.345  52.705  0.00  0.00    +0.000 C 
ATOM     30  C   UNL     1      19.042  10.269  51.534  0.00  0.00    +0.000 C 
ATOM     31  C   UNL     1      17.457   9.868  53.452  0.00  0.00    +0.000 C 
BRANCH  29  32
ATOM     32  O   UNL     1      19.756   9.473  53.618  0.00  0.00    +0.000 OA
ATOM     33  H   UNL     1      19.873   8.535  53.833  0.00  0.00    +0.000 HD
ENDBRANCH  29  32
ENDBRANCH  28  29
ENDBRANCH  27  28
ENDBRANCH  24  26
ENDBRANCH   2  24
TORSDOF 9
ENDMDL
MODEL 6
REMARK VINA RESULT:      -4.6     12.004     13.626
REMARK  Name = Calcitriol.pdbqt.pdb
REMARK  9 active torsions:
REMARK  status: ('A' for Active; 'I' for Inactive)
REMARK    1  A    between atoms: C_2  and  C_24
REMARK    2  A    between atoms: C_7  and  C_11
REMARK    3  A    between atoms: C_12  and  C_13
REMARK    4  A    between atoms: C_16  and  O_20
REMARK    5  A    between atoms: C_18  and  O_22
REMARK    6  A    between atoms: C_24  and  C_26
REMARK    7  A    between atoms: C_27  and  C_28
REMARK    8  A    between atoms: C_28  and  C_29
REMARK    9  A    between atoms: C_29  and  O_32
REMARK                            x       y       z     vdW  Elec       q    Type
REMARK                         _______ _______ _______ _____ _____    ______ ____
ROOT
ATOM      1  C   UNL     1       1.760   8.575  64.546  0.00  0.00    +0.000 C 
ATOM      2  C   UNL     1       1.570   7.715  65.792  0.00  0.00    +0.000 C 
ATOM      3  C   UNL     1       2.645   7.619  63.576  0.00  0.00    +0.000 C 
ATOM      4  C   UNL     1       2.097   6.411  65.561  0.00  0.00    +0.000 C 
ATOM      5  C   UNL     1       2.731   6.334  64.199  0.00  0.00    +0.000 C 
ATOM      6  C   UNL     1       2.550   9.797  64.763  0.00  0.00    +0.000 C 
ATOM      7  C   UNL     1       3.770   8.162  62.806  0.00  0.00    +0.000 C 
ATOM      8  C   UNL     1       0.404   8.813  63.822  0.00  0.00    +0.000 C 
ATOM      9  C   UNL     1       3.776  10.501  64.210  0.00  0.00    +0.000 C 
ATOM     10  C   UNL     1       4.202   9.457  63.198  0.00  0.00    +0.000 C 
ENDROOT
BRANCH   7  11
ATOM     11  C   UNL     1       4.446   7.493  61.925  0.00  0.00    +0.000 C 
ATOM     12  C   UNL     1       5.241   6.690  60.889  0.00  0.00    +0.000 C 
BRANCH  12  13
ATOM     13  C   UNL     1       5.910   6.002  60.014  0.00  0.00    +0.000 A 
ATOM     14  C   UNL     1       5.684   4.593  59.898  0.00  0.00    +0.000 A 
ATOM     15  C   UNL     1       6.981   6.514  59.101  0.00  0.00    +0.000 A 
ATOM     16  C   UNL     1       6.271   3.575  59.092  0.00  0.00    +0.000 A 
ATOM     17  C   UNL     1       7.269   4.196  58.288  0.00  0.00    +0.000 A 
ATOM     18  C   UNL     1       7.691   5.554  58.199  0.00  0.00    +0.000 A 
ATOM     19  C   UNL     1       7.323   7.815  59.059  0.00  0.00    +0.000 C 
BRANCH  16  20
ATOM     20  O   UNL     1       5.537   2.514  58.645  0.00  0.00    +0.000 OA
ATOM     21  H   UNL     1       4.735   2.391  59.179  0.00  0.00    +0.000 HD
ENDBRANCH  16  20
BRANCH  18  22
ATOM     22  O   UNL     1       8.677   5.965  57.335  0.00  0.00    +0.000 OA
ATOM     23  H   UNL     1       9.390   6.416  57.826  0.00  0.00    +0.000 HD
ENDBRANCH  18  22
ENDBRANCH  12  13
ENDBRANCH   7  11
BRANCH   2  24
ATOM     24  C   UNL     1       0.830   8.099  66.953  0.00  0.00    +0.000 C 
ATOM     25  C   UNL     1      -0.626   8.486  66.908  0.00  0.00    +0.000 C 
BRANCH  24  26
ATOM     26  C   UNL     1       1.479   8.319  68.199  0.00  0.00    +0.000 C 
ATOM     27  C   UNL     1       2.190   8.567  69.535  0.00  0.00    +0.000 C 
BRANCH  27  28
ATOM     28  C   UNL     1       2.909   8.823  70.865  0.00  0.00    +0.000 C 
BRANCH  28  29
ATOM     29  C   UNL     1       3.594   9.063  72.135  0.00  0.00    +0.000 C 
ATOM     30  C   UNL     1       3.354  10.474  72.684  0.00  0.00    +0.000 C 
ATOM     31  C   UNL     1       3.278   8.007  73.201  0.00  0.00    +0.000 C 
BRANCH  29  32
ATOM     32  O   UNL     1       4.986   8.973  71.929  0.00  0.00    +0.000 OA
ATOM     33  H   UNL     1       5.162   8.194  72.477  0.00  0.00    +0.000 HD
ENDBRANCH  29  32
ENDBRANCH  28  29
ENDBRANCH  27  28
ENDBRANCH  24  26
ENDBRANCH   2  24
TORSDOF 9
ENDMDL
MODEL 7
REMARK VINA RESULT:      -4.6     12.203     13.446
REMARK  Name = Calcitriol.pdbqt.pdb
REMARK  9 active torsions:
REMARK  status: ('A' for Active; 'I' for Inactive)
REMARK    1  A    between atoms: C_2  and  C_24
REMARK    2  A    between atoms: C_7  and  C_11
REMARK    3  A    between atoms: C_12  and  C_13
REMARK    4  A    between atoms: C_16  and  O_20
REMARK    5  A    between atoms: C_18  and  O_22
REMARK    6  A    between atoms: C_24  and  C_26
REMARK    7  A    between atoms: C_27  and  C_28
REMARK    8  A    between atoms: C_28  and  C_29
REMARK    9  A    between atoms: C_29  and  O_32
REMARK                            x       y       z     vdW  Elec       q    Type
REMARK                         _______ _______ _______ _____ _____    ______ ____
ROOT
ATOM      1  C   UNL     1       1.473   5.984  66.413  0.00  0.00    +0.000 C 
ATOM      2  C   UNL     1       0.294   6.953  66.390  0.00  0.00    +0.000 C 
ATOM      3  C   UNL     1       2.364   6.467  65.145  0.00  0.00    +0.000 C 
ATOM      4  C   UNL     1       0.511   7.950  65.394  0.00  0.00    +0.000 C 
ATOM      5  C   UNL     1       1.788   7.677  64.646  0.00  0.00    +0.000 C 
ATOM      6  C   UNL     1       1.112   4.580  66.162  0.00  0.00    +0.000 C 
ATOM      7  C   UNL     1       2.969   5.488  64.233  0.00  0.00    +0.000 C 
ATOM      8  C   UNL     1       2.347   6.201  67.681  0.00  0.00    +0.000 C 
ATOM      9  C   UNL     1       1.483   3.433  65.239  0.00  0.00    +0.000 C 
ATOM     10  C   UNL     1       2.476   4.161  64.357  0.00  0.00    +0.000 C 
ENDROOT
BRANCH   7  11
ATOM     11  C   UNL     1       3.787   5.787  63.273  0.00  0.00    +0.000 C 
ATOM     12  C   UNL     1       4.759   6.153  62.146  0.00  0.00    +0.000 C 
BRANCH  12  13
ATOM     13  C   UNL     1       5.588   6.466  61.197  0.00  0.00    +0.000 A 
ATOM     14  C   UNL     1       6.297   7.709  61.258  0.00  0.00    +0.000 A 
ATOM     15  C   UNL     1       5.869   5.677  59.956  0.00  0.00    +0.000 A 
ATOM     16  C   UNL     1       7.216   8.351  60.378  0.00  0.00    +0.000 A 
ATOM     17  C   UNL     1       7.382   7.501  59.248  0.00  0.00    +0.000 A 
ATOM     18  C   UNL     1       6.813   6.233  58.936  0.00  0.00    +0.000 A 
ATOM     19  C   UNL     1       5.305   4.477  59.728  0.00  0.00    +0.000 C 
BRANCH  16  20
ATOM     20  O   UNL     1       8.232   9.125  60.858  0.00  0.00    +0.000 OA
ATOM     21  H   UNL     1       8.880   8.593  61.349  0.00  0.00    +0.000 HD
ENDBRANCH  16  20
BRANCH  18  22
ATOM     22  O   UNL     1       7.116   5.551  57.782  0.00  0.00    +0.000 OA
ATOM     23  H   UNL     1       6.693   4.671  57.788  0.00  0.00    +0.000 HD
ENDBRANCH  18  22
ENDBRANCH  12  13
ENDBRANCH   7  11
BRANCH   2  24
ATOM     24  C   UNL     1      -0.782   6.964  67.331  0.00  0.00    +0.000 C 
ATOM     25  C   UNL     1      -1.581   8.201  67.651  0.00  0.00    +0.000 C 
BRANCH  24  26
ATOM     26  C   UNL     1      -1.042   5.841  68.163  0.00  0.00    +0.000 C 
ATOM     27  C   UNL     1      -1.309   4.634  69.070  0.00  0.00    +0.000 C 
BRANCH  27  28
ATOM     28  C   UNL     1      -1.564   3.429  69.985  0.00  0.00    +0.000 C 
BRANCH  28  29
ATOM     29  C   UNL     1      -1.810   2.278  70.853  0.00  0.00    +0.000 C 
ATOM     30  C   UNL     1      -1.701   2.623  72.343  0.00  0.00    +0.000 C 
ATOM     31  C   UNL     1      -3.138   1.571  70.558  0.00  0.00    +0.000 C 
BRANCH  29  32
ATOM     32  O   UNL     1      -0.814   1.307  70.620  0.00  0.00    +0.000 OA
ATOM     33  H   UNL     1      -1.054   1.072  69.711  0.00  0.00    +0.000 HD
ENDBRANCH  29  32
ENDBRANCH  28  29
ENDBRANCH  27  28
ENDBRANCH  24  26
ENDBRANCH   2  24
TORSDOF 9
ENDMDL
MODEL 8
REMARK VINA RESULT:      -4.5     11.763     16.089
REMARK  Name = Calcitriol.pdbqt.pdb
REMARK  9 active torsions:
REMARK  status: ('A' for Active; 'I' for Inactive)
REMARK    1  A    between atoms: C_2  and  C_24
REMARK    2  A    between atoms: C_7  and  C_11
REMARK    3  A    between atoms: C_12  and  C_13
REMARK    4  A    between atoms: C_16  and  O_20
REMARK    5  A    between atoms: C_18  and  O_22
REMARK    6  A    between atoms: C_24  and  C_26
REMARK    7  A    between atoms: C_27  and  C_28
REMARK    8  A    between atoms: C_28  and  C_29
REMARK    9  A    between atoms: C_29  and  O_32
REMARK                            x       y       z     vdW  Elec       q    Type
REMARK                         _______ _______ _______ _____ _____    ______ ____
ROOT
ATOM      1  C   UNL     1       1.582   4.670  63.607  0.00  0.00    +0.000 C 
ATOM      2  C   UNL     1       2.700   4.894  62.593  0.00  0.00    +0.000 C 
ATOM      3  C   UNL     1       1.961   5.704  64.800  0.00  0.00    +0.000 C 
ATOM      4  C   UNL     1       3.517   5.985  63.012  0.00  0.00    +0.000 C 
ATOM      5  C   UNL     1       3.057   6.504  64.347  0.00  0.00    +0.000 C 
ATOM      6  C   UNL     1       1.564   3.326  64.206  0.00  0.00    +0.000 C 
ATOM      7  C   UNL     1       1.852   5.302  66.208  0.00  0.00    +0.000 C 
ATOM      8  C   UNL     1       0.211   5.131  63.036  0.00  0.00    +0.000 C 
ATOM      9  C   UNL     1       1.570   2.664  65.573  0.00  0.00    +0.000 C 
ATOM     10  C   UNL     1       1.700   3.907  66.429  0.00  0.00    +0.000 C 
ENDROOT
BRANCH   7  11
ATOM     11  C   UNL     1       2.021   6.102  67.213  0.00  0.00    +0.000 C 
ATOM     12  C   UNL     1       2.207   7.051  68.404  0.00  0.00    +0.000 C 
BRANCH  12  13
ATOM     13  C   UNL     1       2.355   7.853  69.414  0.00  0.00    +0.000 A 
ATOM     14  C   UNL     1       3.611   7.903  70.101  0.00  0.00    +0.000 A 
ATOM     15  C   UNL     1       1.308   8.737  70.017  0.00  0.00    +0.000 A 
ATOM     16  C   UNL     1       4.070   8.622  71.242  0.00  0.00    +0.000 A 
ATOM     17  C   UNL     1       2.980   9.408  71.712  0.00  0.00    +0.000 A 
ATOM     18  C   UNL     1       1.648   9.549  71.227  0.00  0.00    +0.000 A 
ATOM     19  C   UNL     1       0.069   8.834  69.500  0.00  0.00    +0.000 C 
BRANCH  16  20
ATOM     20  O   UNL     1       5.364   9.045  71.339  0.00  0.00    +0.000 OA
ATOM     21  H   UNL     1       5.905   8.413  71.839  0.00  0.00    +0.000 HD
ENDBRANCH  16  20
BRANCH  18  22
ATOM     22  O   UNL     1       0.731  10.385  71.820  0.00  0.00    +0.000 OA
ATOM     23  H   UNL     1       0.879  10.418  72.785  0.00  0.00    +0.000 HD
ENDBRANCH  18  22
ENDBRANCH  12  13
ENDBRANCH   7  11
BRANCH   2  24
ATOM     24  C   UNL     1       2.815   4.229  61.333  0.00  0.00    +0.000 C 
ATOM     25  C   UNL     1       1.813   3.215  60.845  0.00  0.00    +0.000 C 
BRANCH  24  26
ATOM     26  C   UNL     1       3.991   4.349  60.544  0.00  0.00    +0.000 C 
ATOM     27  C   UNL     1       5.265   4.464  59.697  0.00  0.00    +0.000 C 
BRANCH  27  28
ATOM     28  C   UNL     1       6.543   4.567  58.855  0.00  0.00    +0.000 C 
BRANCH  28  29
ATOM     29  C   UNL     1       7.761   4.669  58.052  0.00  0.00    +0.000 C 
ATOM     30  C   UNL     1       8.457   6.028  58.196  0.00  0.00    +0.000 C 
ATOM     31  C   UNL     1       8.751   3.527  58.308  0.00  0.00    +0.000 C 
BRANCH  29  32
ATOM     32  O   UNL     1       7.421   4.565  56.688  0.00  0.00    +0.000 OA
ATOM     33  H   UNL     1       8.204   4.994  56.312  0.00  0.00    +0.000 HD
ENDBRANCH  29  32
ENDBRANCH  28  29
ENDBRANCH  27  28
ENDBRANCH  24  26
ENDBRANCH   2  24
TORSDOF 9
ENDMDL
MODEL 9
REMARK VINA RESULT:      -4.5      3.168      3.900
REMARK  Name = Calcitriol.pdbqt.pdb
REMARK  9 active torsions:
REMARK  status: ('A' for Active; 'I' for Inactive)
REMARK    1  A    between atoms: C_2  and  C_24
REMARK    2  A    between atoms: C_7  and  C_11
REMARK    3  A    between atoms: C_12  and  C_13
REMARK    4  A    between atoms: C_16  and  O_20
REMARK    5  A    between atoms: C_18  and  O_22
REMARK    6  A    between atoms: C_24  and  C_26
REMARK    7  A    between atoms: C_27  and  C_28
REMARK    8  A    between atoms: C_28  and  C_29
REMARK    9  A    between atoms: C_29  and  O_32
REMARK                            x       y       z     vdW  Elec       q    Type
REMARK                         _______ _______ _______ _____ _____    ______ ____
ROOT
ATOM      1  C   UNL     1      11.728   0.925  75.098  0.00  0.00    +0.000 C 
ATOM      2  C   UNL     1      10.715   1.848  75.769  0.00  0.00    +0.000 C 
ATOM      3  C   UNL     1      12.651   1.957  74.249  0.00  0.00    +0.000 C 
ATOM      4  C   UNL     1      11.060   3.208  75.513  0.00  0.00    +0.000 C 
ATOM      5  C   UNL     1      12.258   3.284  74.607  0.00  0.00    +0.000 C 
ATOM      6  C   UNL     1      11.146  -0.014  74.126  0.00  0.00    +0.000 C 
ATOM      7  C   UNL     1      13.072   1.638  72.879  0.00  0.00    +0.000 C 
ATOM      8  C   UNL     1      12.657   0.258  76.151  0.00  0.00    +0.000 C 
ATOM      9  C   UNL     1      11.310  -0.434  72.676  0.00  0.00    +0.000 C 
ATOM     10  C   UNL     1      12.382   0.556  72.270  0.00  0.00    +0.000 C 
ENDROOT
BRANCH   7  11
ATOM     11  C   UNL     1      13.902   2.350  72.183  0.00  0.00    +0.000 C 
ATOM     12  C   UNL     1      14.888   3.180  71.352  0.00  0.00    +0.000 C 
BRANCH  12  13
ATOM     13  C   UNL     1      15.724   3.876  70.643  0.00  0.00    +0.000 A 
ATOM     14  C   UNL     1      15.270   4.529  69.452  0.00  0.00    +0.000 A 
ATOM     15  C   UNL     1      17.190   4.045  70.897  0.00  0.00    +0.000 A 
ATOM     16  C   UNL     1      15.927   5.308  68.457  0.00  0.00    +0.000 A 
ATOM     17  C   UNL     1      17.303   5.379  68.817  0.00  0.00    +0.000 A 
ATOM     18  C   UNL     1      18.011   4.837  69.927  0.00  0.00    +0.000 A 
ATOM     19  C   UNL     1      17.795   3.516  71.975  0.00  0.00    +0.000 C 
BRANCH  16  20
ATOM     20  O   UNL     1      15.289   6.336  67.826  0.00  0.00    +0.000 OA
ATOM     21  H   UNL     1      15.774   6.618  67.033  0.00  0.00    +0.000 HD
ENDBRANCH  16  20
BRANCH  18  22
ATOM     22  O   UNL     1      19.359   5.033  70.111  0.00  0.00    +0.000 OA
ATOM     23  H   UNL     1      19.511   5.741  70.767  0.00  0.00    +0.000 HD
ENDBRANCH  18  22
ENDBRANCH  12  13
ENDBRANCH   7  11
BRANCH   2  24
ATOM     24  C   UNL     1       9.678   1.425  76.657  0.00  0.00    +0.000 C 
ATOM     25  C   UNL     1       9.573   1.903  78.083  0.00  0.00    +0.000 C 
BRANCH  24  26
ATOM     26  C   UNL     1       8.787   0.377  76.300  0.00  0.00    +0.000 C 
ATOM     27  C   UNL     1       7.837  -0.762  75.907  0.00  0.00    +0.000 C 
BRANCH  27  28
ATOM     28  C   UNL     1       6.898  -1.906  75.506  0.00  0.00    +0.000 C 
BRANCH  28  29
ATOM     29  C   UNL     1       6.003  -2.996  75.119  0.00  0.00    +0.000 C 
ATOM     30  C   UNL     1       5.670  -2.991  73.623  0.00  0.00    +0.000 C 
ATOM     31  C   UNL     1       6.510  -4.376  75.555  0.00  0.00    +0.000 C 
BRANCH  29  32
ATOM     32  O   UNL     1       4.768  -2.831  75.779  0.00  0.00    +0.000 OA
ATOM     33  H   UNL     1       4.189  -2.838  75.002  0.00  0.00    +0.000 HD
ENDBRANCH  29  32
ENDBRANCH  28  29
ENDBRANCH  27  28
ENDBRANCH  24  26
ENDBRANCH   2  24
TORSDOF 9
ENDMDL
