MODEL 1
REMARK VINA RESULT:      -5.1      0.000      0.000
REMARK  Name = 
REMARK  17 active torsions:
REMARK  status: ('A' for Active; 'I' for Inactive)
REMARK    1  A    between atoms: O_1  and  C_14
REMARK    2  A    between atoms: O_2  and  C_32
REMARK    3  A    between atoms: O_2  and  C_36
REMARK    4  A    between atoms: O_6  and  C_39
REMARK    5  A    between atoms: O_7  and  C_41
REMARK    6  A    between atoms: O_7  and  C_43
REMARK    7  A    between atoms: O_9  and  C_47
REMARK    8  A    between atoms: O_9  and  C_49
REMARK    9  A    between atoms: O_10  and  C_45
REMARK   10  A    between atoms: O_12  and  C_51
REMARK   11  A    between atoms: O_13  and  C_53
REMARK   12  A    between atoms: C_17  and  C_29
REMARK   13  A    between atoms: C_18  and  C_30
REMARK   14  A    between atoms: C_22  and  C_33
REMARK   15  A    between atoms: C_40  and  C_42
REMARK   16  A    between atoms: C_46  and  C_48
REMARK   17  A    between atoms: C_52  and  C_54
REMARK                            x       y       z     vdW  Elec       q    Type
REMARK                         _______ _______ _______ _____ _____    ______ ____
ROOT
ATOM      1  O   UNL     1       0.801  11.087  61.460  0.00  0.00    +0.000 OA
ATOM      2  C   UNL     1       0.309  10.417  62.617  0.00  0.00    +0.000 C 
ATOM      3  C   UNL     1      -0.587   9.227  62.263  0.00  0.00    +0.000 C 
ATOM      4  C   UNL     1      -0.532   8.912  60.776  0.00  0.00    +0.000 C 
ATOM      5  C   UNL     1       1.634  10.247  60.652  0.00  0.00    +0.000 C 
ATOM      6  C   UNL     1       0.887   8.978  60.176  0.00  0.00    +0.000 C 
ATOM      7  C   UNL     1       2.093  11.094  59.465  0.00  0.00    +0.000 C 
ENDROOT
BRANCH   4   8
ATOM      8  O   UNL     1      -1.218   7.703  60.471  0.00  0.00    +0.000 OA
ATOM      9  H   UNL     1      -1.934   7.943  59.844  0.00  0.00    +0.000 HD
ENDBRANCH   4   8
BRANCH   2  10
ATOM     10  O   UNL     1      -0.352  11.309  63.515  0.00  0.00    +0.000 OA
BRANCH  10  29
ATOM     11  C   UNL     1       2.595  10.832  70.701  0.00  0.00    +0.000 C 
ATOM     12  C   UNL     1       2.065  10.918  69.243  0.00  0.00    +0.000 C 
ATOM     13  C   UNL     1       2.034   9.550  68.515  0.00  0.00    +0.000 C 
ATOM     14  C   UNL     1       1.931   9.716  71.557  0.00  0.00    +0.000 C 
ATOM     15  C   UNL     1       1.488   9.642  67.031  0.00  0.00    +0.000 C 
ATOM     16  C   UNL     1       2.229  10.782  66.257  0.00  0.00    +0.000 C 
ATOM     17  C   UNL     1       1.294   8.512  69.384  0.00  0.00    +0.000 C 
ATOM     18  C   UNL     1       1.913   8.380  70.775  0.00  0.00    +0.000 C 
ATOM     19  C   UNL     1       2.892   9.664  72.788  0.00  0.00    +0.000 C 
ATOM     20  C   UNL     1       2.855  11.948  68.420  0.00  0.00    +0.000 C 
ATOM     21  C   UNL     1       4.101  10.542  70.824  0.00  0.00    +0.000 C 
ATOM     22  C   UNL     1       2.258  12.112  67.032  0.00  0.00    +0.000 C 
ATOM     23  C   UNL     1       4.296   9.839  72.173  0.00  0.00    +0.000 C 
ATOM     24  C   UNL     1      -0.046   9.889  66.987  0.00  0.00    +0.000 C 
ATOM     25  C   UNL     1       1.645  11.025  64.851  0.00  0.00    +0.000 C 
ATOM     26  C   UNL     1       0.496  10.082  71.987  0.00  0.00    +0.000 C 
ATOM     27  C   UNL     1       1.791   8.289  66.328  0.00  0.00    +0.000 C 
ATOM     28  C   UNL     1      -0.590  10.129  65.579  0.00  0.00    +0.000 C 
ATOM     29  C   UNL     1       0.132  11.268  64.862  0.00  0.00    +0.000 C 
BRANCH  19  32
ATOM     30  O   UNL     1       1.966   7.318  75.552  0.00  0.00    +0.000 OA
ATOM     31  O   UNL     1       3.297   5.476  75.223  0.00  0.00    +0.000 OA
ATOM     32  C   UNL     1       2.738   8.500  73.729  0.00  0.00    +0.000 C 
ATOM     33  C   UNL     1       1.790   8.559  74.870  0.00  0.00    +0.000 C 
ATOM     34  C   UNL     1       3.407   7.347  73.761  0.00  0.00    +0.000 C 
ATOM     35  C   UNL     1       2.912   6.587  74.907  0.00  0.00    +0.000 C 
ENDBRANCH  19  32
BRANCH  11  36
ATOM     36  O   UNL     1       2.390  12.105  71.339  0.00  0.00    +0.000 OA
ATOM     37  H   UNL     1       2.045  11.950  72.234  0.00  0.00    +0.000 HD
ENDBRANCH  11  36
ENDBRANCH  10  29
ENDBRANCH   2  10
BRANCH   6  38
ATOM     38  O   UNL     1       1.729   7.821  60.180  0.00  0.00    +0.000 OA
BRANCH  38  40
ATOM     39  O   UNL     1       3.969   7.230  59.665  0.00  0.00    +0.000 OA
ATOM     40  C   UNL     1       3.078   7.787  60.623  0.00  0.00    +0.000 C 
ATOM     41  C   UNL     1       3.305   7.197  62.011  0.00  0.00    +0.000 C 
ATOM     42  C   UNL     1       4.660   6.505  62.135  0.00  0.00    +0.000 C 
ATOM     43  C   UNL     1       5.329   7.624  59.931  0.00  0.00    +0.000 C 
ATOM     44  C   UNL     1       5.801   7.161  61.333  0.00  0.00    +0.000 C 
ATOM     45  C   UNL     1       6.187   7.009  58.829  0.00  0.00    +0.000 C 
BRANCH  42  46
ATOM     46  O   UNL     1       5.009   6.314  63.505  0.00  0.00    +0.000 OA
ATOM     47  H   UNL     1       4.202   6.403  64.041  0.00  0.00    +0.000 HD
ENDBRANCH  42  46
BRANCH  44  48
ATOM     48  O   UNL     1       6.588   8.165  61.986  0.00  0.00    +0.000 OA
BRANCH  48  50
ATOM     49  O   UNL     1       7.062  10.378  61.357  0.00  0.00    +0.000 OA
ATOM     50  C   UNL     1       6.125   9.510  61.984  0.00  0.00    +0.000 C 
ATOM     51  C   UNL     1       5.965   9.921  63.452  0.00  0.00    +0.000 C 
ATOM     52  C   UNL     1       6.162  11.421  63.657  0.00  0.00    +0.000 C 
ATOM     53  C   UNL     1       6.559  11.716  61.188  0.00  0.00    +0.000 C 
ATOM     54  C   UNL     1       5.759  12.207  62.408  0.00  0.00    +0.000 C 
ATOM     55  C   UNL     1       7.778  12.596  60.933  0.00  0.00    +0.000 C 
BRANCH  52  56
ATOM     56  O   UNL     1       5.352  11.846  64.761  0.00  0.00    +0.000 OA
ATOM     57  H   UNL     1       5.050  11.046  65.227  0.00  0.00    +0.000 HD
ENDBRANCH  52  56
BRANCH  54  58
ATOM     58  O   UNL     1       4.357  11.987  62.172  0.00  0.00    +0.000 OA
ATOM     59  H   UNL     1       3.946  12.876  62.159  0.00  0.00    +0.000 HD
ENDBRANCH  54  58
ENDBRANCH  48  50
ENDBRANCH  44  48
ENDBRANCH  38  40
ENDBRANCH   6  38
TORSDOF 12
ENDMDL
MODEL 2
REMARK VINA RESULT:      -5.1      2.716     11.890
REMARK  Name = 
REMARK  17 active torsions:
REMARK  status: ('A' for Active; 'I' for Inactive)
REMARK    1  A    between atoms: O_1  and  C_14
REMARK    2  A    between atoms: O_2  and  C_32
REMARK    3  A    between atoms: O_2  and  C_36
REMARK    4  A    between atoms: O_6  and  C_39
REMARK    5  A    between atoms: O_7  and  C_41
REMARK    6  A    between atoms: O_7  and  C_43
REMARK    7  A    between atoms: O_9  and  C_47
REMARK    8  A    between atoms: O_9  and  C_49
REMARK    9  A    between atoms: O_10  and  C_45
REMARK   10  A    between atoms: O_12  and  C_51
REMARK   11  A    between atoms: O_13  and  C_53
REMARK   12  A    between atoms: C_17  and  C_29
REMARK   13  A    between atoms: C_18  and  C_30
REMARK   14  A    between atoms: C_22  and  C_33
REMARK   15  A    between atoms: C_40  and  C_42
REMARK   16  A    between atoms: C_46  and  C_48
REMARK   17  A    between atoms: C_52  and  C_54
REMARK                            x       y       z     vdW  Elec       q    Type
REMARK                         _______ _______ _______ _____ _____    ______ ____
ROOT
ATOM      1  O   UNL     1      -0.882   8.586  68.994  0.00  0.00    +0.000 OA
ATOM      2  C   UNL     1       0.281   8.213  68.259  0.00  0.00    +0.000 C 
ATOM      3  C   UNL     1       0.975   9.418  67.617  0.00  0.00    +0.000 C 
ATOM      4  C   UNL     1       0.393  10.730  68.123  0.00  0.00    +0.000 C 
ATOM      5  C   UNL     1      -0.580   9.448  70.098  0.00  0.00    +0.000 C 
ATOM      6  C   UNL     1       0.124  10.749  69.641  0.00  0.00    +0.000 C 
ATOM      7  C   UNL     1      -1.906   9.753  70.794  0.00  0.00    +0.000 C 
ENDROOT
BRANCH   4   8
ATOM      8  O   UNL     1       1.148  11.847  67.669  0.00  0.00    +0.000 OA
ATOM      9  H   UNL     1       0.956  11.939  66.712  0.00  0.00    +0.000 HD
ENDBRANCH   4   8
BRANCH   2  10
ATOM     10  O   UNL     1       0.001   7.204  67.289  0.00  0.00    +0.000 OA
BRANCH  10  29
ATOM     11  C   UNL     1       3.817   7.526  60.515  0.00  0.00    +0.000 C 
ATOM     12  C   UNL     1       3.006   7.437  61.836  0.00  0.00    +0.000 C 
ATOM     13  C   UNL     1       2.854   5.990  62.372  0.00  0.00    +0.000 C 
ATOM     14  C   UNL     1       5.167   6.755  60.541  0.00  0.00    +0.000 C 
ATOM     15  C   UNL     1       2.031   5.904  63.722  0.00  0.00    +0.000 C 
ATOM     16  C   UNL     1       0.690   6.698  63.584  0.00  0.00    +0.000 C 
ATOM     17  C   UNL     1       4.237   5.311  62.446  0.00  0.00    +0.000 C 
ATOM     18  C   UNL     1       4.958   5.326  61.098  0.00  0.00    +0.000 C 
ATOM     19  C   UNL     1       5.542   6.746  59.024  0.00  0.00    +0.000 C 
ATOM     20  C   UNL     1       1.630   8.105  61.695  0.00  0.00    +0.000 C 
ATOM     21  C   UNL     1       3.097   6.963  59.277  0.00  0.00    +0.000 C 
ATOM     22  C   UNL     1       0.889   8.117  63.022  0.00  0.00    +0.000 C 
ATOM     23  C   UNL     1       4.196   6.508  58.309  0.00  0.00    +0.000 C 
ATOM     24  C   UNL     1       2.838   6.446  64.934  0.00  0.00    +0.000 C 
ATOM     25  C   UNL     1      -0.094   6.780  64.909  0.00  0.00    +0.000 C 
ATOM     26  C   UNL     1       6.242   7.482  61.374  0.00  0.00    +0.000 C 
ATOM     27  C   UNL     1       1.695   4.408  63.980  0.00  0.00    +0.000 C 
ATOM     28  C   UNL     1       2.030   6.516  66.230  0.00  0.00    +0.000 C 
ATOM     29  C   UNL     1       0.744   7.325  66.070  0.00  0.00    +0.000 C 
BRANCH  19  32
ATOM     30  O   UNL     1       8.802   5.246  57.963  0.00  0.00    +0.000 OA
ATOM     31  O   UNL     1       8.319   3.041  57.542  0.00  0.00    +0.000 OA
ATOM     32  C   UNL     1       6.668   5.841  58.602  0.00  0.00    +0.000 C 
ATOM     33  C   UNL     1       8.043   6.368  58.411  0.00  0.00    +0.000 C 
ATOM     34  C   UNL     1       6.635   4.548  58.277  0.00  0.00    +0.000 C 
ATOM     35  C   UNL     1       7.988   4.162  57.884  0.00  0.00    +0.000 C 
ENDBRANCH  19  32
BRANCH  11  36
ATOM     36  O   UNL     1       4.067   8.912  60.224  0.00  0.00    +0.000 OA
ATOM     37  H   UNL     1       5.012   9.093  60.364  0.00  0.00    +0.000 HD
ENDBRANCH  11  36
ENDBRANCH  10  29
ENDBRANCH   2  10
BRANCH   6  38
ATOM     38  O   UNL     1       1.147  11.160  70.552  0.00  0.00    +0.000 OA
BRANCH  38  40
ATOM     39  O   UNL     1       2.330  10.908  72.594  0.00  0.00    +0.000 OA
ATOM     40  C   UNL     1       1.903  10.294  71.385  0.00  0.00    +0.000 C 
ATOM     41  C   UNL     1       3.045   9.547  70.702  0.00  0.00    +0.000 C 
ATOM     42  C   UNL     1       4.212   9.275  71.647  0.00  0.00    +0.000 C 
ATOM     43  C   UNL     1       2.668   9.920  73.586  0.00  0.00    +0.000 C 
ATOM     44  C   UNL     1       3.811   8.988  73.108  0.00  0.00    +0.000 C 
ATOM     45  C   UNL     1       3.070  10.683  74.846  0.00  0.00    +0.000 C 
BRANCH  42  46
ATOM     46  O   UNL     1       5.069   8.264  71.118  0.00  0.00    +0.000 OA
ATOM     47  H   UNL     1       4.713   7.983  70.257  0.00  0.00    +0.000 HD
ENDBRANCH  42  46
BRANCH  44  48
ATOM     48  O   UNL     1       3.576   7.625  73.483  0.00  0.00    +0.000 OA
BRANCH  48  50
ATOM     49  O   UNL     1       4.888   6.636  75.161  0.00  0.00    +0.000 OA
ATOM     50  C   UNL     1       3.650   7.269  74.858  0.00  0.00    +0.000 C 
ATOM     51  C   UNL     1       2.507   6.282  75.118  0.00  0.00    +0.000 C 
ATOM     52  C   UNL     1       2.829   5.307  76.249  0.00  0.00    +0.000 C 
ATOM     53  C   UNL     1       5.071   6.409  76.571  0.00  0.00    +0.000 C 
ATOM     54  C   UNL     1       3.781   5.939  77.267  0.00  0.00    +0.000 C 
ATOM     55  C   UNL     1       6.177   5.367  76.692  0.00  0.00    +0.000 C 
BRANCH  52  56
ATOM     56  O   UNL     1       1.609   4.946  76.908  0.00  0.00    +0.000 OA
ATOM     57  H   UNL     1       1.634   3.984  77.063  0.00  0.00    +0.000 HD
ENDBRANCH  52  56
BRANCH  54  58
ATOM     58  O   UNL     1       3.121   7.074  77.855  0.00  0.00    +0.000 OA
ATOM     59  H   UNL     1       2.191   6.799  77.993  0.00  0.00    +0.000 HD
ENDBRANCH  54  58
ENDBRANCH  48  50
ENDBRANCH  44  48
ENDBRANCH  38  40
ENDBRANCH   6  38
TORSDOF 12
ENDMDL
MODEL 3
REMARK VINA RESULT:      -5.0      6.602     13.416
REMARK  Name = 
REMARK  17 active torsions:
REMARK  status: ('A' for Active; 'I' for Inactive)
REMARK    1  A    between atoms: O_1  and  C_14
REMARK    2  A    between atoms: O_2  and  C_32
REMARK    3  A    between atoms: O_2  and  C_36
REMARK    4  A    between atoms: O_6  and  C_39
REMARK    5  A    between atoms: O_7  and  C_41
REMARK    6  A    between atoms: O_7  and  C_43
REMARK    7  A    between atoms: O_9  and  C_47
REMARK    8  A    between atoms: O_9  and  C_49
REMARK    9  A    between atoms: O_10  and  C_45
REMARK   10  A    between atoms: O_12  and  C_51
REMARK   11  A    between atoms: O_13  and  C_53
REMARK   12  A    between atoms: C_17  and  C_29
REMARK   13  A    between atoms: C_18  and  C_30
REMARK   14  A    between atoms: C_22  and  C_33
REMARK   15  A    between atoms: C_40  and  C_42
REMARK   16  A    between atoms: C_46  and  C_48
REMARK   17  A    between atoms: C_52  and  C_54
REMARK                            x       y       z     vdW  Elec       q    Type
REMARK                         _______ _______ _______ _____ _____    ______ ____
ROOT
ATOM      1  O   UNL     1       6.969  14.335  61.770  0.00  0.00    +0.000 OA
ATOM      2  C   UNL     1       7.938  13.447  61.221  0.00  0.00    +0.000 C 
ATOM      3  C   UNL     1       8.585  12.560  62.288  0.00  0.00    +0.000 C 
ATOM      4  C   UNL     1       7.864  12.678  63.622  0.00  0.00    +0.000 C 
ATOM      5  C   UNL     1       5.867  13.643  62.369  0.00  0.00    +0.000 C 
ATOM      6  C   UNL     1       6.326  12.693  63.500  0.00  0.00    +0.000 C 
ATOM      7  C   UNL     1       4.912  14.712  62.899  0.00  0.00    +0.000 C 
ENDROOT
BRANCH   4   8
ATOM      8  O   UNL     1       8.346  11.728  64.565  0.00  0.00    +0.000 OA
ATOM      9  H   UNL     1       8.178  10.844  64.176  0.00  0.00    +0.000 HD
ENDBRANCH   4   8
BRANCH   2  10
ATOM     10  O   UNL     1       8.927  14.136  60.456  0.00  0.00    +0.000 OA
BRANCH  10  29
ATOM     11  C   UNL     1      16.383  12.251  61.643  0.00  0.00    +0.000 C 
ATOM     12  C   UNL     1      14.912  12.689  61.405  0.00  0.00    +0.000 C 
ATOM     13  C   UNL     1      14.639  13.182  59.961  0.00  0.00    +0.000 C 
ATOM     14  C   UNL     1      16.943  11.280  60.566  0.00  0.00    +0.000 C 
ATOM     15  C   UNL     1      13.137  13.622  59.721  0.00  0.00    +0.000 C 
ATOM     16  C   UNL     1      12.680  14.605  60.849  0.00  0.00    +0.000 C 
ATOM     17  C   UNL     1      15.148  12.137  58.946  0.00  0.00    +0.000 C 
ATOM     18  C   UNL     1      16.629  11.813  59.147  0.00  0.00    +0.000 C 
ATOM     19  C   UNL     1      18.472  11.321  60.884  0.00  0.00    +0.000 C 
ATOM     20  C   UNL     1      14.470  13.747  62.427  0.00  0.00    +0.000 C 
ATOM     21  C   UNL     1      17.403  13.403  61.663  0.00  0.00    +0.000 C 
ATOM     22  C   UNL     1      12.997  14.085  62.262  0.00  0.00    +0.000 C 
ATOM     23  C   UNL     1      18.743  12.800  61.224  0.00  0.00    +0.000 C 
ATOM     24  C   UNL     1      12.173  12.404  59.665  0.00  0.00    +0.000 C 
ATOM     25  C   UNL     1      11.181  14.959  60.760  0.00  0.00    +0.000 C 
ATOM     26  C   UNL     1      16.382   9.851  60.716  0.00  0.00    +0.000 C 
ATOM     27  C   UNL     1      13.071  14.368  58.358  0.00  0.00    +0.000 C 
ATOM     28  C   UNL     1      10.697  12.791  59.581  0.00  0.00    +0.000 C 
ATOM     29  C   UNL     1      10.275  13.726  60.713  0.00  0.00    +0.000 C 
BRANCH  19  32
ATOM     30  O   UNL     1      20.965  10.640  58.177  0.00  0.00    +0.000 OA
ATOM     31  O   UNL     1      20.896   8.364  57.881  0.00  0.00    +0.000 OA
ATOM     32  C   UNL     1      19.400  10.709  59.869  0.00  0.00    +0.000 C 
ATOM     33  C   UNL     1      20.298  11.556  59.044  0.00  0.00    +0.000 C 
ATOM     34  C   UNL     1      19.524   9.434  59.500  0.00  0.00    +0.000 C 
ATOM     35  C   UNL     1      20.525   9.381  58.437  0.00  0.00    +0.000 C 
ENDBRANCH  19  32
BRANCH  11  36
ATOM     36  O   UNL     1      16.472  11.629  62.936  0.00  0.00    +0.000 OA
ATOM     37  H   UNL     1      16.990  12.206  63.523  0.00  0.00    +0.000 HD
ENDBRANCH  11  36
ENDBRANCH  10  29
ENDBRANCH   2  10
BRANCH   6  38
ATOM     38  O   UNL     1       5.588  11.468  63.513  0.00  0.00    +0.000 OA
BRANCH  38  40
ATOM     39  O   UNL     1       4.642  10.500  61.564  0.00  0.00    +0.000 OA
ATOM     40  C   UNL     1       5.679  10.443  62.534  0.00  0.00    +0.000 C 
ATOM     41  C   UNL     1       5.867   9.028  63.071  0.00  0.00    +0.000 C 
ATOM     42  C   UNL     1       5.232   7.973  62.169  0.00  0.00    +0.000 C 
ATOM     43  C   UNL     1       5.008   9.781  60.370  0.00  0.00    +0.000 C 
ATOM     44  C   UNL     1       5.292   8.286  60.660  0.00  0.00    +0.000 C 
ATOM     45  C   UNL     1       3.849   9.941  59.389  0.00  0.00    +0.000 C 
BRANCH  42  46
ATOM     46  O   UNL     1       5.743   6.675  62.468  0.00  0.00    +0.000 OA
ATOM     47  H   UNL     1       6.574   6.781  62.962  0.00  0.00    +0.000 HD
ENDBRANCH  42  46
BRANCH  44  48
ATOM     48  O   UNL     1       6.423   7.807  59.922  0.00  0.00    +0.000 OA
BRANCH  48  50
ATOM     49  O   UNL     1       6.950   5.701  59.026  0.00  0.00    +0.000 OA
ATOM     50  C   UNL     1       6.207   6.902  58.846  0.00  0.00    +0.000 C 
ATOM     51  C   UNL     1       6.695   7.606  57.575  0.00  0.00    +0.000 C 
ATOM     52  C   UNL     1       7.184   6.619  56.518  0.00  0.00    +0.000 C 
ATOM     53  C   UNL     1       6.633   4.694  58.047  0.00  0.00    +0.000 C 
ATOM     54  C   UNL     1       6.453   5.279  56.634  0.00  0.00    +0.000 C 
ATOM     55  C   UNL     1       7.777   3.688  58.090  0.00  0.00    +0.000 C 
BRANCH  52  56
ATOM     56  O   UNL     1       6.940   7.175  55.220  0.00  0.00    +0.000 OA
ATOM     57  H   UNL     1       6.624   6.453  54.647  0.00  0.00    +0.000 HD
ENDBRANCH  52  56
BRANCH  54  58
ATOM     58  O   UNL     1       5.054   5.508  56.392  0.00  0.00    +0.000 OA
ATOM     59  H   UNL     1       4.999   5.890  55.492  0.00  0.00    +0.000 HD
ENDBRANCH  54  58
ENDBRANCH  48  50
ENDBRANCH  44  48
ENDBRANCH  38  40
ENDBRANCH   6  38
TORSDOF 12
ENDMDL
MODEL 4
REMARK VINA RESULT:      -5.0     12.009     17.615
REMARK  Name = 
REMARK  17 active torsions:
REMARK  status: ('A' for Active; 'I' for Inactive)
REMARK    1  A    between atoms: O_1  and  C_14
REMARK    2  A    between atoms: O_2  and  C_32
REMARK    3  A    between atoms: O_2  and  C_36
REMARK    4  A    between atoms: O_6  and  C_39
REMARK    5  A    between atoms: O_7  and  C_41
REMARK    6  A    between atoms: O_7  and  C_43
REMARK    7  A    between atoms: O_9  and  C_47
REMARK    8  A    between atoms: O_9  and  C_49
REMARK    9  A    between atoms: O_10  and  C_45
REMARK   10  A    between atoms: O_12  and  C_51
REMARK   11  A    between atoms: O_13  and  C_53
REMARK   12  A    between atoms: C_17  and  C_29
REMARK   13  A    between atoms: C_18  and  C_30
REMARK   14  A    between atoms: C_22  and  C_33
REMARK   15  A    between atoms: C_40  and  C_42
REMARK   16  A    between atoms: C_46  and  C_48
REMARK   17  A    between atoms: C_52  and  C_54
REMARK                            x       y       z     vdW  Elec       q    Type
REMARK                         _______ _______ _______ _____ _____    ______ ____
ROOT
ATOM      1  O   UNL     1      19.583   7.015  69.053  0.00  0.00    +0.000 OA
ATOM      2  C   UNL     1      18.918   6.823  67.808  0.00  0.00    +0.000 C 
ATOM      3  C   UNL     1      18.048   5.563  67.800  0.00  0.00    +0.000 C 
ATOM      4  C   UNL     1      17.920   4.967  69.194  0.00  0.00    +0.000 C 
ATOM      5  C   UNL     1      18.668   7.212  70.139  0.00  0.00    +0.000 C 
ATOM      6  C   UNL     1      17.700   6.016  70.303  0.00  0.00    +0.000 C 
ATOM      7  C   UNL     1      19.514   7.414  71.396  0.00  0.00    +0.000 C 
ENDROOT
BRANCH   4   8
ATOM      8  O   UNL     1      16.973   3.905  69.225  0.00  0.00    +0.000 OA
ATOM      9  H   UNL     1      16.180   4.257  69.682  0.00  0.00    +0.000 HD
ENDBRANCH   4   8
BRANCH   2  10
ATOM     10  O   UNL     1      19.828   6.827  66.707  0.00  0.00    +0.000 OA
BRANCH  10  29
ATOM     11  C   UNL     1      17.547  10.727  60.372  0.00  0.00    +0.000 C 
ATOM     12  C   UNL     1      18.062   9.964  61.623  0.00  0.00    +0.000 C 
ATOM     13  C   UNL     1      18.536  10.898  62.766  0.00  0.00    +0.000 C 
ATOM     14  C   UNL     1      16.520  11.851  60.688  0.00  0.00    +0.000 C 
ATOM     15  C   UNL     1      19.055  10.117  64.041  0.00  0.00    +0.000 C 
ATOM     16  C   UNL     1      20.090   9.023  63.614  0.00  0.00    +0.000 C 
ATOM     17  C   UNL     1      17.440  11.937  63.080  0.00  0.00    +0.000 C 
ATOM     18  C   UNL     1      17.036  12.741  61.844  0.00  0.00    +0.000 C 
ATOM     19  C   UNL     1      16.480  12.618  59.327  0.00  0.00    +0.000 C 
ATOM     20  C   UNL     1      19.168   8.964  61.253  0.00  0.00    +0.000 C 
ATOM     21  C   UNL     1      18.638  11.446  59.560  0.00  0.00    +0.000 C 
ATOM     22  C   UNL     1      19.586   8.139  62.459  0.00  0.00    +0.000 C 
ATOM     23  C   UNL     1      17.949  12.623  58.859  0.00  0.00    +0.000 C 
ATOM     24  C   UNL     1      17.894   9.457  64.836  0.00  0.00    +0.000 C 
ATOM     25  C   UNL     1      20.527   8.125  64.790  0.00  0.00    +0.000 C 
ATOM     26  C   UNL     1      15.129  11.290  61.050  0.00  0.00    +0.000 C 
ATOM     27  C   UNL     1      19.771  11.140  64.968  0.00  0.00    +0.000 C 
ATOM     28  C   UNL     1      18.363   8.573  65.991  0.00  0.00    +0.000 C 
ATOM     29  C   UNL     1      19.347   7.496  65.536  0.00  0.00    +0.000 C 
BRANCH  19  32
ATOM     30  O   UNL     1      15.594  16.254  59.310  0.00  0.00    +0.000 OA
ATOM     31  O   UNL     1      13.305  16.296  59.493  0.00  0.00    +0.000 OA
ATOM     32  C   UNL     1      15.792  13.957  59.315  0.00  0.00    +0.000 C 
ATOM     33  C   UNL     1      16.572  15.218  59.240  0.00  0.00    +0.000 C 
ATOM     34  C   UNL     1      14.495  14.239  59.435  0.00  0.00    +0.000 C 
ATOM     35  C   UNL     1      14.361  15.694  59.419  0.00  0.00    +0.000 C 
ENDBRANCH  19  32
BRANCH  11  36
ATOM     36  O   UNL     1      16.951   9.778  59.470  0.00  0.00    +0.000 OA
ATOM     37  H   UNL     1      16.772  10.225  58.625  0.00  0.00    +0.000 HD
ENDBRANCH  11  36
ENDBRANCH  10  29
ENDBRANCH   2  10
BRANCH   6  38
ATOM     38  O   UNL     1      16.376   6.434  70.650  0.00  0.00    +0.000 OA
BRANCH  38  40
ATOM     39  O   UNL     1      14.758   8.124  71.045  0.00  0.00    +0.000 OA
ATOM     40  C   UNL     1      15.720   7.588  70.147  0.00  0.00    +0.000 C 
ATOM     41  C   UNL     1      15.161   7.469  68.732  0.00  0.00    +0.000 C 
ATOM     42  C   UNL     1      13.910   8.319  68.526  0.00  0.00    +0.000 C 
ATOM     43  C   UNL     1      14.463   9.499  70.730  0.00  0.00    +0.000 C 
ATOM     44  C   UNL     1      13.898   9.655  69.295  0.00  0.00    +0.000 C 
ATOM     45  C   UNL     1      13.458   9.982  71.773  0.00  0.00    +0.000 C 
BRANCH  42  46
ATOM     46  O   UNL     1      13.642   8.498  67.136  0.00  0.00    +0.000 OA
ATOM     47  H   UNL     1      12.772   8.924  67.046  0.00  0.00    +0.000 HD
ENDBRANCH  42  46
BRANCH  44  48
ATOM     48  O   UNL     1      14.431  10.811  68.638  0.00  0.00    +0.000 OA
BRANCH  48  50
ATOM     49  O   UNL     1      15.635  12.817  68.844  0.00  0.00    +0.000 OA
ATOM     50  C   UNL     1      15.591  11.434  69.176  0.00  0.00    +0.000 C 
ATOM     51  C   UNL     1      16.799  10.729  68.548  0.00  0.00    +0.000 C 
ATOM     52  C   UNL     1      18.015  11.647  68.443  0.00  0.00    +0.000 C 
ATOM     53  C   UNL     1      16.704  13.518  69.506  0.00  0.00    +0.000 C 
ATOM     54  C   UNL     1      18.008  12.700  69.554  0.00  0.00    +0.000 C 
ATOM     55  C   UNL     1      16.895  14.821  68.738  0.00  0.00    +0.000 C 
BRANCH  52  56
ATOM     56  O   UNL     1      19.203  10.854  68.556  0.00  0.00    +0.000 OA
ATOM     57  H   UNL     1      19.636  10.850  67.683  0.00  0.00    +0.000 HD
ENDBRANCH  52  56
BRANCH  54  58
ATOM     58  O   UNL     1      18.092  12.019  70.819  0.00  0.00    +0.000 OA
ATOM     59  H   UNL     1      18.319  11.091  70.606  0.00  0.00    +0.000 HD
ENDBRANCH  54  58
ENDBRANCH  48  50
ENDBRANCH  44  48
ENDBRANCH  38  40
ENDBRANCH   6  38
TORSDOF 12
ENDMDL
MODEL 5
REMARK VINA RESULT:      -4.9     10.891     17.153
REMARK  Name = 
REMARK  17 active torsions:
REMARK  status: ('A' for Active; 'I' for Inactive)
REMARK    1  A    between atoms: O_1  and  C_14
REMARK    2  A    between atoms: O_2  and  C_32
REMARK    3  A    between atoms: O_2  and  C_36
REMARK    4  A    between atoms: O_6  and  C_39
REMARK    5  A    between atoms: O_7  and  C_41
REMARK    6  A    between atoms: O_7  and  C_43
REMARK    7  A    between atoms: O_9  and  C_47
REMARK    8  A    between atoms: O_9  and  C_49
REMARK    9  A    between atoms: O_10  and  C_45
REMARK   10  A    between atoms: O_12  and  C_51
REMARK   11  A    between atoms: O_13  and  C_53
REMARK   12  A    between atoms: C_17  and  C_29
REMARK   13  A    between atoms: C_18  and  C_30
REMARK   14  A    between atoms: C_22  and  C_33
REMARK   15  A    between atoms: C_40  and  C_42
REMARK   16  A    between atoms: C_46  and  C_48
REMARK   17  A    between atoms: C_52  and  C_54
REMARK                            x       y       z     vdW  Elec       q    Type
REMARK                         _______ _______ _______ _____ _____    ______ ____
ROOT
ATOM      1  O   UNL     1      19.517   7.330  69.060  0.00  0.00    +0.000 OA
ATOM      2  C   UNL     1      18.895   6.989  67.824  0.00  0.00    +0.000 C 
ATOM      3  C   UNL     1      18.169   5.642  67.890  0.00  0.00    +0.000 C 
ATOM      4  C   UNL     1      18.087   5.123  69.317  0.00  0.00    +0.000 C 
ATOM      5  C   UNL     1      18.571   7.491  70.124  0.00  0.00    +0.000 C 
ATOM      6  C   UNL     1      17.738   6.208  70.357  0.00  0.00    +0.000 C 
ATOM      7  C   UNL     1      19.372   7.862  71.372  0.00  0.00    +0.000 C 
ENDROOT
BRANCH   4   8
ATOM      8  O   UNL     1      17.263   3.967  69.409  0.00  0.00    +0.000 OA
ATOM      9  H   UNL     1      17.761   3.315  69.945  0.00  0.00    +0.000 HD
ENDBRANCH   4   8
BRANCH   2  10
ATOM     10  O   UNL     1      19.814   7.024  66.732  0.00  0.00    +0.000 OA
BRANCH  10  29
ATOM     11  C   UNL     1      17.441  10.786  60.347  0.00  0.00    +0.000 C 
ATOM     12  C   UNL     1      17.974  10.051  61.607  0.00  0.00    +0.000 C 
ATOM     13  C   UNL     1      18.443  11.011  62.731  0.00  0.00    +0.000 C 
ATOM     14  C   UNL     1      16.401  11.902  60.651  0.00  0.00    +0.000 C 
ATOM     15  C   UNL     1      18.981  10.258  64.016  0.00  0.00    +0.000 C 
ATOM     16  C   UNL     1      20.027   9.171  63.601  0.00  0.00    +0.000 C 
ATOM     17  C   UNL     1      17.335  12.041  63.035  0.00  0.00    +0.000 C 
ATOM     18  C   UNL     1      16.914  12.818  61.788  0.00  0.00    +0.000 C 
ATOM     19  C   UNL     1      16.342  12.645  59.278  0.00  0.00    +0.000 C 
ATOM     20  C   UNL     1      19.091   9.060  61.247  0.00  0.00    +0.000 C 
ATOM     21  C   UNL     1      18.518  11.505  59.516  0.00  0.00    +0.000 C 
ATOM     22  C   UNL     1      19.527   8.261  62.464  0.00  0.00    +0.000 C 
ATOM     23  C   UNL     1      17.809  12.661  58.800  0.00  0.00    +0.000 C 
ATOM     24  C   UNL     1      17.833   9.597  64.829  0.00  0.00    +0.000 C 
ATOM     25  C   UNL     1      20.483   8.299  64.788  0.00  0.00    +0.000 C 
ATOM     26  C   UNL     1      15.021  11.329  61.032  0.00  0.00    +0.000 C 
ATOM     27  C   UNL     1      19.689  11.306  64.920  0.00  0.00    +0.000 C 
ATOM     28  C   UNL     1      18.322   8.739  65.996  0.00  0.00    +0.000 C 
ATOM     29  C   UNL     1      19.316   7.667  65.553  0.00  0.00    +0.000 C 
BRANCH  19  32
ATOM     30  O   UNL     1      15.408  16.267  59.164  0.00  0.00    +0.000 OA
ATOM     31  O   UNL     1      13.130  16.290  59.456  0.00  0.00    +0.000 OA
ATOM     32  C   UNL     1      15.637  13.975  59.248  0.00  0.00    +0.000 C 
ATOM     33  C   UNL     1      16.395  15.241  59.086  0.00  0.00    +0.000 C 
ATOM     34  C   UNL     1      14.343  14.247  59.420  0.00  0.00    +0.000 C 
ATOM     35  C   UNL     1      14.189  15.698  59.354  0.00  0.00    +0.000 C 
ENDBRANCH  19  32
BRANCH  11  36
ATOM     36  O   UNL     1      16.852   9.815  59.466  0.00  0.00    +0.000 OA
ATOM     37  H   UNL     1      16.135  10.243  58.967  0.00  0.00    +0.000 HD
ENDBRANCH  11  36
ENDBRANCH  10  29
ENDBRANCH   2  10
BRANCH   6  38
ATOM     38  O   UNL     1      16.372   6.498  70.668  0.00  0.00    +0.000 OA
BRANCH  38  40
ATOM     39  O   UNL     1      14.569   7.986  71.075  0.00  0.00    +0.000 OA
ATOM     40  C   UNL     1      15.651   7.638  70.223  0.00  0.00    +0.000 C 
ATOM     41  C   UNL     1      15.230   7.625  68.757  0.00  0.00    +0.000 C 
ATOM     42  C   UNL     1      13.924   8.378  68.519  0.00  0.00    +0.000 C 
ATOM     43  C   UNL     1      14.169   9.355  70.873  0.00  0.00    +0.000 C 
ATOM     44  C   UNL     1      13.716   9.616  69.414  0.00  0.00    +0.000 C 
ATOM     45  C   UNL     1      13.036   9.631  71.859  0.00  0.00    +0.000 C 
BRANCH  42  46
ATOM     46  O   UNL     1      13.759   8.684  67.135  0.00  0.00    +0.000 OA
ATOM     47  H   UNL     1      12.996   8.182  66.800  0.00  0.00    +0.000 HD
ENDBRANCH  42  46
BRANCH  44  48
ATOM     48  O   UNL     1      14.188  10.880  68.930  0.00  0.00    +0.000 OA
BRANCH  48  50
ATOM     49  O   UNL     1      13.242  12.718  70.045  0.00  0.00    +0.000 OA
ATOM     50  C   UNL     1      13.273  11.965  68.838  0.00  0.00    +0.000 C 
ATOM     51  C   UNL     1      11.889  11.353  68.594  0.00  0.00    +0.000 C 
ATOM     52  C   UNL     1      10.765  12.227  69.145  0.00  0.00    +0.000 C 
ATOM     53  C   UNL     1      12.455  13.918  69.937  0.00  0.00    +0.000 C 
ATOM     54  C   UNL     1      11.158  13.706  69.134  0.00  0.00    +0.000 C 
ATOM     55  C   UNL     1      12.156  14.359  71.365  0.00  0.00    +0.000 C 
BRANCH  52  56
ATOM     56  O   UNL     1       9.599  12.045  68.332  0.00  0.00    +0.000 OA
ATOM     57  H   UNL     1       9.225  11.172  68.548  0.00  0.00    +0.000 HD
ENDBRANCH  52  56
BRANCH  54  58
ATOM     58  O   UNL     1      11.379  14.101  67.768  0.00  0.00    +0.000 OA
ATOM     59  H   UNL     1      11.758  15.003  67.811  0.00  0.00    +0.000 HD
ENDBRANCH  54  58
ENDBRANCH  48  50
ENDBRANCH  44  48
ENDBRANCH  38  40
ENDBRANCH   6  38
TORSDOF 12
ENDMDL
MODEL 6
REMARK VINA RESULT:      -4.9      8.262     12.735
REMARK  Name = 
REMARK  17 active torsions:
REMARK  status: ('A' for Active; 'I' for Inactive)
REMARK    1  A    between atoms: O_1  and  C_14
REMARK    2  A    between atoms: O_2  and  C_32
REMARK    3  A    between atoms: O_2  and  C_36
REMARK    4  A    between atoms: O_6  and  C_39
REMARK    5  A    between atoms: O_7  and  C_41
REMARK    6  A    between atoms: O_7  and  C_43
REMARK    7  A    between atoms: O_9  and  C_47
REMARK    8  A    between atoms: O_9  and  C_49
REMARK    9  A    between atoms: O_10  and  C_45
REMARK   10  A    between atoms: O_12  and  C_51
REMARK   11  A    between atoms: O_13  and  C_53
REMARK   12  A    between atoms: C_17  and  C_29
REMARK   13  A    between atoms: C_18  and  C_30
REMARK   14  A    between atoms: C_22  and  C_33
REMARK   15  A    between atoms: C_40  and  C_42
REMARK   16  A    between atoms: C_46  and  C_48
REMARK   17  A    between atoms: C_52  and  C_54
REMARK                            x       y       z     vdW  Elec       q    Type
REMARK                         _______ _______ _______ _____ _____    ______ ____
ROOT
ATOM      1  O   UNL     1       7.831  11.340  61.324  0.00  0.00    +0.000 OA
ATOM      2  C   UNL     1       7.485  10.717  60.090  0.00  0.00    +0.000 C 
ATOM      3  C   UNL     1       7.198  11.735  58.984  0.00  0.00    +0.000 C 
ATOM      4  C   UNL     1       7.586  13.143  59.409  0.00  0.00    +0.000 C 
ATOM      5  C   UNL     1       9.036  12.110  61.232  0.00  0.00    +0.000 C 
ATOM      6  C   UNL     1       8.932  13.220  60.158  0.00  0.00    +0.000 C 
ATOM      7  C   UNL     1       9.285  12.705  62.617  0.00  0.00    +0.000 C 
ENDROOT
BRANCH   4   8
ATOM      8  O   UNL     1       7.489  14.063  58.327  0.00  0.00    +0.000 OA
ATOM      9  H   UNL     1       8.025  14.844  58.581  0.00  0.00    +0.000 HD
ENDBRANCH   4   8
BRANCH   2  10
ATOM     10  O   UNL     1       6.403   9.798  60.237  0.00  0.00    +0.000 OA
BRANCH  10  29
ATOM     11  C   UNL     1       8.010   2.391  58.475  0.00  0.00    +0.000 C 
ATOM     12  C   UNL     1       7.683   3.881  58.765  0.00  0.00    +0.000 C 
ATOM     13  C   UNL     1       6.196   4.246  58.528  0.00  0.00    +0.000 C 
ATOM     14  C   UNL     1       7.034   1.382  59.145  0.00  0.00    +0.000 C 
ATOM     15  C   UNL     1       5.866   5.765  58.830  0.00  0.00    +0.000 C 
ATOM     16  C   UNL     1       6.895   6.692  58.100  0.00  0.00    +0.000 C 
ATOM     17  C   UNL     1       5.287   3.254  59.283  0.00  0.00    +0.000 C 
ATOM     18  C   UNL     1       5.566   1.803  58.889  0.00  0.00    +0.000 C 
ATOM     19  C   UNL     1       7.404   0.060  58.399  0.00  0.00    +0.000 C 
ATOM     20  C   UNL     1       8.601   4.821  57.967  0.00  0.00    +0.000 C 
ATOM     21  C   UNL     1       7.976   2.000  56.987  0.00  0.00    +0.000 C 
ATOM     22  C   UNL     1       8.356   6.273  58.343  0.00  0.00    +0.000 C 
ATOM     23  C   UNL     1       7.635   0.506  56.941  0.00  0.00    +0.000 C 
ATOM     24  C   UNL     1       5.872   6.073  60.353  0.00  0.00    +0.000 C 
ATOM     25  C   UNL     1       6.723   8.180  58.468  0.00  0.00    +0.000 C 
ATOM     26  C   UNL     1       7.276   1.250  60.662  0.00  0.00    +0.000 C 
ATOM     27  C   UNL     1       4.447   6.065  58.269  0.00  0.00    +0.000 C 
ATOM     28  C   UNL     1       5.703   7.557  60.681  0.00  0.00    +0.000 C 
ATOM     29  C   UNL     1       6.741   8.430  59.979  0.00  0.00    +0.000 C 
BRANCH  19  32
ATOM     30  O   UNL     1       4.825  -2.629  58.039  0.00  0.00    +0.000 OA
ATOM     31  O   UNL     1       4.779  -3.668  60.086  0.00  0.00    +0.000 OA
ATOM     32  C   UNL     1       6.476  -1.112  58.578  0.00  0.00    +0.000 C 
ATOM     33  C   UNL     1       5.577  -1.552  57.482  0.00  0.00    +0.000 C 
ATOM     34  C   UNL     1       6.251  -1.850  59.665  0.00  0.00    +0.000 C 
ATOM     35  C   UNL     1       5.215  -2.823  59.325  0.00  0.00    +0.000 C 
ENDBRANCH  19  32
BRANCH  11  36
ATOM     36  O   UNL     1       9.351   2.121  58.919  0.00  0.00    +0.000 OA
ATOM     37  H   UNL     1       9.864   1.782  58.165  0.00  0.00    +0.000 HD
ENDBRANCH  11  36
ENDBRANCH  10  29
ENDBRANCH   2  10
BRANCH   6  38
ATOM     38  O   UNL     1      10.154  13.389  59.433  0.00  0.00    +0.000 OA
BRANCH  38  40
ATOM     39  O   UNL     1      12.098  13.762  60.743  0.00  0.00    +0.000 OA
ATOM     40  C   UNL     1      11.424  12.898  59.838  0.00  0.00    +0.000 C 
ATOM     41  C   UNL     1      12.345  12.436  58.713  0.00  0.00    +0.000 C 
ATOM     42  C   UNL     1      13.820  12.643  59.045  0.00  0.00    +0.000 C 
ATOM     43  C   UNL     1      13.119  13.055  61.473  0.00  0.00    +0.000 C 
ATOM     44  C   UNL     1      14.186  12.445  60.529  0.00  0.00    +0.000 C 
ATOM     45  C   UNL     1      13.746  14.060  62.436  0.00  0.00    +0.000 C 
BRANCH  42  46
ATOM     46  O   UNL     1      14.649  11.868  58.180  0.00  0.00    +0.000 OA
ATOM     47  H   UNL     1      15.573  12.138  58.320  0.00  0.00    +0.000 HD
ENDBRANCH  42  46
BRANCH  44  48
ATOM     48  O   UNL     1      14.582  11.134  60.952  0.00  0.00    +0.000 OA
BRANCH  48  50
ATOM     49  O   UNL     1      16.612  12.173  61.512  0.00  0.00    +0.000 OA
ATOM     50  C   UNL     1      15.884  10.951  61.495  0.00  0.00    +0.000 C 
ATOM     51  C   UNL     1      16.603   9.952  60.582  0.00  0.00    +0.000 C 
ATOM     52  C   UNL     1      18.116  10.163  60.572  0.00  0.00    +0.000 C 
ATOM     53  C   UNL     1      17.870  12.066  62.203  0.00  0.00    +0.000 C 
ATOM     54  C   UNL     1      18.601  10.745  61.902  0.00  0.00    +0.000 C 
ATOM     55  C   UNL     1      18.698  13.269  61.764  0.00  0.00    +0.000 C 
BRANCH  52  56
ATOM     56  O   UNL     1      18.756   8.899  60.352  0.00  0.00    +0.000 OA
ATOM     57  H   UNL     1      18.086   8.291  59.991  0.00  0.00    +0.000 HD
ENDBRANCH  52  56
BRANCH  54  58
ATOM     58  O   UNL     1      18.306   9.795  62.942  0.00  0.00    +0.000 OA
ATOM     59  H   UNL     1      18.179  10.324  63.756  0.00  0.00    +0.000 HD
ENDBRANCH  54  58
ENDBRANCH  48  50
ENDBRANCH  44  48
ENDBRANCH  38  40
ENDBRANCH   6  38
TORSDOF 12
ENDMDL
MODEL 7
REMARK VINA RESULT:      -4.8      5.098      8.485
REMARK  Name = 
REMARK  17 active torsions:
REMARK  status: ('A' for Active; 'I' for Inactive)
REMARK    1  A    between atoms: O_1  and  C_14
REMARK    2  A    between atoms: O_2  and  C_32
REMARK    3  A    between atoms: O_2  and  C_36
REMARK    4  A    between atoms: O_6  and  C_39
REMARK    5  A    between atoms: O_7  and  C_41
REMARK    6  A    between atoms: O_7  and  C_43
REMARK    7  A    between atoms: O_9  and  C_47
REMARK    8  A    between atoms: O_9  and  C_49
REMARK    9  A    between atoms: O_10  and  C_45
REMARK   10  A    between atoms: O_12  and  C_51
REMARK   11  A    between atoms: O_13  and  C_53
REMARK   12  A    between atoms: C_17  and  C_29
REMARK   13  A    between atoms: C_18  and  C_30
REMARK   14  A    between atoms: C_22  and  C_33
REMARK   15  A    between atoms: C_40  and  C_42
REMARK   16  A    between atoms: C_46  and  C_48
REMARK   17  A    between atoms: C_52  and  C_54
REMARK                            x       y       z     vdW  Elec       q    Type
REMARK                         _______ _______ _______ _____ _____    ______ ____
ROOT
ATOM      1  O   UNL     1       6.205   0.903  59.320  0.00  0.00    +0.000 OA
ATOM      2  C   UNL     1       6.929   1.469  60.410  0.00  0.00    +0.000 C 
ATOM      3  C   UNL     1       8.293   2.017  59.980  0.00  0.00    +0.000 C 
ATOM      4  C   UNL     1       8.431   2.040  58.466  0.00  0.00    +0.000 C 
ATOM      5  C   UNL     1       5.895   1.868  58.308  0.00  0.00    +0.000 C 
ATOM      6  C   UNL     1       7.168   2.532  57.731  0.00  0.00    +0.000 C 
ATOM      7  C   UNL     1       5.116   1.129  57.220  0.00  0.00    +0.000 C 
ENDROOT
BRANCH   4   8
ATOM      8  O   UNL     1       9.618   2.711  58.058  0.00  0.00    +0.000 OA
ATOM      9  H   UNL     1       9.511   2.906  57.103  0.00  0.00    +0.000 HD
ENDBRANCH   4   8
BRANCH   2  10
ATOM     10  O   UNL     1       7.062   0.555  61.499  0.00  0.00    +0.000 OA
BRANCH  10  29
ATOM     11  C   UNL     1       2.222   1.862  67.450  0.00  0.00    +0.000 C 
ATOM     12  C   UNL     1       3.161   1.543  66.255  0.00  0.00    +0.000 C 
ATOM     13  C   UNL     1       2.446   1.575  64.880  0.00  0.00    +0.000 C 
ATOM     14  C   UNL     1       1.354   3.138  67.258  0.00  0.00    +0.000 C 
ATOM     15  C   UNL     1       3.408   1.256  63.664  0.00  0.00    +0.000 C 
ATOM     16  C   UNL     1       4.221  -0.050  63.952  0.00  0.00    +0.000 C 
ATOM     17  C   UNL     1       1.670   2.899  64.724  0.00  0.00    +0.000 C 
ATOM     18  C   UNL     1       0.678   3.123  65.866  0.00  0.00    +0.000 C 
ATOM     19  C   UNL     1       0.318   2.979  68.417  0.00  0.00    +0.000 C 
ATOM     20  C   UNL     1       3.886   0.204  66.453  0.00  0.00    +0.000 C 
ATOM     21  C   UNL     1       1.193   0.764  67.771  0.00  0.00    +0.000 C 
ATOM     22  C   UNL     1       4.889  -0.046  65.339  0.00  0.00    +0.000 C 
ATOM     23  C   UNL     1       0.000   1.470  68.428  0.00  0.00    +0.000 C 
ATOM     24  C   UNL     1       4.386   2.427  63.369  0.00  0.00    +0.000 C 
ATOM     25  C   UNL     1       5.285  -0.340  62.875  0.00  0.00    +0.000 C 
ATOM     26  C   UNL     1       2.174   4.434  67.420  0.00  0.00    +0.000 C 
ATOM     27  C   UNL     1       2.524   1.020  62.406  0.00  0.00    +0.000 C 
ATOM     28  C   UNL     1       5.428   2.104  62.299  0.00  0.00    +0.000 C 
ATOM     29  C   UNL     1       6.226   0.843  62.625  0.00  0.00    +0.000 C 
BRANCH  19  32
ATOM     30  O   UNL     1      -3.078   4.522  68.118  0.00  0.00    +0.000 OA
ATOM     31  O   UNL     1      -2.732   6.763  68.477  0.00  0.00    +0.000 OA
ATOM     32  C   UNL     1      -0.878   3.892  68.398  0.00  0.00    +0.000 C 
ATOM     33  C   UNL     1      -2.236   3.370  68.103  0.00  0.00    +0.000 C 
ATOM     34  C   UNL     1      -0.930   5.216  68.548  0.00  0.00    +0.000 C 
ATOM     35  C   UNL     1      -2.325   5.620  68.385  0.00  0.00    +0.000 C 
ENDBRANCH  19  32
BRANCH  11  36
ATOM     36  O   UNL     1       3.022   2.005  68.636  0.00  0.00    +0.000 OA
ATOM     37  H   UNL     1       2.999   2.936  68.915  0.00  0.00    +0.000 HD
ENDBRANCH  11  36
ENDBRANCH  10  29
ENDBRANCH   2  10
BRANCH   6  38
ATOM     38  O   UNL     1       6.980   3.926  57.468  0.00  0.00    +0.000 OA
BRANCH  38  40
ATOM     39  O   UNL     1       5.355   5.476  58.233  0.00  0.00    +0.000 OA
ATOM     40  C   UNL     1       6.641   4.907  58.437  0.00  0.00    +0.000 C 
ATOM     41  C   UNL     1       7.696   5.979  58.692  0.00  0.00    +0.000 C 
ATOM     42  C   UNL     1       7.081   7.319  59.086  0.00  0.00    +0.000 C 
ATOM     43  C   UNL     1       4.862   6.090  59.439  0.00  0.00    +0.000 C 
ATOM     44  C   UNL     1       5.798   7.221  59.937  0.00  0.00    +0.000 C 
ATOM     45  C   UNL     1       3.470   6.630  59.120  0.00  0.00    +0.000 C 
BRANCH  42  46
ATOM     46  O   UNL     1       8.057   8.169  59.686  0.00  0.00    +0.000 OA
ATOM     47  H   UNL     1       7.963   9.059  59.303  0.00  0.00    +0.000 HD
ENDBRANCH  42  46
BRANCH  44  48
ATOM     48  O   UNL     1       5.940   7.203  61.363  0.00  0.00    +0.000 OA
BRANCH  48  50
ATOM     49  O   UNL     1       3.929   7.691  62.472  0.00  0.00    +0.000 OA
ATOM     50  C   UNL     1       5.228   8.162  62.136  0.00  0.00    +0.000 C 
ATOM     51  C   UNL     1       5.096   9.417  61.266  0.00  0.00    +0.000 C 
ATOM     52  C   UNL     1       3.845  10.225  61.602  0.00  0.00    +0.000 C 
ATOM     53  C   UNL     1       3.239   8.558  63.391  0.00  0.00    +0.000 C 
ATOM     54  C   UNL     1       3.453  10.049  63.071  0.00  0.00    +0.000 C 
ATOM     55  C   UNL     1       1.765   8.180  63.304  0.00  0.00    +0.000 C 
BRANCH  52  56
ATOM     56  O   UNL     1       4.110  11.611  61.350  0.00  0.00    +0.000 OA
ATOM     57  H   UNL     1       4.036  11.752  60.389  0.00  0.00    +0.000 HD
ENDBRANCH  52  56
BRANCH  54  58
ATOM     58  O   UNL     1       4.525  10.557  63.886  0.00  0.00    +0.000 OA
ATOM     59  H   UNL     1       4.169  10.597  64.798  0.00  0.00    +0.000 HD
ENDBRANCH  54  58
ENDBRANCH  48  50
ENDBRANCH  44  48
ENDBRANCH  38  40
ENDBRANCH   6  38
TORSDOF 12
ENDMDL
MODEL 8
REMARK VINA RESULT:      -4.8      2.772     12.421
REMARK  Name = 
REMARK  17 active torsions:
REMARK  status: ('A' for Active; 'I' for Inactive)
REMARK    1  A    between atoms: O_1  and  C_14
REMARK    2  A    between atoms: O_2  and  C_32
REMARK    3  A    between atoms: O_2  and  C_36
REMARK    4  A    between atoms: O_6  and  C_39
REMARK    5  A    between atoms: O_7  and  C_41
REMARK    6  A    between atoms: O_7  and  C_43
REMARK    7  A    between atoms: O_9  and  C_47
REMARK    8  A    between atoms: O_9  and  C_49
REMARK    9  A    between atoms: O_10  and  C_45
REMARK   10  A    between atoms: O_12  and  C_51
REMARK   11  A    between atoms: O_13  and  C_53
REMARK   12  A    between atoms: C_17  and  C_29
REMARK   13  A    between atoms: C_18  and  C_30
REMARK   14  A    between atoms: C_22  and  C_33
REMARK   15  A    between atoms: C_40  and  C_42
REMARK   16  A    between atoms: C_46  and  C_48
REMARK   17  A    between atoms: C_52  and  C_54
REMARK                            x       y       z     vdW  Elec       q    Type
REMARK                         _______ _______ _______ _____ _____    ______ ____
ROOT
ATOM      1  O   UNL     1       1.321  11.732  66.762  0.00  0.00    +0.000 OA
ATOM      2  C   UNL     1       2.683  11.979  66.422  0.00  0.00    +0.000 C 
ATOM      3  C   UNL     1       3.486  12.533  67.602  0.00  0.00    +0.000 C 
ATOM      4  C   UNL     1       2.696  12.454  68.899  0.00  0.00    +0.000 C 
ATOM      5  C   UNL     1       1.182  10.736  67.782  0.00  0.00    +0.000 C 
ATOM      6  C   UNL     1       1.926  11.130  69.081  0.00  0.00    +0.000 C 
ATOM      7  C   UNL     1      -0.316  10.569  68.033  0.00  0.00    +0.000 C 
ENDROOT
BRANCH   4   8
ATOM      8  O   UNL     1       3.497  12.800  70.023  0.00  0.00    +0.000 OA
ATOM      9  H   UNL     1       3.844  11.956  70.384  0.00  0.00    +0.000 HD
ENDBRANCH   4   8
BRANCH   2  10
ATOM     10  O   UNL     1       2.806  12.821  65.275  0.00  0.00    +0.000 OA
BRANCH  10  29
ATOM     11  C   UNL     1       5.944   9.228  59.128  0.00  0.00    +0.000 C 
ATOM     12  C   UNL     1       5.260   9.931  60.332  0.00  0.00    +0.000 C 
ATOM     13  C   UNL     1       4.622   8.945  61.343  0.00  0.00    +0.000 C 
ATOM     14  C   UNL     1       6.908   8.075  59.525  0.00  0.00    +0.000 C 
ATOM     15  C   UNL     1       3.931   9.666  62.572  0.00  0.00    +0.000 C 
ATOM     16  C   UNL     1       2.975  10.795  62.062  0.00  0.00    +0.000 C 
ATOM     17  C   UNL     1       5.655   7.875  61.754  0.00  0.00    +0.000 C 
ATOM     18  C   UNL     1       6.225   7.132  60.546  0.00  0.00    +0.000 C 
ATOM     19  C   UNL     1       7.137   7.380  58.144  0.00  0.00    +0.000 C 
ATOM     20  C   UNL     1       4.225  10.965  59.863  0.00  0.00    +0.000 C 
ATOM     21  C   UNL     1       4.975   8.569  58.130  0.00  0.00    +0.000 C 
ATOM     22  C   UNL     1       3.645  11.731  61.040  0.00  0.00    +0.000 C 
ATOM     23  C   UNL     1       5.749   7.421  57.472  0.00  0.00    +0.000 C 
ATOM     24  C   UNL     1       4.971  10.265  63.558  0.00  0.00    +0.000 C 
ATOM     25  C   UNL     1       2.380  11.636  63.210  0.00  0.00    +0.000 C 
ATOM     26  C   UNL     1       8.236   8.595  60.111  0.00  0.00    +0.000 C 
ATOM     27  C   UNL     1       3.083   8.605  63.330  0.00  0.00    +0.000 C 
ATOM     28  C   UNL     1       4.347  11.094  64.681  0.00  0.00    +0.000 C 
ATOM     29  C   UNL     1       3.446  12.208  64.150  0.00  0.00    +0.000 C 
BRANCH  19  32
ATOM     30  O   UNL     1       7.991   3.739  58.295  0.00  0.00    +0.000 OA
ATOM     31  O   UNL     1      10.286   3.678  58.248  0.00  0.00    +0.000 OA
ATOM     32  C   UNL     1       7.810   6.034  58.158  0.00  0.00    +0.000 C 
ATOM     33  C   UNL     1       7.018   4.782  58.251  0.00  0.00    +0.000 C 
ATOM     34  C   UNL     1       9.111   5.742  58.166  0.00  0.00    +0.000 C 
ATOM     35  C   UNL     1       9.232   4.287  58.239  0.00  0.00    +0.000 C 
ENDBRANCH  19  32
BRANCH  11  36
ATOM     36  O   UNL     1       6.669  10.214  58.373  0.00  0.00    +0.000 OA
ATOM     37  H   UNL     1       6.599   9.994  57.428  0.00  0.00    +0.000 HD
ENDBRANCH  11  36
ENDBRANCH  10  29
ENDBRANCH   2  10
BRANCH   6  38
ATOM     38  O   UNL     1       2.555  10.008  69.707  0.00  0.00    +0.000 OA
BRANCH  38  40
ATOM     39  O   UNL     1       2.638  10.690  71.978  0.00  0.00    +0.000 OA
ATOM     40  C   UNL     1       2.395   9.628  71.066  0.00  0.00    +0.000 C 
ATOM     41  C   UNL     1       3.115   8.351  71.487  0.00  0.00    +0.000 C 
ATOM     42  C   UNL     1       3.550   8.382  72.949  0.00  0.00    +0.000 C 
ATOM     43  C   UNL     1       2.035  10.423  73.259  0.00  0.00    +0.000 C 
ATOM     44  C   UNL     1       2.587   9.124  73.898  0.00  0.00    +0.000 C 
ATOM     45  C   UNL     1       2.322  11.636  74.141  0.00  0.00    +0.000 C 
BRANCH  42  46
ATOM     46  O   UNL     1       3.857   7.069  73.416  0.00  0.00    +0.000 OA
ATOM     47  H   UNL     1       3.257   6.441  72.977  0.00  0.00    +0.000 HD
ENDBRANCH  42  46
BRANCH  44  48
ATOM     48  O   UNL     1       1.552   8.362  74.532  0.00  0.00    +0.000 OA
BRANCH  48  50
ATOM     49  O   UNL     1       2.411   6.778  76.037  0.00  0.00    +0.000 OA
ATOM     50  C   UNL     1       1.702   8.004  75.900  0.00  0.00    +0.000 C 
ATOM     51  C   UNL     1       0.289   7.831  76.467  0.00  0.00    +0.000 C 
ATOM     52  C   UNL     1       0.245   6.826  77.616  0.00  0.00    +0.000 C 
ATOM     53  C   UNL     1       2.729   6.464  77.406  0.00  0.00    +0.000 C 
ATOM     54  C   UNL     1       1.575   6.793  78.371  0.00  0.00    +0.000 C 
ATOM     55  C   UNL     1       3.066   4.978  77.432  0.00  0.00    +0.000 C 
BRANCH  52  56
ATOM     56  O   UNL     1      -0.800   7.206  78.520  0.00  0.00    +0.000 OA
ATOM     57  H   UNL     1      -0.585   6.826  79.391  0.00  0.00    +0.000 HD
ENDBRANCH  52  56
BRANCH  54  58
ATOM     58  O   UNL     1       1.797   8.093  78.946  0.00  0.00    +0.000 OA
ATOM     59  H   UNL     1       2.668   8.042  79.392  0.00  0.00    +0.000 HD
ENDBRANCH  54  58
ENDBRANCH  48  50
ENDBRANCH  44  48
ENDBRANCH  38  40
ENDBRANCH   6  38
TORSDOF 12
ENDMDL
MODEL 9
REMARK VINA RESULT:      -4.7      4.717     10.682
REMARK  Name = 
REMARK  17 active torsions:
REMARK  status: ('A' for Active; 'I' for Inactive)
REMARK    1  A    between atoms: O_1  and  C_14
REMARK    2  A    between atoms: O_2  and  C_32
REMARK    3  A    between atoms: O_2  and  C_36
REMARK    4  A    between atoms: O_6  and  C_39
REMARK    5  A    between atoms: O_7  and  C_41
REMARK    6  A    between atoms: O_7  and  C_43
REMARK    7  A    between atoms: O_9  and  C_47
REMARK    8  A    between atoms: O_9  and  C_49
REMARK    9  A    between atoms: O_10  and  C_45
REMARK   10  A    between atoms: O_12  and  C_51
REMARK   11  A    between atoms: O_13  and  C_53
REMARK   12  A    between atoms: C_17  and  C_29
REMARK   13  A    between atoms: C_18  and  C_30
REMARK   14  A    between atoms: C_22  and  C_33
REMARK   15  A    between atoms: C_40  and  C_42
REMARK   16  A    between atoms: C_46  and  C_48
REMARK   17  A    between atoms: C_52  and  C_54
REMARK                            x       y       z     vdW  Elec       q    Type
REMARK                         _______ _______ _______ _____ _____    ______ ____
ROOT
ATOM      1  O   UNL     1       0.310  11.859  68.978  0.00  0.00    +0.000 OA
ATOM      2  C   UNL     1       0.905  10.651  68.511  0.00  0.00    +0.000 C 
ATOM      3  C   UNL     1       2.203  10.903  67.738  0.00  0.00    +0.000 C 
ATOM      4  C   UNL     1       2.657  12.348  67.869  0.00  0.00    +0.000 C 
ATOM      5  C   UNL     1       1.145  12.559  69.908  0.00  0.00    +0.000 C 
ATOM      6  C   UNL     1       2.519  12.919  69.294  0.00  0.00    +0.000 C 
ATOM      7  C   UNL     1       0.381  13.815  70.327  0.00  0.00    +0.000 C 
ENDROOT
BRANCH   4   8
ATOM      8  O   UNL     1       3.948  12.545  67.304  0.00  0.00    +0.000 OA
ATOM      9  H   UNL     1       4.068  13.515  67.221  0.00  0.00    +0.000 HD
ENDBRANCH   4   8
BRANCH   2  10
ATOM     10  O   UNL     1      -0.007   9.864  67.745  0.00  0.00    +0.000 OA
BRANCH  10  29
ATOM     11  C   UNL     1       2.449   2.940  65.182  0.00  0.00    +0.000 C 
ATOM     12  C   UNL     1       1.914   4.321  65.648  0.00  0.00    +0.000 C 
ATOM     13  C   UNL     1       0.550   4.242  66.379  0.00  0.00    +0.000 C 
ATOM     14  C   UNL     1       2.425   1.841  66.283  0.00  0.00    +0.000 C 
ATOM     15  C   UNL     1       0.011   5.652  66.858  0.00  0.00    +0.000 C 
ATOM     16  C   UNL     1       0.065   6.675  65.675  0.00  0.00    +0.000 C 
ATOM     17  C   UNL     1       0.620   3.191  67.507  0.00  0.00    +0.000 C 
ATOM     18  C   UNL     1       1.047   1.818  66.988  0.00  0.00    +0.000 C 
ATOM     19  C   UNL     1       2.672   0.553  65.433  0.00  0.00    +0.000 C 
ATOM     20  C   UNL     1       1.841   5.317  64.480  0.00  0.00    +0.000 C 
ATOM     21  C   UNL     1       1.670   2.306  64.015  0.00  0.00    +0.000 C 
ATOM     22  C   UNL     1       1.430   6.698  64.964  0.00  0.00    +0.000 C 
ATOM     23  C   UNL     1       1.850   0.790  64.150  0.00  0.00    +0.000 C 
ATOM     24  C   UNL     1       0.816   6.206  68.066  0.00  0.00    +0.000 C 
ATOM     25  C   UNL     1      -0.307   8.108  66.109  0.00  0.00    +0.000 C 
ATOM     26  C   UNL     1       3.538   2.037  67.331  0.00  0.00    +0.000 C 
ATOM     27  C   UNL     1      -1.472   5.474  67.290  0.00  0.00    +0.000 C 
ATOM     28  C   UNL     1       0.423   7.628  68.467  0.00  0.00    +0.000 C 
ATOM     29  C   UNL     1       0.517   8.608  67.299  0.00  0.00    +0.000 C 
BRANCH  19  32
ATOM     30  O   UNL     1       2.962  -2.666  67.320  0.00  0.00    +0.000 OA
ATOM     31  O   UNL     1       0.917  -3.678  67.062  0.00  0.00    +0.000 OA
ATOM     32  C   UNL     1       2.445  -0.770  66.113  0.00  0.00    +0.000 C 
ATOM     33  C   UNL     1       3.528  -1.430  66.885  0.00  0.00    +0.000 C 
ATOM     34  C   UNL     1       1.369  -1.557  66.089  0.00  0.00    +0.000 C 
ATOM     35  C   UNL     1       1.686  -2.754  66.865  0.00  0.00    +0.000 C 
ENDBRANCH  19  32
BRANCH  11  36
ATOM     36  O   UNL     1       3.795   3.106  64.706  0.00  0.00    +0.000 OA
ATOM     37  H   UNL     1       4.376   3.270  65.469  0.00  0.00    +0.000 HD
ENDBRANCH  11  36
ENDBRANCH  10  29
ENDBRANCH   2  10
BRANCH   6  38
ATOM     38  O   UNL     1       3.587  12.779  70.236  0.00  0.00    +0.000 OA
BRANCH  38  40
ATOM     39  O   UNL     1       4.466  12.157  72.351  0.00  0.00    +0.000 OA
ATOM     40  C   UNL     1       3.676  11.772  71.234  0.00  0.00    +0.000 C 
ATOM     41  C   UNL     1       4.048  10.378  70.737  0.00  0.00    +0.000 C 
ATOM     42  C   UNL     1       4.836   9.582  71.773  0.00  0.00    +0.000 C 
ATOM     43  C   UNL     1       4.165  11.346  73.503  0.00  0.00    +0.000 C 
ATOM     44  C   UNL     1       4.433   9.843  73.238  0.00  0.00    +0.000 C 
ATOM     45  C   UNL     1       5.034  11.868  74.645  0.00  0.00    +0.000 C 
BRANCH  42  46
ATOM     46  O   UNL     1       4.830   8.191  71.456  0.00  0.00    +0.000 OA
ATOM     47  H   UNL     1       5.495   7.748  72.012  0.00  0.00    +0.000 HD
ENDBRANCH  42  46
BRANCH  44  48
ATOM     48  O   UNL     1       3.415   9.013  73.812  0.00  0.00    +0.000 OA
BRANCH  48  50
ATOM     49  O   UNL     1       5.074   8.444  75.372  0.00  0.00    +0.000 OA
ATOM     50  C   UNL     1       3.719   8.260  74.979  0.00  0.00    +0.000 C 
ATOM     51  C   UNL     1       3.497   6.786  74.622  0.00  0.00    +0.000 C 
ATOM     52  C   UNL     1       4.389   5.852  75.436  0.00  0.00    +0.000 C 
ATOM     53  C   UNL     1       5.378   7.832  76.640  0.00  0.00    +0.000 C 
ATOM     54  C   UNL     1       4.712   6.453  76.806  0.00  0.00    +0.000 C 
ATOM     55  C   UNL     1       6.897   7.725  76.706  0.00  0.00    +0.000 C 
BRANCH  52  56
ATOM     56  O   UNL     1       3.706   4.606  75.619  0.00  0.00    +0.000 OA
ATOM     57  H   UNL     1       3.952   4.264  76.498  0.00  0.00    +0.000 HD
ENDBRANCH  52  56
BRANCH  54  58
ATOM     58  O   UNL     1       3.479   6.608  77.531  0.00  0.00    +0.000 OA
ATOM     59  H   UNL     1       3.488   7.525  77.876  0.00  0.00    +0.000 HD
ENDBRANCH  54  58
ENDBRANCH  48  50
ENDBRANCH  44  48
ENDBRANCH  38  40
ENDBRANCH   6  38
TORSDOF 12
ENDMDL
