REMARK  Name = Cdk12_Inhibitor.pdbqt.pdb
REMARK  6 active torsions:
REMARK  status: ('A' for Active; 'I' for Inactive)
REMARK    1  A    between atoms: N_1  and  C_23
REMARK    2  A    between atoms: N_9  and  C_11
REMARK    3  A    between atoms: C_14  and  S_17
REMARK    4  A    between atoms: S_17  and  N_20
REMARK    5  A    between atoms: C_23  and  N_25
REMARK    6  A    between atoms: N_25  and  C_27
REMARK                            x       y       z     vdW  Elec       q    Type
REMARK                         _______ _______ _______ _____ _____    ______ ____
ROOT
ATOM      1  N   UNL     1       1.164   0.701   0.143  0.00  0.00    +0.000 N 
ATOM      2  N   UNL     1      -0.175   0.472   0.129  0.00  0.00    +0.000 NA
ATOM      3  N   UNL     1       0.224   2.705   0.127  0.00  0.00    +0.000 NA
ATOM      4  N   UNL     1       2.578   2.688   0.339  0.00  0.00    +0.000 N 
ATOM      5  C   UNL     1      -0.693   1.696   0.085  0.00  0.00    +0.000 A 
ATOM      6  C   UNL     1       1.371   2.082   0.208  0.00  0.00    +0.000 A 
ATOM      7  H   UNL     1       3.195   2.319   1.064  0.00  0.00    +0.000 HD
ATOM      8  H   UNL     1       2.495   3.698   0.460  0.00  0.00    +0.000 HD
ATOM      9  N   UNL     1      -1.984   2.064   0.020  0.00  0.00    +0.000 N 
ATOM     10  H   UNL     1      -2.151   3.062  -0.006  0.00  0.00    +0.000 HD
ENDROOT
BRANCH   9  11
ATOM     11  C   UNL     1      -3.150   1.281  -0.045  0.00  0.00    +0.000 A 
ATOM     12  C   UNL     1      -4.397   1.919  -0.087  0.00  0.00    +0.000 A 
ATOM     13  C   UNL     1      -5.581   1.188  -0.137  0.00  0.00    +0.000 A 
ATOM     14  C   UNL     1      -5.517  -0.199  -0.128  0.00  0.00    +0.000 A 
ATOM     15  C   UNL     1      -4.298  -0.865  -0.107  0.00  0.00    +0.000 A 
ATOM     16  C   UNL     1      -3.124  -0.119  -0.055  0.00  0.00    +0.000 A 
BRANCH  14  17
ATOM     17  S   UNL     1      -6.992  -1.127  -0.255  0.00  0.00    +0.000 S 
ATOM     18  O   UNL     1      -8.074  -0.252  -0.644  0.00  0.00    +0.000 OA
ATOM     19  O   UNL     1      -6.722  -2.366  -0.943  0.00  0.00    +0.000 OA
BRANCH  17  20
ATOM     20  N   UNL     1      -7.296  -1.538   1.345  0.00  0.00    +0.000 NA
ATOM     21  H   UNL     1      -8.183  -1.131   1.642  0.00  0.00    +0.000 HD
ATOM     22  H   UNL     1      -7.251  -2.552   1.453  0.00  0.00    +0.000 HD
ENDBRANCH  17  20
ENDBRANCH  14  17
ENDBRANCH   9  11
BRANCH   1  23
ATOM     23  C   UNL     1       2.089  -0.382   0.077  0.00  0.00    +0.000 C 
ATOM     24  S   UNL     1       1.666  -2.014   0.132  0.00  0.00    +0.000 S 
BRANCH  23  25
ATOM     25  N   UNL     1       3.374   0.115  -0.173  0.00  0.00    +0.000 N 
ATOM     26  H   UNL     1       3.418   1.027  -0.640  0.00  0.00    +0.000 HD
BRANCH  25  27
ATOM     27  C   UNL     1       4.629  -0.547  -0.111  0.00  0.00    +0.000 A 
ATOM     28  C   UNL     1       5.637  -0.086  -0.966  0.00  0.00    +0.000 A 
ATOM     29  F   UNL     1       5.374   0.932  -1.801  0.00  0.00    +0.000 F 
ATOM     30  C   UNL     1       6.906  -0.658  -0.982  0.00  0.00    +0.000 A 
ATOM     31  C   UNL     1       7.195  -1.702  -0.110  0.00  0.00    +0.000 A 
ATOM     32  C   UNL     1       6.232  -2.135   0.796  0.00  0.00    +0.000 A 
ATOM     33  C   UNL     1       4.963  -1.554   0.798  0.00  0.00    +0.000 A 
ATOM     34  F   UNL     1       4.136  -1.878   1.802  0.00  0.00    +0.000 F 
ENDBRANCH  25  27
ENDBRANCH  23  25
ENDBRANCH   1  23
TORSDOF 6
