MODEL 1
REMARK VINA RESULT:      -4.4      0.000      0.000
REMARK  Name = CHEMBL35349.pdbqt.pdb
REMARK  2 active torsions:
REMARK  status: ('A' for Active; 'I' for Inactive)
REMARK    1  A    between atoms: C_2  and  C_11
REMARK    2  A    between atoms: C_5  and  O_21
REMARK                            x       y       z     vdW  Elec       q    Type
REMARK                         _______ _______ _______ _____ _____    ______ ____
ROOT
ATOM      1  N   UNL     1      17.276   2.517  52.229  0.00  0.00    +0.000 N 
ATOM      2  C   UNL     1      15.781   0.985  52.864  0.00  0.00    +0.000 A 
ATOM      3  C   UNL     1      17.005   0.785  53.592  0.00  0.00    +0.000 A 
ATOM      4  C   UNL     1      17.914   1.754  53.172  0.00  0.00    +0.000 A 
ATOM      5  C   UNL     1      15.997   2.072  52.029  0.00  0.00    +0.000 A 
ATOM      6  C   UNL     1      17.424  -0.137  54.572  0.00  0.00    +0.000 A 
ATOM      7  C   UNL     1      19.215   1.855  53.675  0.00  0.00    +0.000 A 
ATOM      8  C   UNL     1      18.718  -0.055  55.090  0.00  0.00    +0.000 A 
ATOM      9  C   UNL     1      19.596   0.927  54.645  0.00  0.00    +0.000 A 
ATOM     10  H   UNL     1      17.681   3.302  51.739  0.00  0.00    +0.000 HD
ENDROOT
BRANCH   2  11
ATOM     11  C   UNL     1      14.568   0.208  52.980  0.00  0.00    +0.000 C 
ATOM     12  N   UNL     1      14.037  -0.097  54.136  0.00  0.00    +0.000 NA
ATOM     13  C   UNL     1      12.879  -0.849  53.856  0.00  0.00    +0.000 A 
ATOM     14  C   UNL     1      12.644  -1.043  52.497  0.00  0.00    +0.000 A 
ATOM     15  C   UNL     1      12.001  -1.384  54.780  0.00  0.00    +0.000 A 
ATOM     16  C   UNL     1      13.737  -0.362  51.834  0.00  0.00    +0.000 C 
ATOM     17  C   UNL     1      11.574  -1.746  51.988  0.00  0.00    +0.000 A 
ATOM     18  O   UNL     1      13.967  -0.251  50.652  0.00  0.00    +0.000 OA
ATOM     19  C   UNL     1      10.693  -2.284  52.924  0.00  0.00    +0.000 A 
ATOM     20  C   UNL     1      10.902  -2.106  54.302  0.00  0.00    +0.000 A 
ENDBRANCH   2  11
BRANCH   5  21
ATOM     21  O   UNL     1      15.254   2.719  51.138  0.00  0.00    +0.000 OA
ATOM     22  H   UNL     1      14.834   2.080  50.519  0.00  0.00    +0.000 HD
ENDBRANCH   5  21
TORSDOF 2
ENDMDL
MODEL 2
REMARK VINA RESULT:      -4.3      4.207      6.754
REMARK  Name = CHEMBL35349.pdbqt.pdb
REMARK  2 active torsions:
REMARK  status: ('A' for Active; 'I' for Inactive)
REMARK    1  A    between atoms: C_2  and  C_11
REMARK    2  A    between atoms: C_5  and  O_21
REMARK                            x       y       z     vdW  Elec       q    Type
REMARK                         _______ _______ _______ _____ _____    ______ ____
ROOT
ATOM      1  N   UNL     1      17.458   5.677  48.662  0.00  0.00    +0.000 N 
ATOM      2  C   UNL     1      17.951   4.659  50.587  0.00  0.00    +0.000 A 
ATOM      3  C   UNL     1      18.026   6.083  50.771  0.00  0.00    +0.000 A 
ATOM      4  C   UNL     1      17.715   6.686  49.554  0.00  0.00    +0.000 A 
ATOM      5  C   UNL     1      17.595   4.454  49.262  0.00  0.00    +0.000 A 
ATOM      6  C   UNL     1      18.333   6.916  51.865  0.00  0.00    +0.000 A 
ATOM      7  C   UNL     1      17.692   8.073  49.368  0.00  0.00    +0.000 A 
ATOM      8  C   UNL     1      18.316   8.303  51.703  0.00  0.00    +0.000 A 
ATOM      9  C   UNL     1      18.000   8.867  50.473  0.00  0.00    +0.000 A 
ATOM     10  H   UNL     1      17.203   5.803  47.693  0.00  0.00    +0.000 HD
ENDROOT
BRANCH   2  11
ATOM     11  C   UNL     1      18.197   3.642  51.585  0.00  0.00    +0.000 C 
ATOM     12  N   UNL     1      19.375   3.458  52.123  0.00  0.00    +0.000 NA
ATOM     13  C   UNL     1      19.232   2.397  53.040  0.00  0.00    +0.000 A 
ATOM     14  C   UNL     1      17.943   1.875  53.105  0.00  0.00    +0.000 A 
ATOM     15  C   UNL     1      20.224   1.860  53.839  0.00  0.00    +0.000 A 
ATOM     16  C   UNL     1      17.180   2.658  52.155  0.00  0.00    +0.000 C 
ATOM     17  C   UNL     1      17.568   0.836  53.928  0.00  0.00    +0.000 A 
ATOM     18  O   UNL     1      16.010   2.578  51.859  0.00  0.00    +0.000 OA
ATOM     19  C   UNL     1      18.571   0.298  54.732  0.00  0.00    +0.000 A 
ATOM     20  C   UNL     1      19.883   0.802  54.689  0.00  0.00    +0.000 A 
ENDBRANCH   2  11
BRANCH   5  21
ATOM     21  O   UNL     1      17.376   3.377  48.516  0.00  0.00    +0.000 OA
ATOM     22  H   UNL     1      16.855   3.619  47.716  0.00  0.00    +0.000 HD
ENDBRANCH   5  21
TORSDOF 2
ENDMDL
MODEL 3
REMARK VINA RESULT:      -4.2     24.536     26.123
REMARK  Name = CHEMBL35349.pdbqt.pdb
REMARK  2 active torsions:
REMARK  status: ('A' for Active; 'I' for Inactive)
REMARK    1  A    between atoms: C_2  and  C_11
REMARK    2  A    between atoms: C_5  and  O_21
REMARK                            x       y       z     vdW  Elec       q    Type
REMARK                         _______ _______ _______ _____ _____    ______ ____
ROOT
ATOM      1  N   UNL     1       8.737   5.349  77.081  0.00  0.00    +0.000 N 
ATOM      2  C   UNL     1       6.562   4.848  77.036  0.00  0.00    +0.000 A 
ATOM      3  C   UNL     1       7.330   3.642  76.880  0.00  0.00    +0.000 A 
ATOM      4  C   UNL     1       8.679   3.990  76.912  0.00  0.00    +0.000 A 
ATOM      5  C   UNL     1       7.479   5.882  77.157  0.00  0.00    +0.000 A 
ATOM      6  C   UNL     1       6.998   2.283  76.713  0.00  0.00    +0.000 A 
ATOM      7  C   UNL     1       9.715   3.057  76.788  0.00  0.00    +0.000 A 
ATOM      8  C   UNL     1       8.015   1.334  76.588  0.00  0.00    +0.000 A 
ATOM      9  C   UNL     1       9.350   1.720  76.625  0.00  0.00    +0.000 A 
ATOM     10  H   UNL     1       9.584   5.895  77.142  0.00  0.00    +0.000 HD
ENDROOT
BRANCH   2  11
ATOM     11  C   UNL     1       5.121   4.960  77.061  0.00  0.00    +0.000 C 
ATOM     12  N   UNL     1       4.416   4.707  78.133  0.00  0.00    +0.000 NA
ATOM     13  C   UNL     1       3.067   4.921  77.784  0.00  0.00    +0.000 A 
ATOM     14  C   UNL     1       2.882   5.320  76.463  0.00  0.00    +0.000 A 
ATOM     15  C   UNL     1       1.969   4.772  78.609  0.00  0.00    +0.000 A 
ATOM     16  C   UNL     1       4.217   5.373  75.902  0.00  0.00    +0.000 C 
ATOM     17  C   UNL     1       1.654   5.587  75.898  0.00  0.00    +0.000 A 
ATOM     18  O   UNL     1       4.569   5.668  74.784  0.00  0.00    +0.000 OA
ATOM     19  C   UNL     1       0.550   5.435  76.734  0.00  0.00    +0.000 A 
ATOM     20  C   UNL     1       0.703   5.033  78.072  0.00  0.00    +0.000 A 
ENDBRANCH   2  11
BRANCH   5  21
ATOM     21  O   UNL     1       7.379   7.196  77.321  0.00  0.00    +0.000 OA
ATOM     22  H   UNL     1       7.165   7.405  78.259  0.00  0.00    +0.000 HD
ENDBRANCH   5  21
TORSDOF 2
ENDMDL
MODEL 4
REMARK VINA RESULT:      -4.2      3.097      4.132
REMARK  Name = CHEMBL35349.pdbqt.pdb
REMARK  2 active torsions:
REMARK  status: ('A' for Active; 'I' for Inactive)
REMARK    1  A    between atoms: C_2  and  C_11
REMARK    2  A    between atoms: C_5  and  O_21
REMARK                            x       y       z     vdW  Elec       q    Type
REMARK                         _______ _______ _______ _____ _____    ______ ____
ROOT
ATOM      1  N   UNL     1      18.334  -0.391  55.659  0.00  0.00    +0.000 N 
ATOM      2  C   UNL     1      17.495   0.374  53.736  0.00  0.00    +0.000 A 
ATOM      3  C   UNL     1      18.770   0.993  53.977  0.00  0.00    +0.000 A 
ATOM      4  C   UNL     1      19.264   0.495  55.181  0.00  0.00    +0.000 A 
ATOM      5  C   UNL     1      17.265  -0.478  54.807  0.00  0.00    +0.000 A 
ATOM      6  C   UNL     1      19.550   1.935  53.278  0.00  0.00    +0.000 A 
ATOM      7  C   UNL     1      20.493   0.885  55.726  0.00  0.00    +0.000 A 
ATOM      8  C   UNL     1      20.780   2.338  53.802  0.00  0.00    +0.000 A 
ATOM      9  C   UNL     1      21.240   1.818  55.007  0.00  0.00    +0.000 A 
ATOM     10  H   UNL     1      18.413  -0.915  56.518  0.00  0.00    +0.000 HD
ENDROOT
BRANCH   2  11
ATOM     11  C   UNL     1      16.624   0.595  52.604  0.00  0.00    +0.000 C 
ATOM     12  N   UNL     1      16.145  -0.388  51.885  0.00  0.00    +0.000 NA
ATOM     13  C   UNL     1      15.349   0.203  50.883  0.00  0.00    +0.000 A 
ATOM     14  C   UNL     1      15.304   1.594  50.943  0.00  0.00    +0.000 A 
ATOM     15  C   UNL     1      14.645  -0.457  49.894  0.00  0.00    +0.000 A 
ATOM     16  C   UNL     1      16.137   1.941  52.076  0.00  0.00    +0.000 C 
ATOM     17  C   UNL     1      14.591   2.385  50.069  0.00  0.00    +0.000 A 
ATOM     18  O   UNL     1      16.406   3.031  52.525  0.00  0.00    +0.000 OA
ATOM     19  C   UNL     1      13.883   1.714  49.073  0.00  0.00    +0.000 A 
ATOM     20  C   UNL     1      13.909   0.311  48.985  0.00  0.00    +0.000 A 
ENDBRANCH   2  11
BRANCH   5  21
ATOM     21  O   UNL     1      16.280  -1.303  55.142  0.00  0.00    +0.000 OA
ATOM     22  H   UNL     1      15.556  -0.805  55.585  0.00  0.00    +0.000 HD
ENDBRANCH   5  21
TORSDOF 2
ENDMDL
MODEL 5
REMARK VINA RESULT:      -4.1     12.422     14.023
REMARK  Name = CHEMBL35349.pdbqt.pdb
REMARK  2 active torsions:
REMARK  status: ('A' for Active; 'I' for Inactive)
REMARK    1  A    between atoms: C_2  and  C_11
REMARK    2  A    between atoms: C_5  and  O_21
REMARK                            x       y       z     vdW  Elec       q    Type
REMARK                         _______ _______ _______ _____ _____    ______ ____
ROOT
ATOM      1  N   UNL     1      18.827   9.099  59.510  0.00  0.00    +0.000 N 
ATOM      2  C   UNL     1      17.249  10.642  59.849  0.00  0.00    +0.000 A 
ATOM      3  C   UNL     1      17.628  10.647  58.461  0.00  0.00    +0.000 A 
ATOM      4  C   UNL     1      18.612   9.676  58.286  0.00  0.00    +0.000 A 
ATOM      5  C   UNL     1      18.020   9.665  60.461  0.00  0.00    +0.000 A 
ATOM      6  C   UNL     1      17.223  11.393  57.337  0.00  0.00    +0.000 A 
ATOM      7  C   UNL     1      19.213   9.407  57.051  0.00  0.00    +0.000 A 
ATOM      8  C   UNL     1      17.809  11.142  56.094  0.00  0.00    +0.000 A 
ATOM      9  C   UNL     1      18.787  10.163  55.959  0.00  0.00    +0.000 A 
ATOM     10  H   UNL     1      19.486   8.358  59.700  0.00  0.00    +0.000 HD
ENDROOT
BRANCH   2  11
ATOM     11  C   UNL     1      16.261  11.488  60.480  0.00  0.00    +0.000 C 
ATOM     12  N   UNL     1      14.978  11.345  60.270  0.00  0.00    +0.000 NA
ATOM     13  C   UNL     1      14.335  12.332  61.044  0.00  0.00    +0.000 A 
ATOM     14  C   UNL     1      15.208  13.137  61.772  0.00  0.00    +0.000 A 
ATOM     15  C   UNL     1      12.974  12.554  61.131  0.00  0.00    +0.000 A 
ATOM     16  C   UNL     1      16.528  12.636  61.450  0.00  0.00    +0.000 C 
ATOM     17  C   UNL     1      14.808  14.166  62.597  0.00  0.00    +0.000 A 
ATOM     18  O   UNL     1      17.609  13.014  61.839  0.00  0.00    +0.000 OA
ATOM     19  C   UNL     1      13.434  14.385  62.681  0.00  0.00    +0.000 A 
ATOM     20  C   UNL     1      12.528  13.590  61.958  0.00  0.00    +0.000 A 
ENDBRANCH   2  11
BRANCH   5  21
ATOM     21  O   UNL     1      18.119   9.203  61.702  0.00  0.00    +0.000 OA
ATOM     22  H   UNL     1      19.048   8.942  61.894  0.00  0.00    +0.000 HD
ENDBRANCH   5  21
TORSDOF 2
ENDMDL
MODEL 6
REMARK VINA RESULT:      -4.0     10.221     12.013
REMARK  Name = CHEMBL35349.pdbqt.pdb
REMARK  2 active torsions:
REMARK  status: ('A' for Active; 'I' for Inactive)
REMARK    1  A    between atoms: C_2  and  C_11
REMARK    2  A    between atoms: C_5  and  O_21
REMARK                            x       y       z     vdW  Elec       q    Type
REMARK                         _______ _______ _______ _____ _____    ______ ____
ROOT
ATOM      1  N   UNL     1      18.369   9.355  61.299  0.00  0.00    +0.000 N 
ATOM      2  C   UNL     1      18.596   9.562  59.088  0.00  0.00    +0.000 A 
ATOM      3  C   UNL     1      19.897   9.451  59.690  0.00  0.00    +0.000 A 
ATOM      4  C   UNL     1      19.719   9.325  61.067  0.00  0.00    +0.000 A 
ATOM      5  C   UNL     1      17.678   9.497  60.126  0.00  0.00    +0.000 A 
ATOM      6  C   UNL     1      21.214   9.449  59.188  0.00  0.00    +0.000 A 
ATOM      7  C   UNL     1      20.781   9.196  61.969  0.00  0.00    +0.000 A 
ATOM      8  C   UNL     1      22.289   9.321  60.070  0.00  0.00    +0.000 A 
ATOM      9  C   UNL     1      22.071   9.196  61.437  0.00  0.00    +0.000 A 
ATOM     10  H   UNL     1      17.930   9.284  62.206  0.00  0.00    +0.000 HD
ENDROOT
BRANCH   2  11
ATOM     11  C   UNL     1      18.303   9.710  57.680  0.00  0.00    +0.000 C 
ATOM     12  N   UNL     1      18.639   8.808  56.794  0.00  0.00    +0.000 NA
ATOM     13  C   UNL     1      18.196   9.290  55.547  0.00  0.00    +0.000 A 
ATOM     14  C   UNL     1      17.559  10.527  55.612  0.00  0.00    +0.000 A 
ATOM     15  C   UNL     1      18.336   8.662  54.323  0.00  0.00    +0.000 A 
ATOM     16  C   UNL     1      17.588  10.883  57.016  0.00  0.00    +0.000 C 
ATOM     17  C   UNL     1      17.044  11.192  54.521  0.00  0.00    +0.000 A 
ATOM     18  O   UNL     1      17.157  11.870  57.566  0.00  0.00    +0.000 OA
ATOM     19  C   UNL     1      17.189  10.555  53.290  0.00  0.00    +0.000 A 
ATOM     20  C   UNL     1      17.827   9.306  53.191  0.00  0.00    +0.000 A 
ENDBRANCH   2  11
BRANCH   5  21
ATOM     21  O   UNL     1      16.352   9.542  60.196  0.00  0.00    +0.000 OA
ATOM     22  H   UNL     1      16.027   8.898  60.866  0.00  0.00    +0.000 HD
ENDBRANCH   5  21
TORSDOF 2
ENDMDL
MODEL 7
REMARK VINA RESULT:      -4.0     22.820     24.733
REMARK  Name = CHEMBL35349.pdbqt.pdb
REMARK  2 active torsions:
REMARK  status: ('A' for Active; 'I' for Inactive)
REMARK    1  A    between atoms: C_2  and  C_11
REMARK    2  A    between atoms: C_5  and  O_21
REMARK                            x       y       z     vdW  Elec       q    Type
REMARK                         _______ _______ _______ _____ _____    ______ ____
ROOT
ATOM      1  N   UNL     1       1.550  11.515  69.461  0.00  0.00    +0.000 N 
ATOM      2  C   UNL     1       1.859   9.919  70.991  0.00  0.00    +0.000 A 
ATOM      3  C   UNL     1       1.804   9.320  69.684  0.00  0.00    +0.000 A 
ATOM      4  C   UNL     1       1.610  10.341  68.756  0.00  0.00    +0.000 A 
ATOM      5  C   UNL     1       1.696  11.284  70.803  0.00  0.00    +0.000 A 
ATOM      6  C   UNL     1       1.900   7.998  69.206  0.00  0.00    +0.000 A 
ATOM      7  C   UNL     1       1.508  10.118  67.379  0.00  0.00    +0.000 A 
ATOM      8  C   UNL     1       1.802   7.751  67.836  0.00  0.00    +0.000 A 
ATOM      9  C   UNL     1       1.609   8.797  66.941  0.00  0.00    +0.000 A 
ATOM     10  H   UNL     1       1.416  12.432  69.060  0.00  0.00    +0.000 HD
ENDROOT
BRANCH   2  11
ATOM     11  C   UNL     1       2.046   9.234  72.250  0.00  0.00    +0.000 C 
ATOM     12  N   UNL     1       1.200   9.345  73.242  0.00  0.00    +0.000 NA
ATOM     13  C   UNL     1       1.706   8.547  74.288  0.00  0.00    +0.000 A 
ATOM     14  C   UNL     1       2.901   7.903  73.981  0.00  0.00    +0.000 A 
ATOM     15  C   UNL     1       1.136   8.364  75.534  0.00  0.00    +0.000 A 
ATOM     16  C   UNL     1       3.202   8.311  72.624  0.00  0.00    +0.000 C 
ATOM     17  C   UNL     1       3.579   7.073  74.846  0.00  0.00    +0.000 A 
ATOM     18  O   UNL     1       4.140   8.011  71.922  0.00  0.00    +0.000 OA
ATOM     19  C   UNL     1       3.001   6.891  76.101  0.00  0.00    +0.000 A 
ATOM     20  C   UNL     1       1.795   7.528  76.442  0.00  0.00    +0.000 A 
ENDBRANCH   2  11
BRANCH   5  21
ATOM     21  O   UNL     1       1.659  12.334  71.614  0.00  0.00    +0.000 OA
ATOM     22  H   UNL     1       0.940  12.948  71.341  0.00  0.00    +0.000 HD
ENDBRANCH   5  21
TORSDOF 2
ENDMDL
MODEL 8
REMARK VINA RESULT:      -3.9     17.383     19.807
REMARK  Name = CHEMBL35349.pdbqt.pdb
REMARK  2 active torsions:
REMARK  status: ('A' for Active; 'I' for Inactive)
REMARK    1  A    between atoms: C_2  and  C_11
REMARK    2  A    between atoms: C_5  and  O_21
REMARK                            x       y       z     vdW  Elec       q    Type
REMARK                         _______ _______ _______ _____ _____    ______ ____
ROOT
ATOM      1  N   UNL     1      -0.843   6.133  66.647  0.00  0.00    +0.000 N 
ATOM      2  C   UNL     1       1.001   4.881  66.522  0.00  0.00    +0.000 A 
ATOM      3  C   UNL     1       1.253   6.015  67.370  0.00  0.00    +0.000 A 
ATOM      4  C   UNL     1       0.086   6.773  67.425  0.00  0.00    +0.000 A 
ATOM      5  C   UNL     1      -0.314   4.997  66.095  0.00  0.00    +0.000 A 
ATOM      6  C   UNL     1       2.373   6.467  68.096  0.00  0.00    +0.000 A 
ATOM      7  C   UNL     1      -0.028   7.956  68.165  0.00  0.00    +0.000 A 
ATOM      8  C   UNL     1       2.283   7.644  68.842  0.00  0.00    +0.000 A 
ATOM      9  C   UNL     1       1.100   8.373  68.873  0.00  0.00    +0.000 A 
ATOM     10  H   UNL     1      -1.791   6.445  66.491  0.00  0.00    +0.000 HD
ENDROOT
BRANCH   2  11
ATOM     11  C   UNL     1       1.933   3.830  66.181  0.00  0.00    +0.000 C 
ATOM     12  N   UNL     1       2.405   3.676  64.971  0.00  0.00    +0.000 NA
ATOM     13  C   UNL     1       3.272   2.565  65.020  0.00  0.00    +0.000 A 
ATOM     14  C   UNL     1       3.371   1.980  66.280  0.00  0.00    +0.000 A 
ATOM     15  C   UNL     1       3.995   2.037  63.967  0.00  0.00    +0.000 A 
ATOM     16  C   UNL     1       2.499   2.772  67.124  0.00  0.00    +0.000 C 
ATOM     17  C   UNL     1       4.156   0.885  66.567  0.00  0.00    +0.000 A 
ATOM     18  O   UNL     1       2.254   2.650  68.302  0.00  0.00    +0.000 OA
ATOM     19  C   UNL     1       4.883   0.356  65.502  0.00  0.00    +0.000 A 
ATOM     20  C   UNL     1       4.804   0.923  64.218  0.00  0.00    +0.000 A 
ENDBRANCH   2  11
BRANCH   5  21
ATOM     21  O   UNL     1      -1.103   4.270  65.313  0.00  0.00    +0.000 OA
ATOM     22  H   UNL     1      -1.198   3.361  65.678  0.00  0.00    +0.000 HD
ENDBRANCH   5  21
TORSDOF 2
ENDMDL
MODEL 9
REMARK VINA RESULT:      -3.9      2.227      2.698
REMARK  Name = CHEMBL35349.pdbqt.pdb
REMARK  2 active torsions:
REMARK  status: ('A' for Active; 'I' for Inactive)
REMARK    1  A    between atoms: C_2  and  C_11
REMARK    2  A    between atoms: C_5  and  O_21
REMARK                            x       y       z     vdW  Elec       q    Type
REMARK                         _______ _______ _______ _____ _____    ______ ____
ROOT
ATOM      1  N   UNL     1      17.784   1.624  52.523  0.00  0.00    +0.000 N 
ATOM      2  C   UNL     1      16.883   0.070  53.848  0.00  0.00    +0.000 A 
ATOM      3  C   UNL     1      18.169   0.449  54.368  0.00  0.00    +0.000 A 
ATOM      4  C   UNL     1      18.702   1.417  53.519  0.00  0.00    +0.000 A 
ATOM      5  C   UNL     1      16.686   0.826  52.701  0.00  0.00    +0.000 A 
ATOM      6  C   UNL     1      18.930   0.054  55.486  0.00  0.00    +0.000 A 
ATOM      7  C   UNL     1      19.952   2.013  53.724  0.00  0.00    +0.000 A 
ATOM      8  C   UNL     1      20.180   0.636  55.711  0.00  0.00    +0.000 A 
ATOM      9  C   UNL     1      20.678   1.599  54.841  0.00  0.00    +0.000 A 
ATOM     10  H   UNL     1      17.889   2.273  51.756  0.00  0.00    +0.000 HD
ENDROOT
BRANCH   2  11
ATOM     11  C   UNL     1      15.975  -0.905  54.409  0.00  0.00    +0.000 C 
ATOM     12  N   UNL     1      16.390  -2.025  54.942  0.00  0.00    +0.000 NA
ATOM     13  C   UNL     1      15.238  -2.711  55.376  0.00  0.00    +0.000 A 
ATOM     14  C   UNL     1      14.048  -2.033  55.125  0.00  0.00    +0.000 A 
ATOM     15  C   UNL     1      15.198  -3.944  56.001  0.00  0.00    +0.000 A 
ATOM     16  C   UNL     1      14.454  -0.804  54.475  0.00  0.00    +0.000 C 
ATOM     17  C   UNL     1      12.799  -2.508  55.461  0.00  0.00    +0.000 A 
ATOM     18  O   UNL     1      13.774   0.109  54.066  0.00  0.00    +0.000 OA
ATOM     19  C   UNL     1      12.765  -3.751  56.090  0.00  0.00    +0.000 A 
ATOM     20  C   UNL     1      13.948  -4.461  56.357  0.00  0.00    +0.000 A 
ENDBRANCH   2  11
BRANCH   5  21
ATOM     21  O   UNL     1      15.708   0.919  51.808  0.00  0.00    +0.000 OA
ATOM     22  H   UNL     1      14.842   0.726  52.232  0.00  0.00    +0.000 HD
ENDBRANCH   5  21
TORSDOF 2
ENDMDL
