MODEL 1
REMARK VINA RESULT:      -4.8      0.000      0.000
REMARK  Name = Chlortetracycline.pdbqt.pdb
REMARK  7 active torsions:
REMARK  status: ('A' for Active; 'I' for Inactive)
REMARK    1  A    between atoms: C_7  and  O_30
REMARK    2  A    between atoms: C_8  and  N_32
REMARK    3  A    between atoms: C_9  and  O_37
REMARK    4  A    between atoms: C_12  and  O_28
REMARK    5  A    between atoms: C_15  and  O_35
REMARK    6  A    between atoms: C_16  and  C_23
REMARK    7  A    between atoms: C_20  and  O_39
REMARK                            x       y       z     vdW  Elec       q    Type
REMARK                         _______ _______ _______ _____ _____    ______ ____
ROOT
ATOM      1 CL   UNL     1       5.161   6.184  62.811  0.00  0.00    +0.000 Cl
ATOM      2  O   UNL     1       6.760  11.423  57.216  0.00  0.00    +0.000 OA
ATOM      3  O   UNL     1      10.994  12.045  61.652  0.00  0.00    +0.000 OA
ATOM      4  C   UNL     1       7.710  12.419  60.685  0.00  0.00    +0.000 C 
ATOM      5  C   UNL     1       6.662   9.999  60.583  0.00  0.00    +0.000 C 
ATOM      6  C   UNL     1       7.143  11.206  61.128  0.00  0.00    +0.000 C 
ATOM      7  C   UNL     1       7.775  12.519  59.179  0.00  0.00    +0.000 C 
ATOM      8  C   UNL     1       8.830  12.991  61.411  0.00  0.00    +0.000 C 
ATOM      9  C   UNL     1       5.952   8.889  61.305  0.00  0.00    +0.000 C 
ATOM     10  C   UNL     1       6.719  10.008  59.136  0.00  0.00    +0.000 C 
ATOM     11  C   UNL     1       7.051  11.311  58.416  0.00  0.00    +0.000 C 
ATOM     12  C   UNL     1       9.207  12.602  58.643  0.00  0.00    +0.000 C 
ATOM     13  C   UNL     1       5.911   7.583  60.526  0.00  0.00    +0.000 A 
ATOM     14  C   UNL     1      10.157  12.539  60.909  0.00  0.00    +0.000 C 
ATOM     15  C   UNL     1       6.452   8.891  58.435  0.00  0.00    +0.000 C 
ATOM     16  C   UNL     1      10.315  12.588  59.421  0.00  0.00    +0.000 C 
ATOM     17  C   UNL     1       6.189   7.590  59.125  0.00  0.00    +0.000 A 
ATOM     18  C   UNL     1       4.536   9.377  61.670  0.00  0.00    +0.000 C 
ATOM     19  C   UNL     1       5.594   6.350  61.146  0.00  0.00    +0.000 A 
ATOM     20  C   UNL     1       6.207   6.355  58.440  0.00  0.00    +0.000 A 
ATOM     21  C   UNL     1       5.590   5.158  60.427  0.00  0.00    +0.000 A 
ATOM     22  C   UNL     1       5.909   5.156  59.082  0.00  0.00    +0.000 A 
ENDROOT
BRANCH  16  23
ATOM     23  C   UNL     1      11.692  12.722  58.868  0.00  0.00    +0.000 C 
ATOM     24  O   UNL     1      11.963  12.411  57.716  0.00  0.00    +0.000 OA
ATOM     25  N   UNL     1      12.652  13.193  59.709  0.00  0.00    +0.000 N 
ATOM     26  H   UNL     1      12.502  13.180  60.712  0.00  0.00    +0.000 HD
ATOM     27  H   UNL     1      13.605  13.171  59.371  0.00  0.00    +0.000 HD
ENDBRANCH  16  23
BRANCH   8  28
ATOM     28  N   UNL     1       8.727  14.263  62.075  0.00  0.00    +0.000 NA
ATOM     29  C   UNL     1       9.173  15.390  61.269  0.00  0.00    +0.000 C 
ATOM     30  C   UNL     1       7.397  14.562  62.566  0.00  0.00    +0.000 C 
ENDBRANCH   8  28
BRANCH  12  31
ATOM     31  O   UNL     1       9.314  12.774  57.260  0.00  0.00    +0.000 OA
ATOM     32  H   UNL     1      10.253  12.979  57.045  0.00  0.00    +0.000 HD
ENDBRANCH  12  31
BRANCH   7  33
ATOM     33  O   UNL     1       7.171  13.754  58.791  0.00  0.00    +0.000 OA
ATOM     34  H   UNL     1       6.288  13.802  59.201  0.00  0.00    +0.000 HD
ENDBRANCH   7  33
BRANCH  15  35
ATOM     35  O   UNL     1       6.382   8.868  57.058  0.00  0.00    +0.000 OA
ATOM     36  H   UNL     1       7.159   8.400  56.685  0.00  0.00    +0.000 HD
ENDBRANCH  15  35
BRANCH   9  37
ATOM     37  O   UNL     1       6.643   8.715  62.527  0.00  0.00    +0.000 OA
ATOM     38  H   UNL     1       6.781   7.750  62.531  0.00  0.00    +0.000 HD
ENDBRANCH   9  37
BRANCH  20  39
ATOM     39  O   UNL     1       6.565   6.273  57.122  0.00  0.00    +0.000 OA
ATOM     40  H   UNL     1       6.555   5.342  56.840  0.00  0.00    +0.000 HD
ENDBRANCH  20  39
TORSDOF 7
ENDMDL
MODEL 2
REMARK VINA RESULT:      -4.4     13.280     15.568
REMARK  Name = Chlortetracycline.pdbqt.pdb
REMARK  7 active torsions:
REMARK  status: ('A' for Active; 'I' for Inactive)
REMARK    1  A    between atoms: C_7  and  O_30
REMARK    2  A    between atoms: C_8  and  N_32
REMARK    3  A    between atoms: C_9  and  O_37
REMARK    4  A    between atoms: C_12  and  O_28
REMARK    5  A    between atoms: C_15  and  O_35
REMARK    6  A    between atoms: C_16  and  C_23
REMARK    7  A    between atoms: C_20  and  O_39
REMARK                            x       y       z     vdW  Elec       q    Type
REMARK                         _______ _______ _______ _____ _____    ______ ____
ROOT
ATOM      1 CL   UNL     1       1.368   7.606  79.616  0.00  0.00    +0.000 Cl
ATOM      2  O   UNL     1       3.770   7.577  72.164  0.00  0.00    +0.000 OA
ATOM      3  O   UNL     1       5.985  12.666  74.842  0.00  0.00    +0.000 OA
ATOM      4  C   UNL     1       3.238  10.945  73.680  0.00  0.00    +0.000 C 
ATOM      5  C   UNL     1       2.782   8.987  75.390  0.00  0.00    +0.000 C 
ATOM      6  C   UNL     1       2.799  10.288  74.848  0.00  0.00    +0.000 C 
ATOM      7  C   UNL     1       3.803   9.995  72.651  0.00  0.00    +0.000 C 
ATOM      8  C   UNL     1       3.901  12.232  73.792  0.00  0.00    +0.000 C 
ATOM      9  C   UNL     1       2.094   8.530  76.645  0.00  0.00    +0.000 C 
ATOM     10  C   UNL     1       3.337   8.019  74.468  0.00  0.00    +0.000 C 
ATOM     11  C   UNL     1       3.640   8.448  73.035  0.00  0.00    +0.000 C 
ATOM     12  C   UNL     1       5.288  10.236  72.360  0.00  0.00    +0.000 C 
ATOM     13  C   UNL     1       2.581   7.180  77.149  0.00  0.00    +0.000 A 
ATOM     14  C   UNL     1       5.381  12.130  73.925  0.00  0.00    +0.000 C 
ATOM     15  C   UNL     1       3.553   6.749  74.858  0.00  0.00    +0.000 C 
ATOM     16  C   UNL     1       6.035  11.196  72.953  0.00  0.00    +0.000 C 
ATOM     17  C   UNL     1       3.323   6.327  76.275  0.00  0.00    +0.000 A 
ATOM     18  C   UNL     1       0.573   8.525  76.389  0.00  0.00    +0.000 C 
ATOM     19  C   UNL     1       2.314   6.730  78.464  0.00  0.00    +0.000 A 
ATOM     20  C   UNL     1       3.818   5.109  76.789  0.00  0.00    +0.000 A 
ATOM     21  C   UNL     1       2.791   5.505  78.922  0.00  0.00    +0.000 A 
ATOM     22  C   UNL     1       3.553   4.703  78.095  0.00  0.00    +0.000 A 
ENDROOT
BRANCH  16  23
ATOM     23  C   UNL     1       7.465  11.436  72.608  0.00  0.00    +0.000 C 
ATOM     24  O   UNL     1       7.830  11.644  71.459  0.00  0.00    +0.000 OA
ATOM     25  N   UNL     1       8.362  11.396  73.630  0.00  0.00    +0.000 N 
ATOM     26  H   UNL     1       8.114  10.953  74.508  0.00  0.00    +0.000 HD
ATOM     27  H   UNL     1       9.341  11.439  73.379  0.00  0.00    +0.000 HD
ENDBRANCH  16  23
BRANCH   8  28
ATOM     28  N   UNL     1       3.329  13.426  73.228  0.00  0.00    +0.000 NA
ATOM     29  C   UNL     1       3.062  14.473  74.204  0.00  0.00    +0.000 C 
ATOM     30  C   UNL     1       4.114  14.003  72.156  0.00  0.00    +0.000 C 
ENDBRANCH   8  28
BRANCH  12  31
ATOM     31  O   UNL     1       5.834   9.430  71.357  0.00  0.00    +0.000 OA
ATOM     32  H   UNL     1       6.639   9.877  71.006  0.00  0.00    +0.000 HD
ENDBRANCH  12  31
BRANCH   7  33
ATOM     33  O   UNL     1       3.146  10.245  71.407  0.00  0.00    +0.000 OA
ATOM     34  H   UNL     1       2.274   9.810  71.433  0.00  0.00    +0.000 HD
ENDBRANCH   7  33
BRANCH  15  35
ATOM     35  O   UNL     1       3.974   5.760  73.995  0.00  0.00    +0.000 OA
ATOM     36  H   UNL     1       4.413   5.038  74.492  0.00  0.00    +0.000 HD
ENDBRANCH  15  35
BRANCH   9  37
ATOM     37  O   UNL     1       2.335   9.535  77.610  0.00  0.00    +0.000 OA
ATOM     38  H   UNL     1       1.681   9.302  78.294  0.00  0.00    +0.000 HD
ENDBRANCH   9  37
BRANCH  20  39
ATOM     39  O   UNL     1       4.621   4.290  76.043  0.00  0.00    +0.000 OA
ATOM     40  H   UNL     1       5.340   4.814  75.648  0.00  0.00    +0.000 HD
ENDBRANCH  20  39
TORSDOF 7
ENDMDL
MODEL 3
REMARK VINA RESULT:      -4.4     12.714     14.637
REMARK  Name = Chlortetracycline.pdbqt.pdb
REMARK  7 active torsions:
REMARK  status: ('A' for Active; 'I' for Inactive)
REMARK    1  A    between atoms: C_7  and  O_30
REMARK    2  A    between atoms: C_8  and  N_32
REMARK    3  A    between atoms: C_9  and  O_37
REMARK    4  A    between atoms: C_12  and  O_28
REMARK    5  A    between atoms: C_15  and  O_35
REMARK    6  A    between atoms: C_16  and  C_23
REMARK    7  A    between atoms: C_20  and  O_39
REMARK                            x       y       z     vdW  Elec       q    Type
REMARK                         _______ _______ _______ _____ _____    ______ ____
ROOT
ATOM      1 CL   UNL     1      -0.755   8.930  76.926  0.00  0.00    +0.000 Cl
ATOM      2  O   UNL     1       4.841   8.687  71.456  0.00  0.00    +0.000 OA
ATOM      3  O   UNL     1       5.959  13.540  75.086  0.00  0.00    +0.000 OA
ATOM      4  C   UNL     1       3.943  12.087  72.702  0.00  0.00    +0.000 C 
ATOM      5  C   UNL     1       2.580  10.179  73.912  0.00  0.00    +0.000 C 
ATOM      6  C   UNL     1       2.956  11.473  73.500  0.00  0.00    +0.000 C 
ATOM      7  C   UNL     1       4.842  11.090  72.012  0.00  0.00    +0.000 C 
ATOM      8  C   UNL     1       4.581  13.306  73.168  0.00  0.00    +0.000 C 
ATOM      9  C   UNL     1       1.350   9.786  74.681  0.00  0.00    +0.000 C 
ATOM     10  C   UNL     1       3.419   9.164  73.311  0.00  0.00    +0.000 C 
ATOM     11  C   UNL     1       4.391   9.565  72.205  0.00  0.00    +0.000 C 
ATOM     12  C   UNL     1       6.305  11.190  72.457  0.00  0.00    +0.000 C 
ATOM     13  C   UNL     1       1.431   8.395  75.291  0.00  0.00    +0.000 A 
ATOM     14  C   UNL     1       5.812  13.064  73.970  0.00  0.00    +0.000 C 
ATOM     15  C   UNL     1       3.322   7.879  73.699  0.00  0.00    +0.000 C 
ATOM     16  C   UNL     1       6.765  12.075  73.373  0.00  0.00    +0.000 C 
ATOM     17  C   UNL     1       2.422   7.478  74.825  0.00  0.00    +0.000 A 
ATOM     18  C   UNL     1       0.131   9.926  73.747  0.00  0.00    +0.000 C 
ATOM     19  C   UNL     1       0.544   7.971  76.308  0.00  0.00    +0.000 A 
ATOM     20  C   UNL     1       2.516   6.217  75.454  0.00  0.00    +0.000 A 
ATOM     21  C   UNL     1       0.648   6.705  76.880  0.00  0.00    +0.000 A 
ATOM     22  C   UNL     1       1.639   5.836  76.466  0.00  0.00    +0.000 A 
ENDROOT
BRANCH  16  23
ATOM     23  C   UNL     1       8.204  12.179  73.744  0.00  0.00    +0.000 C 
ATOM     24  O   UNL     1       8.871  11.197  74.042  0.00  0.00    +0.000 OA
ATOM     25  N   UNL     1       8.751  13.424  73.755  0.00  0.00    +0.000 N 
ATOM     26  H   UNL     1       8.152  14.243  73.789  0.00  0.00    +0.000 HD
ATOM     27  H   UNL     1       9.690  13.507  74.121  0.00  0.00    +0.000 HD
ENDBRANCH  16  23
BRANCH   8  28
ATOM     28  N   UNL     1       4.439  14.550  72.458  0.00  0.00    +0.000 NA
ATOM     29  C   UNL     1       5.633  14.957  71.731  0.00  0.00    +0.000 C 
ATOM     30  C   UNL     1       3.323  14.574  71.535  0.00  0.00    +0.000 C 
ENDBRANCH   8  28
BRANCH  12  31
ATOM     31  O   UNL     1       7.189  10.338  71.788  0.00  0.00    +0.000 OA
ATOM     32  H   UNL     1       7.872  10.889  71.342  0.00  0.00    +0.000 HD
ENDBRANCH  12  31
BRANCH   7  33
ATOM     33  O   UNL     1       4.867  11.403  70.619  0.00  0.00    +0.000 OA
ATOM     34  H   UNL     1       5.232  10.635  70.141  0.00  0.00    +0.000 HD
ENDBRANCH   7  33
BRANCH  15  35
ATOM     35  O   UNL     1       4.014   6.855  73.087  0.00  0.00    +0.000 OA
ATOM     36  H   UNL     1       3.516   6.014  73.161  0.00  0.00    +0.000 HD
ENDBRANCH  15  35
BRANCH   9  37
ATOM     37  O   UNL     1       1.194  10.763  75.691  0.00  0.00    +0.000 OA
ATOM     38  H   UNL     1       0.243  10.964  75.615  0.00  0.00    +0.000 HD
ENDBRANCH   9  37
BRANCH  20  39
ATOM     39  O   UNL     1       3.505   5.328  75.131  0.00  0.00    +0.000 OA
ATOM     40  H   UNL     1       3.284   4.889  74.292  0.00  0.00    +0.000 HD
ENDBRANCH  20  39
TORSDOF 7
ENDMDL
MODEL 4
REMARK VINA RESULT:      -4.4      3.776      7.409
REMARK  Name = Chlortetracycline.pdbqt.pdb
REMARK  7 active torsions:
REMARK  status: ('A' for Active; 'I' for Inactive)
REMARK    1  A    between atoms: C_7  and  O_30
REMARK    2  A    between atoms: C_8  and  N_32
REMARK    3  A    between atoms: C_9  and  O_37
REMARK    4  A    between atoms: C_12  and  O_28
REMARK    5  A    between atoms: C_15  and  O_35
REMARK    6  A    between atoms: C_16  and  C_23
REMARK    7  A    between atoms: C_20  and  O_39
REMARK                            x       y       z     vdW  Elec       q    Type
REMARK                         _______ _______ _______ _____ _____    ______ ____
ROOT
ATOM      1 CL   UNL     1       6.416  13.646  59.623  0.00  0.00    +0.000 Cl
ATOM      2  O   UNL     1       4.840   6.083  60.893  0.00  0.00    +0.000 OA
ATOM      3  O   UNL     1       9.154   6.401  56.503  0.00  0.00    +0.000 OA
ATOM      4  C   UNL     1       5.881   6.957  57.418  0.00  0.00    +0.000 C 
ATOM      5  C   UNL     1       5.881   9.049  59.026  0.00  0.00    +0.000 C 
ATOM      6  C   UNL     1       5.926   8.305  57.830  0.00  0.00    +0.000 C 
ATOM      7  C   UNL     1       5.647   6.002  58.564  0.00  0.00    +0.000 C 
ATOM      8  C   UNL     1       6.785   6.499  56.378  0.00  0.00    +0.000 C 
ATOM      9  C   UNL     1       5.803  10.544  59.170  0.00  0.00    +0.000 C 
ATOM     10  C   UNL     1       5.687   8.195  60.179  0.00  0.00    +0.000 C 
ATOM     11  C   UNL     1       5.347   6.724  59.961  0.00  0.00    +0.000 C 
ATOM     12  C   UNL     1       6.817   5.039  58.792  0.00  0.00    +0.000 C 
ATOM     13  C   UNL     1       6.154  11.041  60.563  0.00  0.00    +0.000 A 
ATOM     14  C   UNL     1       8.079   5.978  56.902  0.00  0.00    +0.000 C 
ATOM     15  C   UNL     1       5.773   8.698  61.424  0.00  0.00    +0.000 C 
ATOM     16  C   UNL     1       7.952   5.030  58.054  0.00  0.00    +0.000 C 
ATOM     17  C   UNL     1       6.168  10.122  61.657  0.00  0.00    +0.000 A 
ATOM     18  C   UNL     1       4.391  10.997  58.745  0.00  0.00    +0.000 C 
ATOM     19  C   UNL     1       6.462  12.399  60.819  0.00  0.00    +0.000 A 
ATOM     20  C   UNL     1       6.561  10.598  62.927  0.00  0.00    +0.000 A 
ATOM     21  C   UNL     1       6.812  12.835  62.094  0.00  0.00    +0.000 A 
ATOM     22  C   UNL     1       6.876  11.937  63.142  0.00  0.00    +0.000 A 
ENDROOT
BRANCH  16  23
ATOM     23  C   UNL     1       9.049   4.044  58.271  0.00  0.00    +0.000 C 
ATOM     24  O   UNL     1       8.835   2.842  58.356  0.00  0.00    +0.000 OA
ATOM     25  N   UNL     1      10.310   4.540  58.391  0.00  0.00    +0.000 N 
ATOM     26  H   UNL     1      10.453   5.521  58.604  0.00  0.00    +0.000 HD
ATOM     27  H   UNL     1      11.034   3.886  58.657  0.00  0.00    +0.000 HD
ENDBRANCH  16  23
BRANCH   8  28
ATOM     28  N   UNL     1       6.297   6.019  55.112  0.00  0.00    +0.000 NA
ATOM     29  C   UNL     1       6.320   4.570  54.979  0.00  0.00    +0.000 C 
ATOM     30  C   UNL     1       4.963   6.478  54.787  0.00  0.00    +0.000 C 
ENDBRANCH   8  28
BRANCH  12  31
ATOM     31  O   UNL     1       6.613   4.085  59.792  0.00  0.00    +0.000 OA
ATOM     32  H   UNL     1       6.361   3.235  59.363  0.00  0.00    +0.000 HD
ENDBRANCH  12  31
BRANCH   7  33
ATOM     33  O   UNL     1       4.547   5.158  58.221  0.00  0.00    +0.000 OA
ATOM     34  H   UNL     1       3.914   5.683  57.697  0.00  0.00    +0.000 HD
ENDBRANCH   7  33
BRANCH  15  35
ATOM     35  O   UNL     1       5.489   7.959  62.553  0.00  0.00    +0.000 OA
ATOM     36  H   UNL     1       6.194   7.297  62.714  0.00  0.00    +0.000 HD
ENDBRANCH  15  35
BRANCH   9  37
ATOM     37  O   UNL     1       6.699  11.074  58.213  0.00  0.00    +0.000 OA
ATOM     38  H   UNL     1       6.647  12.027  58.413  0.00  0.00    +0.000 HD
ENDBRANCH   9  37
BRANCH  20  39
ATOM     39  O   UNL     1       6.696   9.755  63.997  0.00  0.00    +0.000 OA
ATOM     40  H   UNL     1       7.627   9.490  64.086  0.00  0.00    +0.000 HD
ENDBRANCH  20  39
TORSDOF 7
ENDMDL
MODEL 5
REMARK VINA RESULT:      -4.3     15.700     18.884
REMARK  Name = Chlortetracycline.pdbqt.pdb
REMARK  7 active torsions:
REMARK  status: ('A' for Active; 'I' for Inactive)
REMARK    1  A    between atoms: C_7  and  O_30
REMARK    2  A    between atoms: C_8  and  N_32
REMARK    3  A    between atoms: C_9  and  O_37
REMARK    4  A    between atoms: C_12  and  O_28
REMARK    5  A    between atoms: C_15  and  O_35
REMARK    6  A    between atoms: C_16  and  C_23
REMARK    7  A    between atoms: C_20  and  O_39
REMARK                            x       y       z     vdW  Elec       q    Type
REMARK                         _______ _______ _______ _____ _____    ______ ____
ROOT
ATOM      1 CL   UNL     1      10.678  -1.358  69.095  0.00  0.00    +0.000 Cl
ATOM      2  O   UNL     1       5.777  -2.581  75.077  0.00  0.00    +0.000 OA
ATOM      3  O   UNL     1       9.109   2.442  76.363  0.00  0.00    +0.000 OA
ATOM      4  C   UNL     1       9.030  -0.976  75.953  0.00  0.00    +0.000 C 
ATOM      5  C   UNL     1       8.795  -1.431  73.364  0.00  0.00    +0.000 C 
ATOM      6  C   UNL     1       9.396  -1.108  74.597  0.00  0.00    +0.000 C 
ATOM      7  C   UNL     1       7.589  -1.348  76.209  0.00  0.00    +0.000 C 
ATOM      8  C   UNL     1       9.549   0.138  76.726  0.00  0.00    +0.000 C 
ATOM      9  C   UNL     1       9.480  -1.645  72.043  0.00  0.00    +0.000 C 
ATOM     10  C   UNL     1       7.398  -1.773  73.525  0.00  0.00    +0.000 C 
ATOM     11  C   UNL     1       6.838  -1.958  74.932  0.00  0.00    +0.000 C 
ATOM     12  C   UNL     1       6.745  -0.174  76.715  0.00  0.00    +0.000 C 
ATOM     13  C   UNL     1       8.535  -1.598  70.852  0.00  0.00    +0.000 A 
ATOM     14  C   UNL     1       8.677   1.345  76.688  0.00  0.00    +0.000 C 
ATOM     15  C   UNL     1       6.612  -1.959  72.448  0.00  0.00    +0.000 C 
ATOM     16  C   UNL     1       7.222   1.076  76.918  0.00  0.00    +0.000 C 
ATOM     17  C   UNL     1       7.128  -1.721  71.065  0.00  0.00    +0.000 A 
ATOM     18  C   UNL     1      10.247  -2.981  72.106  0.00  0.00    +0.000 C 
ATOM     19  C   UNL     1       9.006  -1.444  69.526  0.00  0.00    +0.000 A 
ATOM     20  C   UNL     1       6.269  -1.609  69.948  0.00  0.00    +0.000 A 
ATOM     21  C   UNL     1       8.128  -1.372  68.448  0.00  0.00    +0.000 A 
ATOM     22  C   UNL     1       6.764  -1.438  68.658  0.00  0.00    +0.000 A 
ENDROOT
BRANCH  16  23
ATOM     23  C   UNL     1       6.384   2.183  77.460  0.00  0.00    +0.000 C 
ATOM     24  O   UNL     1       5.974   2.182  78.614  0.00  0.00    +0.000 OA
ATOM     25  N   UNL     1       6.074   3.197  76.609  0.00  0.00    +0.000 N 
ATOM     26  H   UNL     1       6.165   3.067  75.607  0.00  0.00    +0.000 HD
ATOM     27  H   UNL     1       5.410   3.884  76.941  0.00  0.00    +0.000 HD
ENDBRANCH  16  23
BRANCH   8  28
ATOM     28  N   UNL     1      10.413  -0.068  77.858  0.00  0.00    +0.000 NA
ATOM     29  C   UNL     1      11.719   0.561  77.729  0.00  0.00    +0.000 C 
ATOM     30  C   UNL     1       9.837   0.352  79.119  0.00  0.00    +0.000 C 
ENDBRANCH   8  28
BRANCH  12  31
ATOM     31  O   UNL     1       5.423  -0.490  77.040  0.00  0.00    +0.000 OA
ATOM     32  H   UNL     1       5.241  -1.409  76.737  0.00  0.00    +0.000 HD
ENDBRANCH  12  31
BRANCH   7  33
ATOM     33  O   UNL     1       7.559  -2.300  77.274  0.00  0.00    +0.000 OA
ATOM     34  H   UNL     1       8.055  -3.090  76.989  0.00  0.00    +0.000 HD
ENDBRANCH   7  33
BRANCH  15  35
ATOM     35  O   UNL     1       5.307  -2.394  72.539  0.00  0.00    +0.000 OA
ATOM     36  H   UNL     1       5.089  -2.630  73.465  0.00  0.00    +0.000 HD
ENDBRANCH  15  35
BRANCH   9  37
ATOM     37  O   UNL     1      10.457  -0.627  71.941  0.00  0.00    +0.000 OA
ATOM     38  H   UNL     1      11.045  -0.854  72.684  0.00  0.00    +0.000 HD
ENDBRANCH   9  37
BRANCH  20  39
ATOM     39  O   UNL     1       4.908  -1.614  70.089  0.00  0.00    +0.000 OA
ATOM     40  H   UNL     1       4.574  -2.521  69.979  0.00  0.00    +0.000 HD
ENDBRANCH  20  39
TORSDOF 7
ENDMDL
MODEL 6
REMARK VINA RESULT:      -4.2     13.173     14.862
REMARK  Name = Chlortetracycline.pdbqt.pdb
REMARK  7 active torsions:
REMARK  status: ('A' for Active; 'I' for Inactive)
REMARK    1  A    between atoms: C_7  and  O_30
REMARK    2  A    between atoms: C_8  and  N_32
REMARK    3  A    between atoms: C_9  and  O_37
REMARK    4  A    between atoms: C_12  and  O_28
REMARK    5  A    between atoms: C_15  and  O_35
REMARK    6  A    between atoms: C_16  and  C_23
REMARK    7  A    between atoms: C_20  and  O_39
REMARK                            x       y       z     vdW  Elec       q    Type
REMARK                         _______ _______ _______ _____ _____    ______ ____
ROOT
ATOM      1 CL   UNL     1      18.592   0.335  70.174  0.00  0.00    +0.000 Cl
ATOM      2  O   UNL     1      14.002   6.156  72.692  0.00  0.00    +0.000 OA
ATOM      3  O   UNL     1      16.693   8.001  67.464  0.00  0.00    +0.000 OA
ATOM      4  C   UNL     1      17.041   7.198  70.795  0.00  0.00    +0.000 C 
ATOM      5  C   UNL     1      16.817   4.575  70.976  0.00  0.00    +0.000 C 
ATOM      6  C   UNL     1      17.395   5.834  70.723  0.00  0.00    +0.000 C 
ATOM      7  C   UNL     1      15.664   7.415  71.376  0.00  0.00    +0.000 C 
ATOM      8  C   UNL     1      17.429   8.093  69.719  0.00  0.00    +0.000 C 
ATOM      9  C   UNL     1      17.497   3.235  70.948  0.00  0.00    +0.000 C 
ATOM     10  C   UNL     1      15.477   4.701  71.511  0.00  0.00    +0.000 C 
ATOM     11  C   UNL     1      14.972   6.079  71.926  0.00  0.00    +0.000 C 
ATOM     12  C   UNL     1      14.688   8.058  70.385  0.00  0.00    +0.000 C 
ATOM     13  C   UNL     1      16.531   2.061  70.887  0.00  0.00    +0.000 A 
ATOM     14  C   UNL     1      16.411   8.199  68.637  0.00  0.00    +0.000 C 
ATOM     15  C   UNL     1      14.700   3.614  71.672  0.00  0.00    +0.000 C 
ATOM     16  C   UNL     1      15.007   8.402  69.115  0.00  0.00    +0.000 C 
ATOM     17  C   UNL     1      15.155   2.265  71.213  0.00  0.00    +0.000 A 
ATOM     18  C   UNL     1      18.428   3.139  72.173  0.00  0.00    +0.000 C 
ATOM     19  C   UNL     1      16.953   0.761  70.522  0.00  0.00    +0.000 A 
ATOM     20  C   UNL     1      14.268   1.173  71.084  0.00  0.00    +0.000 A 
ATOM     21  C   UNL     1      16.053  -0.298  70.441  0.00  0.00    +0.000 A 
ATOM     22  C   UNL     1      14.712  -0.091  70.705  0.00  0.00    +0.000 A 
ENDROOT
BRANCH  16  23
ATOM     23  C   UNL     1      14.046   9.073  68.195  0.00  0.00    +0.000 C 
ATOM     24  O   UNL     1      13.694  10.235  68.356  0.00  0.00    +0.000 OA
ATOM     25  N   UNL     1      13.554   8.331  67.166  0.00  0.00    +0.000 N 
ATOM     26  H   UNL     1      13.615   7.319  67.194  0.00  0.00    +0.000 HD
ATOM     27  H   UNL     1      12.815   8.747  66.616  0.00  0.00    +0.000 HD
ENDBRANCH  16  23
BRANCH   8  28
ATOM     28  N   UNL     1      18.334   9.190  69.941  0.00  0.00    +0.000 NA
ATOM     29  C   UNL     1      17.703  10.500  69.882  0.00  0.00    +0.000 C 
ATOM     30  C   UNL     1      19.067   9.102  71.187  0.00  0.00    +0.000 C 
ENDBRANCH   8  28
BRANCH  12  31
ATOM     31  O   UNL     1      13.423   8.350  70.903  0.00  0.00    +0.000 OA
ATOM     32  H   UNL     1      12.760   8.233  70.185  0.00  0.00    +0.000 HD
ENDBRANCH  12  31
BRANCH   7  33
ATOM     33  O   UNL     1      15.776   8.363  72.439  0.00  0.00    +0.000 OA
ATOM     34  H   UNL     1      16.722   8.474  72.647  0.00  0.00    +0.000 HD
ENDBRANCH   7  33
BRANCH  15  35
ATOM     35  O   UNL     1      13.463   3.659  72.278  0.00  0.00    +0.000 OA
ATOM     36  H   UNL     1      12.790   3.224  71.713  0.00  0.00    +0.000 HD
ENDBRANCH  15  35
BRANCH   9  37
ATOM     37  O   UNL     1      18.335   3.247  69.809  0.00  0.00    +0.000 OA
ATOM     38  H   UNL     1      18.712   2.349  69.841  0.00  0.00    +0.000 HD
ENDBRANCH   9  37
BRANCH  20  39
ATOM     39  O   UNL     1      12.922   1.318  71.280  0.00  0.00    +0.000 OA
ATOM     40  H   UNL     1      12.554   0.488  71.630  0.00  0.00    +0.000 HD
ENDBRANCH  20  39
TORSDOF 7
ENDMDL
MODEL 7
REMARK VINA RESULT:      -4.0     12.632     14.120
REMARK  Name = Chlortetracycline.pdbqt.pdb
REMARK  7 active torsions:
REMARK  status: ('A' for Active; 'I' for Inactive)
REMARK    1  A    between atoms: C_7  and  O_30
REMARK    2  A    between atoms: C_8  and  N_32
REMARK    3  A    between atoms: C_9  and  O_37
REMARK    4  A    between atoms: C_12  and  O_28
REMARK    5  A    between atoms: C_15  and  O_35
REMARK    6  A    between atoms: C_16  and  C_23
REMARK    7  A    between atoms: C_20  and  O_39
REMARK                            x       y       z     vdW  Elec       q    Type
REMARK                         _______ _______ _______ _____ _____    ______ ____
ROOT
ATOM      1 CL   UNL     1      15.431   4.182  75.448  0.00  0.00    +0.000 Cl
ATOM      2  O   UNL     1      15.626   6.111  67.862  0.00  0.00    +0.000 OA
ATOM      3  O   UNL     1      16.174  11.299  71.143  0.00  0.00    +0.000 OA
ATOM      4  C   UNL     1      14.174   8.678  70.147  0.00  0.00    +0.000 C 
ATOM      5  C   UNL     1      15.016   6.538  71.442  0.00  0.00    +0.000 C 
ATOM      6  C   UNL     1      14.359   7.762  71.204  0.00  0.00    +0.000 C 
ATOM      7  C   UNL     1      14.792   8.210  68.851  0.00  0.00    +0.000 C 
ATOM      8  C   UNL     1      14.257  10.103  70.417  0.00  0.00    +0.000 C 
ATOM      9  C   UNL     1      14.924   5.676  72.670  0.00  0.00    +0.000 C 
ATOM     10  C   UNL     1      15.660   6.037  70.246  0.00  0.00    +0.000 C 
ATOM     11  C   UNL     1      15.380   6.722  68.912  0.00  0.00    +0.000 C 
ATOM     12  C   UNL     1      15.918   9.124  68.358  0.00  0.00    +0.000 C 
ATOM     13  C   UNL     1      16.032   4.639  72.770  0.00  0.00    +0.000 A 
ATOM     14  C   UNL     1      15.629  10.660  70.255  0.00  0.00    +0.000 C 
ATOM     15  C   UNL     1      16.469   4.963  70.304  0.00  0.00    +0.000 C 
ATOM     16  C   UNL     1      16.332  10.240  69.002  0.00  0.00    +0.000 C 
ATOM     17  C   UNL     1      16.805   4.320  71.612  0.00  0.00    +0.000 A 
ATOM     18  C   UNL     1      13.529   5.020  72.698  0.00  0.00    +0.000 C 
ATOM     19  C   UNL     1      16.321   3.966  73.981  0.00  0.00    +0.000 A 
ATOM     20  C   UNL     1      17.869   3.401  71.750  0.00  0.00    +0.000 A 
ATOM     21  C   UNL     1      17.358   3.041  74.067  0.00  0.00    +0.000 A 
ATOM     22  C   UNL     1      18.140   2.769  72.961  0.00  0.00    +0.000 A 
ENDROOT
BRANCH  16  23
ATOM     23  C   UNL     1      17.397  11.134  68.466  0.00  0.00    +0.000 C 
ATOM     24  O   UNL     1      17.337  11.615  67.342  0.00  0.00    +0.000 OA
ATOM     25  N   UNL     1      18.460  11.385  69.276  0.00  0.00    +0.000 N 
ATOM     26  H   UNL     1      18.650  10.781  70.069  0.00  0.00    +0.000 HD
ATOM     27  H   UNL     1      19.235  11.892  68.870  0.00  0.00    +0.000 HD
ENDBRANCH  16  23
BRANCH   8  28
ATOM     28  N   UNL     1      13.123  10.970  70.240  0.00  0.00    +0.000 NA
ATOM     29  C   UNL     1      12.713  11.664  71.453  0.00  0.00    +0.000 C 
ATOM     30  C   UNL     1      13.297  11.959  69.196  0.00  0.00    +0.000 C 
ENDBRANCH   8  28
BRANCH  12  31
ATOM     31  O   UNL     1      16.467   8.774  67.121  0.00  0.00    +0.000 OA
ATOM     32  H   UNL     1      16.229   7.837  66.931  0.00  0.00    +0.000 HD
ENDBRANCH  12  31
BRANCH   7  33
ATOM     33  O   UNL     1      13.794   8.284  67.832  0.00  0.00    +0.000 OA
ATOM     34  H   UNL     1      14.158   7.883  67.022  0.00  0.00    +0.000 HD
ENDBRANCH   7  33
BRANCH  15  35
ATOM     35  O   UNL     1      17.019   4.377  69.185  0.00  0.00    +0.000 OA
ATOM     36  H   UNL     1      17.972   4.197  69.327  0.00  0.00    +0.000 HD
ENDBRANCH  15  35
BRANCH   9  37
ATOM     37  O   UNL     1      14.972   6.562  73.771  0.00  0.00    +0.000 OA
ATOM     38  H   UNL     1      15.772   6.247  74.233  0.00  0.00    +0.000 HD
ENDBRANCH   9  37
BRANCH  20  39
ATOM     39  O   UNL     1      18.715   3.124  70.710  0.00  0.00    +0.000 OA
ATOM     40  H   UNL     1      19.243   2.336  70.922  0.00  0.00    +0.000 HD
ENDBRANCH  20  39
TORSDOF 7
ENDMDL
MODEL 8
REMARK VINA RESULT:      -4.0     14.384     17.521
REMARK  Name = Chlortetracycline.pdbqt.pdb
REMARK  7 active torsions:
REMARK  status: ('A' for Active; 'I' for Inactive)
REMARK    1  A    between atoms: C_7  and  O_30
REMARK    2  A    between atoms: C_8  and  N_32
REMARK    3  A    between atoms: C_9  and  O_37
REMARK    4  A    between atoms: C_12  and  O_28
REMARK    5  A    between atoms: C_15  and  O_35
REMARK    6  A    between atoms: C_16  and  C_23
REMARK    7  A    between atoms: C_20  and  O_39
REMARK                            x       y       z     vdW  Elec       q    Type
REMARK                         _______ _______ _______ _____ _____    ______ ____
ROOT
ATOM      1 CL   UNL     1       5.103  11.701  71.216  0.00  0.00    +0.000 Cl
ATOM      2  O   UNL     1       6.979   8.852  78.264  0.00  0.00    +0.000 OA
ATOM      3  O   UNL     1       4.713   4.215  74.895  0.00  0.00    +0.000 OA
ATOM      4  C   UNL     1       4.119   7.177  76.550  0.00  0.00    +0.000 C 
ATOM      5  C   UNL     1       5.185   9.097  75.087  0.00  0.00    +0.000 C 
ATOM      6  C   UNL     1       4.264   8.118  75.509  0.00  0.00    +0.000 C 
ATOM      7  C   UNL     1       5.227   7.260  77.573  0.00  0.00    +0.000 C 
ATOM      8  C   UNL     1       3.632   5.843  76.243  0.00  0.00    +0.000 C 
ATOM      9  C   UNL     1       5.011  10.095  73.976  0.00  0.00    +0.000 C 
ATOM     10  C   UNL     1       6.296   9.216  76.007  0.00  0.00    +0.000 C 
ATOM     11  C   UNL     1       6.231   8.487  77.346  0.00  0.00    +0.000 C 
ATOM     12  C   UNL     1       6.076   5.986  77.644  0.00  0.00    +0.000 C 
ATOM     13  C   UNL     1       6.314  10.742  73.530  0.00  0.00    +0.000 A 
ATOM     14  C   UNL     1       4.716   4.872  75.926  0.00  0.00    +0.000 C 
ATOM     15  C   UNL     1       7.358   9.985  75.701  0.00  0.00    +0.000 C 
ATOM     16  C   UNL     1       5.871   4.889  76.879  0.00  0.00    +0.000 C 
ATOM     17  C   UNL     1       7.467  10.655  74.368  0.00  0.00    +0.000 A 
ATOM     18  C   UNL     1       3.981  11.149  74.429  0.00  0.00    +0.000 C 
ATOM     19  C   UNL     1       6.421  11.441  72.304  0.00  0.00    +0.000 A 
ATOM     20  C   UNL     1       8.679  11.207  73.899  0.00  0.00    +0.000 A 
ATOM     21  C   UNL     1       7.627  12.002  71.893  0.00  0.00    +0.000 A 
ATOM     22  C   UNL     1       8.757  11.874  72.679  0.00  0.00    +0.000 A 
ENDROOT
BRANCH  16  23
ATOM     23  C   UNL     1       6.685   3.648  77.012  0.00  0.00    +0.000 C 
ATOM     24  O   UNL     1       7.907   3.675  77.071  0.00  0.00    +0.000 OA
ATOM     25  N   UNL     1       6.011   2.467  77.047  0.00  0.00    +0.000 N 
ATOM     26  H   UNL     1       5.052   2.418  76.720  0.00  0.00    +0.000 HD
ATOM     27  H   UNL     1       6.566   1.623  77.017  0.00  0.00    +0.000 HD
ENDBRANCH  16  23
BRANCH   8  28
ATOM     28  N   UNL     1       2.387   5.355  76.773  0.00  0.00    +0.000 NA
ATOM     29  C   UNL     1       2.508   4.710  78.073  0.00  0.00    +0.000 C 
ATOM     30  C   UNL     1       1.355   6.367  76.870  0.00  0.00    +0.000 C 
ENDBRANCH   8  28
BRANCH  12  31
ATOM     31  O   UNL     1       7.066   5.988  78.632  0.00  0.00    +0.000 OA
ATOM     32  H   UNL     1       6.944   6.789  79.191  0.00  0.00    +0.000 HD
ENDBRANCH  12  31
BRANCH   7  33
ATOM     33  O   UNL     1       4.630   7.369  78.866  0.00  0.00    +0.000 OA
ATOM     34  H   UNL     1       4.649   8.307  79.130  0.00  0.00    +0.000 HD
ENDBRANCH   7  33
BRANCH  15  35
ATOM     35  O   UNL     1       8.391  10.223  76.582  0.00  0.00    +0.000 OA
ATOM     36  H   UNL     1       8.383  11.159  76.872  0.00  0.00    +0.000 HD
ENDBRANCH  15  35
BRANCH   9  37
ATOM     37  O   UNL     1       4.417   9.387  72.907  0.00  0.00    +0.000 OA
ATOM     38  H   UNL     1       3.610   9.914  72.756  0.00  0.00    +0.000 HD
ENDBRANCH   9  37
BRANCH  20  39
ATOM     39  O   UNL     1       9.846  11.072  74.600  0.00  0.00    +0.000 OA
ATOM     40  H   UNL     1      10.064  10.129  74.689  0.00  0.00    +0.000 HD
ENDBRANCH  20  39
TORSDOF 7
ENDMDL
MODEL 9
REMARK VINA RESULT:      -3.9     12.618     15.225
REMARK  Name = Chlortetracycline.pdbqt.pdb
REMARK  7 active torsions:
REMARK  status: ('A' for Active; 'I' for Inactive)
REMARK    1  A    between atoms: C_7  and  O_30
REMARK    2  A    between atoms: C_8  and  N_32
REMARK    3  A    between atoms: C_9  and  O_37
REMARK    4  A    between atoms: C_12  and  O_28
REMARK    5  A    between atoms: C_15  and  O_35
REMARK    6  A    between atoms: C_16  and  C_23
REMARK    7  A    between atoms: C_20  and  O_39
REMARK                            x       y       z     vdW  Elec       q    Type
REMARK                         _______ _______ _______ _____ _____    ______ ____
ROOT
ATOM      1 CL   UNL     1      16.660  13.369  71.105  0.00  0.00    +0.000 Cl
ATOM      2  O   UNL     1      15.102   6.375  67.950  0.00  0.00    +0.000 OA
ATOM      3  O   UNL     1      15.823   5.589  74.020  0.00  0.00    +0.000 OA
ATOM      4  C   UNL     1      17.272   6.334  70.985  0.00  0.00    +0.000 C 
ATOM      5  C   UNL     1      16.488   8.770  70.340  0.00  0.00    +0.000 C 
ATOM      6  C   UNL     1      17.211   7.743  70.980  0.00  0.00    +0.000 C 
ATOM      7  C   UNL     1      16.350   5.704  69.969  0.00  0.00    +0.000 C 
ATOM      8  C   UNL     1      17.404   5.631  72.250  0.00  0.00    +0.000 C 
ATOM      9  C   UNL     1      16.738  10.250  70.421  0.00  0.00    +0.000 C 
ATOM     10  C   UNL     1      15.558   8.240  69.366  0.00  0.00    +0.000 C 
ATOM     11  C   UNL     1      15.627   6.759  69.004  0.00  0.00    +0.000 C 
ATOM     12  C   UNL     1      15.253   4.843  70.603  0.00  0.00    +0.000 C 
ATOM     13  C   UNL     1      15.568  11.093  69.937  0.00  0.00    +0.000 A 
ATOM     14  C   UNL     1      16.098   5.274  72.871  0.00  0.00    +0.000 C 
ATOM     15  C   UNL     1      14.665   9.047  68.763  0.00  0.00    +0.000 C 
ATOM     16  C   UNL     1      15.107   4.654  71.936  0.00  0.00    +0.000 C 
ATOM     17  C   UNL     1      14.541  10.486  69.151  0.00  0.00    +0.000 A 
ATOM     18  C   UNL     1      18.028  10.566  69.637  0.00  0.00    +0.000 C 
ATOM     19  C   UNL     1      15.466  12.473  70.233  0.00  0.00    +0.000 A 
ATOM     20  C   UNL     1      13.434  11.277  68.771  0.00  0.00    +0.000 A 
ATOM     21  C   UNL     1      14.374  13.226  69.810  0.00  0.00    +0.000 A 
ATOM     22  C   UNL     1      13.354  12.629  69.094  0.00  0.00    +0.000 A 
ENDROOT
BRANCH  16  23
ATOM     23  C   UNL     1      14.059   3.768  72.516  0.00  0.00    +0.000 C 
ATOM     24  O   UNL     1      13.869   2.630  72.106  0.00  0.00    +0.000 OA
ATOM     25  N   UNL     1      13.300   4.283  73.520  0.00  0.00    +0.000 N 
ATOM     26  H   UNL     1      13.260   5.287  73.664  0.00  0.00    +0.000 HD
ATOM     27  H   UNL     1      12.514   3.728  73.831  0.00  0.00    +0.000 HD
ENDBRANCH  16  23
BRANCH   8  28
ATOM     28  N   UNL     1      18.565   4.837  72.553  0.00  0.00    +0.000 NA
ATOM     29  C   UNL     1      18.319   3.402  72.552  0.00  0.00    +0.000 C 
ATOM     30  C   UNL     1      19.695   5.097  71.685  0.00  0.00    +0.000 C 
ENDBRANCH   8  28
BRANCH  12  31
ATOM     31  O   UNL     1      14.423   4.177  69.697  0.00  0.00    +0.000 OA
ATOM     32  H   UNL     1      14.488   4.630  68.826  0.00  0.00    +0.000 HD
ENDBRANCH  12  31
BRANCH   7  33
ATOM     33  O   UNL     1      17.115   4.790  69.182  0.00  0.00    +0.000 OA
ATOM     34  H   UNL     1      17.982   5.198  69.001  0.00  0.00    +0.000 HD
ENDBRANCH   7  33
BRANCH  15  35
ATOM     35  O   UNL     1      13.833   8.621  67.750  0.00  0.00    +0.000 OA
ATOM     36  H   UNL     1      14.008   7.681  67.536  0.00  0.00    +0.000 HD
ENDBRANCH  15  35
BRANCH   9  37
ATOM     37  O   UNL     1      17.018  10.524  71.780  0.00  0.00    +0.000 OA
ATOM     38  H   UNL     1      16.939   9.635  72.173  0.00  0.00    +0.000 HD
ENDBRANCH   9  37
BRANCH  20  39
ATOM     39  O   UNL     1      12.365  10.740  68.106  0.00  0.00    +0.000 OA
ATOM     40  H   UNL     1      12.569  10.684  67.156  0.00  0.00    +0.000 HD
ENDBRANCH  20  39
TORSDOF 7
ENDMDL
