MODEL 1
REMARK VINA RESULT:      -3.8      0.000      0.000
REMARK  Name = Ciclopirox.pdbqt.pdb
REMARK  2 active torsions:
REMARK  status: ('A' for Active; 'I' for Inactive)
REMARK    1  A    between atoms: N_2  and  O_15
REMARK    2  A    between atoms: C_3  and  C_9
REMARK                            x       y       z     vdW  Elec       q    Type
REMARK                         _______ _______ _______ _____ _____    ______ ____
ROOT
ATOM      1  O   UNL     1      16.856  12.989  63.505  0.00  0.00    +0.000 OA
ATOM      2  N   UNL     1      15.257  12.610  61.837  0.00  0.00    +0.000 N 
ATOM      3  C   UNL     1      14.753  11.759  60.844  0.00  0.00    +0.000 C 
ATOM      4  C   UNL     1      15.483  10.677  60.731  0.00  0.00    +0.000 C 
ATOM      5  C   UNL     1      16.660  10.141  61.330  0.00  0.00    +0.000 C 
ATOM      6  C   UNL     1      16.400  12.307  62.599  0.00  0.00    +0.000 C 
ATOM      7  C   UNL     1      16.980  11.043  62.208  0.00  0.00    +0.000 C 
ATOM      8  C   UNL     1      17.699   9.476  60.490  0.00  0.00    +0.000 C 
ENDROOT
BRANCH   3   9
ATOM      9  C   UNL     1      13.582  12.016  60.057  0.00  0.00    +0.000 A 
ATOM     10  C   UNL     1      13.613  12.356  58.653  0.00  0.00    +0.000 A 
ATOM     11  C   UNL     1      12.502  12.904  57.728  0.00  0.00    +0.000 A 
ATOM     12  C   UNL     1      11.126  13.133  58.380  0.00  0.00    +0.000 A 
ATOM     13  C   UNL     1      10.989  12.797  59.876  0.00  0.00    +0.000 A 
ATOM     14  C   UNL     1      12.259  12.260  60.574  0.00  0.00    +0.000 A 
ENDBRANCH   3   9
BRANCH   2  15
ATOM     15  O   UNL     1      14.545  13.782  62.158  0.00  0.00    +0.000 OA
ATOM     16  H   UNL     1      15.224  14.328  62.605  0.00  0.00    +0.000 HD
ENDBRANCH   2  15
TORSDOF 2
ENDMDL
MODEL 2
REMARK VINA RESULT:      -3.7      4.471      6.195
REMARK  Name = Ciclopirox.pdbqt.pdb
REMARK  2 active torsions:
REMARK  status: ('A' for Active; 'I' for Inactive)
REMARK    1  A    between atoms: N_2  and  O_15
REMARK    2  A    between atoms: C_3  and  C_9
REMARK                            x       y       z     vdW  Elec       q    Type
REMARK                         _______ _______ _______ _____ _____    ______ ____
ROOT
ATOM      1  O   UNL     1      21.341   7.804  57.435  0.00  0.00    +0.000 OA
ATOM      2  N   UNL     1      19.652   9.060  58.462  0.00  0.00    +0.000 N 
ATOM      3  C   UNL     1      18.438   9.749  58.336  0.00  0.00    +0.000 C 
ATOM      4  C   UNL     1      18.021   9.750  57.095  0.00  0.00    +0.000 C 
ATOM      5  C   UNL     1      18.474   9.257  55.836  0.00  0.00    +0.000 C 
ATOM      6  C   UNL     1      20.306   8.454  57.375  0.00  0.00    +0.000 C 
ATOM      7  C   UNL     1      19.587   8.658  56.139  0.00  0.00    +0.000 C 
ATOM      8  C   UNL     1      18.358  10.097  54.609  0.00  0.00    +0.000 C 
ENDROOT
BRANCH   3   9
ATOM      9  C   UNL     1      17.725  10.365  59.417  0.00  0.00    +0.000 A 
ATOM     10  C   UNL     1      16.838   9.652  60.307  0.00  0.00    +0.000 A 
ATOM     11  C   UNL     1      15.815  10.179  61.339  0.00  0.00    +0.000 A 
ATOM     12  C   UNL     1      15.701  11.710  61.463  0.00  0.00    +0.000 A 
ATOM     13  C   UNL     1      16.609  12.561  60.556  0.00  0.00    +0.000 A 
ATOM     14  C   UNL     1      17.548  11.783  59.608  0.00  0.00    +0.000 A 
ENDBRANCH   3   9
BRANCH   2  15
ATOM     15  O   UNL     1      20.206   8.881  59.745  0.00  0.00    +0.000 OA
ATOM     16  H   UNL     1      19.414   8.718  60.298  0.00  0.00    +0.000 HD
ENDBRANCH   2  15
TORSDOF 2
ENDMDL
MODEL 3
REMARK VINA RESULT:      -3.4     17.850     18.742
REMARK  Name = Ciclopirox.pdbqt.pdb
REMARK  2 active torsions:
REMARK  status: ('A' for Active; 'I' for Inactive)
REMARK    1  A    between atoms: N_2  and  O_15
REMARK    2  A    between atoms: C_3  and  C_9
REMARK                            x       y       z     vdW  Elec       q    Type
REMARK                         _______ _______ _______ _____ _____    ______ ____
ROOT
ATOM      1  O   UNL     1       5.035   4.512  77.135  0.00  0.00    +0.000 OA
ATOM      2  N   UNL     1       3.995   6.096  75.760  0.00  0.00    +0.000 N 
ATOM      3  C   UNL     1       3.933   7.422  75.309  0.00  0.00    +0.000 C 
ATOM      4  C   UNL     1       4.819   8.171  75.916  0.00  0.00    +0.000 C 
ATOM      5  C   UNL     1       5.814   8.009  76.924  0.00  0.00    +0.000 C 
ATOM      6  C   UNL     1       4.908   5.661  76.738  0.00  0.00    +0.000 C 
ATOM      7  C   UNL     1       5.732   6.746  77.218  0.00  0.00    +0.000 C 
ATOM      8  C   UNL     1       5.987   9.040  77.989  0.00  0.00    +0.000 C 
ENDROOT
BRANCH   3   9
ATOM      9  C   UNL     1       3.035   7.907  74.302  0.00  0.00    +0.000 A 
ATOM     10  C   UNL     1       3.368   7.994  72.898  0.00  0.00    +0.000 A 
ATOM     11  C   UNL     1       2.642   8.709  71.736  0.00  0.00    +0.000 A 
ATOM     12  C   UNL     1       1.348   9.459  72.103  0.00  0.00    +0.000 A 
ATOM     13  C   UNL     1       0.905   9.424  73.577  0.00  0.00    +0.000 A 
ATOM     14  C   UNL     1       1.814   8.633  74.544  0.00  0.00    +0.000 A 
ENDBRANCH   3   9
BRANCH   2  15
ATOM     15  O   UNL     1       3.173   5.128  75.151  0.00  0.00    +0.000 OA
ATOM     16  H   UNL     1       2.762   4.684  75.920  0.00  0.00    +0.000 HD
ENDBRANCH   2  15
TORSDOF 2
ENDMDL
MODEL 4
REMARK VINA RESULT:      -3.4      9.151      9.997
REMARK  Name = Ciclopirox.pdbqt.pdb
REMARK  2 active torsions:
REMARK  status: ('A' for Active; 'I' for Inactive)
REMARK    1  A    between atoms: N_2  and  O_15
REMARK    2  A    between atoms: C_3  and  C_9
REMARK                            x       y       z     vdW  Elec       q    Type
REMARK                         _______ _______ _______ _____ _____    ______ ____
ROOT
ATOM      1  O   UNL     1       4.863   7.198  63.219  0.00  0.00    +0.000 OA
ATOM      2  N   UNL     1       5.837   7.311  61.093  0.00  0.00    +0.000 N 
ATOM      3  C   UNL     1       6.570   8.057  60.158  0.00  0.00    +0.000 C 
ATOM      4  C   UNL     1       6.838   9.255  60.614  0.00  0.00    +0.000 C 
ATOM      5  C   UNL     1       6.572  10.012  61.791  0.00  0.00    +0.000 C 
ATOM      6  C   UNL     1       5.461   7.816  62.350  0.00  0.00    +0.000 C 
ATOM      7  C   UNL     1       5.899   9.181  62.529  0.00  0.00    +0.000 C 
ATOM      8  C   UNL     1       6.181  11.449  61.694  0.00  0.00    +0.000 C 
ENDROOT
BRANCH   3   9
ATOM      9  C   UNL     1       6.992   7.578  58.874  0.00  0.00    +0.000 A 
ATOM     10  C   UNL     1       6.206   7.703  57.669  0.00  0.00    +0.000 A 
ATOM     11  C   UNL     1       6.379   7.039  56.283  0.00  0.00    +0.000 A 
ATOM     12  C   UNL     1       7.578   6.084  56.133  0.00  0.00    +0.000 A 
ATOM     13  C   UNL     1       8.481   5.885  57.364  0.00  0.00    +0.000 A 
ATOM     14  C   UNL     1       8.087   6.671  58.634  0.00  0.00    +0.000 A 
ENDBRANCH   3   9
BRANCH   2  15
ATOM     15  O   UNL     1       5.537   5.965  60.808  0.00  0.00    +0.000 OA
ATOM     16  H   UNL     1       4.915   5.730  61.527  0.00  0.00    +0.000 HD
ENDBRANCH   2  15
TORSDOF 2
ENDMDL
MODEL 5
REMARK VINA RESULT:      -3.4      3.990      6.202
REMARK  Name = Ciclopirox.pdbqt.pdb
REMARK  2 active torsions:
REMARK  status: ('A' for Active; 'I' for Inactive)
REMARK    1  A    between atoms: N_2  and  O_15
REMARK    2  A    between atoms: C_3  and  C_9
REMARK                            x       y       z     vdW  Elec       q    Type
REMARK                         _______ _______ _______ _____ _____    ______ ____
ROOT
ATOM      1  O   UNL     1      15.598  11.714  60.098  0.00  0.00    +0.000 OA
ATOM      2  N   UNL     1      17.244  10.827  58.687  0.00  0.00    +0.000 N 
ATOM      3  C   UNL     1      18.322   9.946  58.524  0.00  0.00    +0.000 C 
ATOM      4  C   UNL     1      18.602   9.328  59.644  0.00  0.00    +0.000 C 
ATOM      5  C   UNL     1      18.121   9.321  60.986  0.00  0.00    +0.000 C 
ATOM      6  C   UNL     1      16.570  10.995  59.910  0.00  0.00    +0.000 C 
ATOM      7  C   UNL     1      17.144  10.176  60.952  0.00  0.00    +0.000 C 
ATOM      8  C   UNL     1      19.077   9.285  62.131  0.00  0.00    +0.000 C 
ENDROOT
BRANCH   3   9
ATOM      9  C   UNL     1      19.026   9.728  57.294  0.00  0.00    +0.000 A 
ATOM     10  C   UNL     1      20.085  10.583  56.808  0.00  0.00    +0.000 A 
ATOM     11  C   UNL     1      20.765  10.650  55.422  0.00  0.00    +0.000 A 
ATOM     12  C   UNL     1      20.253   9.653  54.365  0.00  0.00    +0.000 A 
ATOM     13  C   UNL     1      19.124   8.695  54.786  0.00  0.00    +0.000 A 
ATOM     14  C   UNL     1      18.618   8.834  56.240  0.00  0.00    +0.000 A 
ENDBRANCH   3   9
BRANCH   2  15
ATOM     15  O   UNL     1      16.746  11.513  57.562  0.00  0.00    +0.000 OA
ATOM     16  H   UNL     1      17.548  11.634  57.015  0.00  0.00    +0.000 HD
ENDBRANCH   2  15
TORSDOF 2
ENDMDL
MODEL 6
REMARK VINA RESULT:      -3.3     13.164     14.188
REMARK  Name = Ciclopirox.pdbqt.pdb
REMARK  2 active torsions:
REMARK  status: ('A' for Active; 'I' for Inactive)
REMARK    1  A    between atoms: N_2  and  O_15
REMARK    2  A    between atoms: C_3  and  C_9
REMARK                            x       y       z     vdW  Elec       q    Type
REMARK                         _______ _______ _______ _____ _____    ______ ____
ROOT
ATOM      1  O   UNL     1      18.004   3.974  50.739  0.00  0.00    +0.000 OA
ATOM      2  N   UNL     1      18.995   2.826  52.524  0.00  0.00    +0.000 N 
ATOM      3  C   UNL     1      18.919   1.780  53.454  0.00  0.00    +0.000 C 
ATOM      4  C   UNL     1      17.790   1.127  53.342  0.00  0.00    +0.000 C 
ATOM      5  C   UNL     1      16.610   1.203  52.545  0.00  0.00    +0.000 C 
ATOM      6  C   UNL     1      17.972   3.106  51.600  0.00  0.00    +0.000 C 
ATOM      7  C   UNL     1      16.853   2.207  51.756  0.00  0.00    +0.000 C 
ATOM      8  C   UNL     1      15.266   1.014  53.165  0.00  0.00    +0.000 C 
ENDROOT
BRANCH   3   9
ATOM      9  C   UNL     1      19.944   1.445  54.400  0.00  0.00    +0.000 A 
ATOM     10  C   UNL     1      19.750   0.545  55.514  0.00  0.00    +0.000 A 
ATOM     11  C   UNL     1      20.636   0.271  56.750  0.00  0.00    +0.000 A 
ATOM     12  C   UNL     1      21.949   1.073  56.835  0.00  0.00    +0.000 A 
ATOM     13  C   UNL     1      22.250   2.060  55.692  0.00  0.00    +0.000 A 
ATOM     14  C   UNL     1      21.193   2.144  54.568  0.00  0.00    +0.000 A 
ENDBRANCH   3   9
BRANCH   2  15
ATOM     15  O   UNL     1      20.181   3.581  52.439  0.00  0.00    +0.000 OA
ATOM     16  H   UNL     1      19.952   4.264  51.776  0.00  0.00    +0.000 HD
ENDBRANCH   2  15
TORSDOF 2
ENDMDL
MODEL 7
REMARK VINA RESULT:      -3.2     15.027     16.717
REMARK  Name = Ciclopirox.pdbqt.pdb
REMARK  2 active torsions:
REMARK  status: ('A' for Active; 'I' for Inactive)
REMARK    1  A    between atoms: N_2  and  O_15
REMARK    2  A    between atoms: C_3  and  C_9
REMARK                            x       y       z     vdW  Elec       q    Type
REMARK                         _______ _______ _______ _____ _____    ______ ____
ROOT
ATOM      1  O   UNL     1       2.027   6.742  64.116  0.00  0.00    +0.000 OA
ATOM      2  N   UNL     1       2.146   4.834  65.468  0.00  0.00    +0.000 N 
ATOM      3  C   UNL     1       2.068   4.280  66.754  0.00  0.00    +0.000 C 
ATOM      4  C   UNL     1       1.864   5.206  67.657  0.00  0.00    +0.000 C 
ATOM      5  C   UNL     1       1.718   6.624  67.690  0.00  0.00    +0.000 C 
ATOM      6  C   UNL     1       2.012   6.212  65.217  0.00  0.00    +0.000 C 
ATOM      7  C   UNL     1       1.814   6.958  66.438  0.00  0.00    +0.000 C 
ATOM      8  C   UNL     1       2.383   7.428  68.758  0.00  0.00    +0.000 C 
ENDROOT
BRANCH   3   9
ATOM      9  C   UNL     1       2.179   2.883  67.055  0.00  0.00    +0.000 A 
ATOM     10  C   UNL     1       1.132   2.108  67.680  0.00  0.00    +0.000 A 
ATOM     11  C   UNL     1       1.164   0.691  68.298  0.00  0.00    +0.000 A 
ATOM     12  C   UNL     1       2.519  -0.039  68.254  0.00  0.00    +0.000 A 
ATOM     13  C   UNL     1       3.701   0.704  67.604  0.00  0.00    +0.000 A 
ATOM     14  C   UNL     1       3.401   2.118  67.059  0.00  0.00    +0.000 A 
ENDBRANCH   3   9
BRANCH   2  15
ATOM     15  O   UNL     1       2.274   3.974  64.360  0.00  0.00    +0.000 OA
ATOM     16  H   UNL     1       1.513   3.368  64.473  0.00  0.00    +0.000 HD
ENDBRANCH   2  15
TORSDOF 2
ENDMDL
MODEL 8
REMARK VINA RESULT:      -3.2     15.164     16.578
REMARK  Name = Ciclopirox.pdbqt.pdb
REMARK  2 active torsions:
REMARK  status: ('A' for Active; 'I' for Inactive)
REMARK    1  A    between atoms: N_2  and  O_15
REMARK    2  A    between atoms: C_3  and  C_9
REMARK                            x       y       z     vdW  Elec       q    Type
REMARK                         _______ _______ _______ _____ _____    ______ ____
ROOT
ATOM      1  O   UNL     1      15.221   7.963  76.601  0.00  0.00    +0.000 OA
ATOM      2  N   UNL     1      13.718   6.215  76.183  0.00  0.00    +0.000 N 
ATOM      3  C   UNL     1      12.780   5.634  75.319  0.00  0.00    +0.000 C 
ATOM      4  C   UNL     1      12.596   6.373  74.253  0.00  0.00    +0.000 C 
ATOM      5  C   UNL     1      13.076   7.615  73.744  0.00  0.00    +0.000 C 
ATOM      6  C   UNL     1      14.364   7.434  75.907  0.00  0.00    +0.000 C 
ATOM      7  C   UNL     1      13.918   8.001  74.655  0.00  0.00    +0.000 C 
ATOM      8  C   UNL     1      12.138   8.581  73.100  0.00  0.00    +0.000 C 
ENDROOT
BRANCH   3   9
ATOM      9  C   UNL     1      12.113   4.386  75.548  0.00  0.00    +0.000 A 
ATOM     10  C   UNL     1      12.387   3.177  74.808  0.00  0.00    +0.000 A 
ATOM     11  C   UNL     1      11.612   1.841  74.742  0.00  0.00    +0.000 A 
ATOM     12  C   UNL     1      10.333   1.755  75.596  0.00  0.00    +0.000 A 
ATOM     13  C   UNL     1       9.954   2.995  76.427  0.00  0.00    +0.000 A 
ATOM     14  C   UNL     1      10.905   4.208  76.315  0.00  0.00    +0.000 A 
ENDBRANCH   3   9
BRANCH   2  15
ATOM     15  O   UNL     1      14.108   5.513  77.340  0.00  0.00    +0.000 OA
ATOM     16  H   UNL     1      13.978   6.178  78.047  0.00  0.00    +0.000 HD
ENDBRANCH   2  15
TORSDOF 2
ENDMDL
MODEL 9
REMARK VINA RESULT:      -3.1     13.720     15.299
REMARK  Name = Ciclopirox.pdbqt.pdb
REMARK  2 active torsions:
REMARK  status: ('A' for Active; 'I' for Inactive)
REMARK    1  A    between atoms: N_2  and  O_15
REMARK    2  A    between atoms: C_3  and  C_9
REMARK                            x       y       z     vdW  Elec       q    Type
REMARK                         _______ _______ _______ _____ _____    ______ ____
ROOT
ATOM      1  O   UNL     1      14.396  -3.285  57.067  0.00  0.00    +0.000 OA
ATOM      2  N   UNL     1      16.041  -1.875  56.177  0.00  0.00    +0.000 N 
ATOM      3  C   UNL     1      16.693  -1.377  55.040  0.00  0.00    +0.000 C 
ATOM      4  C   UNL     1      16.238  -1.940  53.949  0.00  0.00    +0.000 C 
ATOM      5  C   UNL     1      15.275  -2.933  53.605  0.00  0.00    +0.000 C 
ATOM      6  C   UNL     1      15.028  -2.849  56.115  0.00  0.00    +0.000 C 
ATOM      7  C   UNL     1      14.780  -3.274  54.757  0.00  0.00    +0.000 C 
ATOM      8  C   UNL     1      15.584  -3.957  52.564  0.00  0.00    +0.000 C 
ENDROOT
BRANCH   3   9
ATOM      9  C   UNL     1      17.715  -0.371  55.053  0.00  0.00    +0.000 A 
ATOM     10  C   UNL     1      17.880   0.623  54.017  0.00  0.00    +0.000 A 
ATOM     11  C   UNL     1      19.047   1.598  53.738  0.00  0.00    +0.000 A 
ATOM     12  C   UNL     1      20.242   1.522  54.707  0.00  0.00    +0.000 A 
ATOM     13  C   UNL     1      20.161   0.493  55.849  0.00  0.00    +0.000 A 
ATOM     14  C   UNL     1      18.877  -0.364  55.906  0.00  0.00    +0.000 A 
ENDBRANCH   3   9
BRANCH   2  15
ATOM     15  O   UNL     1      16.339  -1.316  57.435  0.00  0.00    +0.000 OA
ATOM     16  H   UNL     1      17.212  -1.710  57.641  0.00  0.00    +0.000 HD
ENDBRANCH   2  15
TORSDOF 2
ENDMDL
