MODEL 1
REMARK VINA RESULT:      -3.5      0.000      0.000
REMARK  Name = 
REMARK  14 active torsions:
REMARK  status: ('A' for Active; 'I' for Inactive)
REMARK    1  A    between atoms: S_2  and  C_21
REMARK    2  A    between atoms: S_2  and  C_27
REMARK    3  A    between atoms: O_4  and  C_16
REMARK    4  A    between atoms: O_5  and  C_18
REMARK    5  A    between atoms: O_6  and  C_20
REMARK    6  A    between atoms: N_8  and  C_23
REMARK    7  A    between atoms: N_9  and  C_15
REMARK    8  A    between atoms: C_10  and  C_17
REMARK    9  A    between atoms: C_11  and  C_19
REMARK   10  A    between atoms: C_14  and  C_15
REMARK   11  A    between atoms: C_15  and  C_22
REMARK   12  A    between atoms: C_17  and  C_24
REMARK   13  A    between atoms: C_22  and  C_25
REMARK   14  A    between atoms: C_24  and  C_26
REMARK                            x       y       z     vdW  Elec       q    Type
REMARK                         _______ _______ _______ _____ _____    ______ ____
ROOT
ATOM      1  C   UNL     1      16.992  11.458  60.557  0.00  0.00    +0.000 C 
ENDROOT
BRANCH   1   3
ATOM      2  O   UNL     1      15.932  13.611  60.246  0.00  0.00    +0.000 OA
ATOM      3  C   UNL     1      15.836  12.396  61.020  0.00  0.00    +0.000 C 
ATOM      4  C   UNL     1      14.435  11.762  60.881  0.00  0.00    +0.000 C 
ATOM      5  C   UNL     1      13.344  12.778  61.242  0.00  0.00    +0.000 C 
ATOM      6  C   UNL     1      13.508  14.056  60.408  0.00  0.00    +0.000 C 
ATOM      7  C   UNL     1      14.945  14.604  60.537  0.00  0.00    +0.000 C 
BRANCH   7   8
ATOM      8  S   UNL     1      15.250  15.413  62.162  0.00  0.00    +0.000 S 
ATOM      9  C   UNL     1      15.375  17.124  61.591  0.00  0.00    +0.000 C 
ENDBRANCH   7   8
BRANCH   4  10
ATOM     10  O   UNL     1      14.185  11.323  59.535  0.00  0.00    +0.000 OA
ATOM     11  H   UNL     1      14.608  10.436  59.446  0.00  0.00    +0.000 HD
ENDBRANCH   4  10
BRANCH   5  12
ATOM     12  O   UNL     1      12.060  12.181  61.006  0.00  0.00    +0.000 OA
ATOM     13  H   UNL     1      11.513  12.894  60.619  0.00  0.00    +0.000 HD
ENDBRANCH   5  12
BRANCH   6  14
ATOM     14  O   UNL     1      12.530  15.047  60.754  0.00  0.00    +0.000 OA
ATOM     15  H   UNL     1      11.675  14.739  60.403  0.00  0.00    +0.000 HD
ENDBRANCH   6  14
ENDBRANCH   1   3
BRANCH   1  17
ATOM     16  O   UNL     1      18.866  12.125  58.564  0.00  0.00    +0.000 OA
ATOM     17  N   UNL     1      16.903  11.126  59.126  0.00  0.00    +0.000 N 
ATOM     18  C   UNL     1      17.890  11.462  58.217  0.00  0.00    +0.000 C 
ATOM     19  H   UNL     1      16.060  10.663  58.801  0.00  0.00    +0.000 HD
BRANCH  18  22
ATOM     20  N   UNL     1      18.288  11.829  55.776  0.00  0.00    +0.000 NA
ATOM     21  C   UNL     1      19.031   9.695  55.307  0.00  0.00    +0.000 C 
ATOM     22  C   UNL     1      17.593  10.997  56.778  0.00  0.00    +0.000 C 
ATOM     23  C   UNL     1      18.103   9.573  56.519  0.00  0.00    +0.000 C 
ATOM     24  C   UNL     1      18.537  10.965  54.625  0.00  0.00    +0.000 C 
ATOM     25  C   UNL     1      17.555  13.036  55.425  0.00  0.00    +0.000 C 
BRANCH  21  26
ATOM     26  C   UNL     1      19.025   8.481  54.375  0.00  0.00    +0.000 C 
BRANCH  26  27
ATOM     27  C   UNL     1      18.208   8.725  53.105  0.00  0.00    +0.000 C 
ATOM     28  C   UNL     1      18.418   7.614  52.089  0.00  0.00    +0.000 C 
ENDBRANCH  26  27
ENDBRANCH  21  26
ENDBRANCH  18  22
ENDBRANCH   1  17
BRANCH   1  30
ATOM     29 CL   UNL     1      18.483   9.156  60.934  0.00  0.00    +0.000 Cl
ATOM     30  C   UNL     1      17.068  10.162  61.411  0.00  0.00    +0.000 C 
ATOM     31  C   UNL     1      17.172  10.466  62.904  0.00  0.00    +0.000 C 
ENDBRANCH   1  30
TORSDOF 10
ENDMDL
MODEL 2
REMARK VINA RESULT:      -3.4     12.249     13.754
REMARK  Name = 
REMARK  14 active torsions:
REMARK  status: ('A' for Active; 'I' for Inactive)
REMARK    1  A    between atoms: S_2  and  C_21
REMARK    2  A    between atoms: S_2  and  C_27
REMARK    3  A    between atoms: O_4  and  C_16
REMARK    4  A    between atoms: O_5  and  C_18
REMARK    5  A    between atoms: O_6  and  C_20
REMARK    6  A    between atoms: N_8  and  C_23
REMARK    7  A    between atoms: N_9  and  C_15
REMARK    8  A    between atoms: C_10  and  C_17
REMARK    9  A    between atoms: C_11  and  C_19
REMARK   10  A    between atoms: C_14  and  C_15
REMARK   11  A    between atoms: C_15  and  C_22
REMARK   12  A    between atoms: C_17  and  C_24
REMARK   13  A    between atoms: C_22  and  C_25
REMARK   14  A    between atoms: C_24  and  C_26
REMARK                            x       y       z     vdW  Elec       q    Type
REMARK                         _______ _______ _______ _____ _____    ______ ____
ROOT
ATOM      1  C   UNL     1      16.847   7.534  69.832  0.00  0.00    +0.000 C 
ENDROOT
BRANCH   1   3
ATOM      2  O   UNL     1      16.207   9.634  70.850  0.00  0.00    +0.000 OA
ATOM      3  C   UNL     1      16.016   8.208  70.967  0.00  0.00    +0.000 C 
ATOM      4  C   UNL     1      14.515   7.847  70.929  0.00  0.00    +0.000 C 
ATOM      5  C   UNL     1      13.744   8.634  71.996  0.00  0.00    +0.000 C 
ATOM      6  C   UNL     1      14.001  10.139  71.839  0.00  0.00    +0.000 C 
ATOM      7  C   UNL     1      15.517  10.428  71.818  0.00  0.00    +0.000 C 
BRANCH   7   8
ATOM      8  S   UNL     1      16.287  10.290  73.486  0.00  0.00    +0.000 S 
ATOM      9  C   UNL     1      16.700  12.032  73.735  0.00  0.00    +0.000 C 
ENDBRANCH   7   8
BRANCH   4  10
ATOM     10  O   UNL     1      13.928   8.161  69.655  0.00  0.00    +0.000 OA
ATOM     11  H   UNL     1      14.568   8.748  69.188  0.00  0.00    +0.000 HD
ENDBRANCH   4  10
BRANCH   5  12
ATOM     12  O   UNL     1      12.344   8.344  71.863  0.00  0.00    +0.000 OA
ATOM     13  H   UNL     1      11.897   9.213  71.904  0.00  0.00    +0.000 HD
ENDBRANCH   5  12
BRANCH   6  14
ATOM     14  O   UNL     1      13.330  10.903  72.851  0.00  0.00    +0.000 OA
ATOM     15  H   UNL     1      12.525  11.271  72.445  0.00  0.00    +0.000 HD
ENDBRANCH   6  14
ENDBRANCH   1   3
BRANCH   1  17
ATOM     16  O   UNL     1      15.331   6.295  67.808  0.00  0.00    +0.000 OA
ATOM     17  N   UNL     1      16.559   6.096  69.710  0.00  0.00    +0.000 N 
ATOM     18  C   UNL     1      15.834   5.564  68.660  0.00  0.00    +0.000 C 
ATOM     19  H   UNL     1      16.884   5.485  70.454  0.00  0.00    +0.000 HD
BRANCH  18  22
ATOM     20  N   UNL     1      16.963   3.355  68.968  0.00  0.00    +0.000 NA
ATOM     21  C   UNL     1      15.642   2.625  70.714  0.00  0.00    +0.000 C 
ATOM     22  C   UNL     1      15.674   4.032  68.728  0.00  0.00    +0.000 C 
ATOM     23  C   UNL     1      14.786   3.600  69.902  0.00  0.00    +0.000 C 
ATOM     24  C   UNL     1      16.653   2.123  69.689  0.00  0.00    +0.000 C 
ATOM     25  C   UNL     1      17.722   3.116  67.749  0.00  0.00    +0.000 C 
BRANCH  21  26
ATOM     26  C   UNL     1      14.860   1.490  71.379  0.00  0.00    +0.000 C 
BRANCH  26  27
ATOM     27  C   UNL     1      13.418   1.887  71.701  0.00  0.00    +0.000 C 
ATOM     28  C   UNL     1      13.064   1.566  73.145  0.00  0.00    +0.000 C 
ENDBRANCH  26  27
ENDBRANCH  21  26
ENDBRANCH  18  22
ENDBRANCH   1  17
BRANCH   1  30
ATOM     29 CL   UNL     1      18.852   7.627  71.737  0.00  0.00    +0.000 Cl
ATOM     30  C   UNL     1      18.372   7.770  70.008  0.00  0.00    +0.000 C 
ATOM     31  C   UNL     1      19.202   6.780  69.192  0.00  0.00    +0.000 C 
ENDBRANCH   1  30
TORSDOF 10
ENDMDL
MODEL 3
REMARK VINA RESULT:      -3.4      9.787     12.842
REMARK  Name = 
REMARK  14 active torsions:
REMARK  status: ('A' for Active; 'I' for Inactive)
REMARK    1  A    between atoms: S_2  and  C_21
REMARK    2  A    between atoms: S_2  and  C_27
REMARK    3  A    between atoms: O_4  and  C_16
REMARK    4  A    between atoms: O_5  and  C_18
REMARK    5  A    between atoms: O_6  and  C_20
REMARK    6  A    between atoms: N_8  and  C_23
REMARK    7  A    between atoms: N_9  and  C_15
REMARK    8  A    between atoms: C_10  and  C_17
REMARK    9  A    between atoms: C_11  and  C_19
REMARK   10  A    between atoms: C_14  and  C_15
REMARK   11  A    between atoms: C_15  and  C_22
REMARK   12  A    between atoms: C_17  and  C_24
REMARK   13  A    between atoms: C_22  and  C_25
REMARK   14  A    between atoms: C_24  and  C_26
REMARK                            x       y       z     vdW  Elec       q    Type
REMARK                         _______ _______ _______ _____ _____    ______ ____
ROOT
ATOM      1  C   UNL     1      15.888   6.961  68.618  0.00  0.00    +0.000 C 
ENDROOT
BRANCH   1   3
ATOM      2  O   UNL     1      17.586   6.429  66.977  0.00  0.00    +0.000 OA
ATOM      3  C   UNL     1      17.327   7.284  68.111  0.00  0.00    +0.000 C 
ATOM      4  C   UNL     1      17.531   8.769  67.741  0.00  0.00    +0.000 C 
ATOM      5  C   UNL     1      18.925   8.990  67.143  0.00  0.00    +0.000 C 
ATOM      6  C   UNL     1      19.154   8.042  65.958  0.00  0.00    +0.000 C 
ATOM      7  C   UNL     1      18.873   6.583  66.374  0.00  0.00    +0.000 C 
BRANCH   7   8
ATOM      8  S   UNL     1      20.208   5.876  67.427  0.00  0.00    +0.000 S 
ATOM      9  C   UNL     1      19.493   4.238  67.703  0.00  0.00    +0.000 C 
ENDBRANCH   7   8
BRANCH   4  10
ATOM     10  O   UNL     1      16.570   9.207  66.766  0.00  0.00    +0.000 OA
ATOM     11  H   UNL     1      17.082   9.640  66.042  0.00  0.00    +0.000 HD
ENDBRANCH   4  10
BRANCH   5  12
ATOM     12  O   UNL     1      19.037  10.359  66.724  0.00  0.00    +0.000 OA
ATOM     13  H   UNL     1      18.352  10.473  66.035  0.00  0.00    +0.000 HD
ENDBRANCH   5  12
BRANCH   6  14
ATOM     14  O   UNL     1      20.469   8.190  65.403  0.00  0.00    +0.000 OA
ATOM     15  H   UNL     1      20.493   7.668  64.581  0.00  0.00    +0.000 HD
ENDBRANCH   6  14
ENDBRANCH   1   3
BRANCH   1  17
ATOM     16  O   UNL     1      13.636   8.355  67.663  0.00  0.00    +0.000 OA
ATOM     17  N   UNL     1      15.245   8.123  69.251  0.00  0.00    +0.000 N 
ATOM     18  C   UNL     1      14.116   8.728  68.732  0.00  0.00    +0.000 C 
ATOM     19  H   UNL     1      15.681   8.508  70.084  0.00  0.00    +0.000 HD
BRANCH  18  22
ATOM     20  N   UNL     1      13.846   9.713  71.015  0.00  0.00    +0.000 NA
ATOM     21  C   UNL     1      14.916  11.708  70.569  0.00  0.00    +0.000 C 
ATOM     22  C   UNL     1      13.605   9.915  69.573  0.00  0.00    +0.000 C 
ATOM     23  C   UNL     1      14.346  11.217  69.236  0.00  0.00    +0.000 C 
ATOM     24  C   UNL     1      14.008  11.043  71.596  0.00  0.00    +0.000 C 
ATOM     25  C   UNL     1      12.802   8.938  71.667  0.00  0.00    +0.000 C 
BRANCH  21  26
ATOM     26  C   UNL     1      14.966  13.230  70.719  0.00  0.00    +0.000 C 
BRANCH  26  27
ATOM     27  C   UNL     1      16.399  13.764  70.776  0.00  0.00    +0.000 C 
ATOM     28  C   UNL     1      17.153  13.205  71.972  0.00  0.00    +0.000 C 
ENDBRANCH  26  27
ENDBRANCH  21  26
ENDBRANCH  18  22
ENDBRANCH   1  17
BRANCH   1  30
ATOM     29 CL   UNL     1      15.591   4.209  68.673  0.00  0.00    +0.000 Cl
ATOM     30  C   UNL     1      15.870   5.740  69.579  0.00  0.00    +0.000 C 
ATOM     31  C   UNL     1      17.176   5.608  70.362  0.00  0.00    +0.000 C 
ENDBRANCH   1  30
TORSDOF 10
ENDMDL
MODEL 4
REMARK VINA RESULT:      -3.2     14.785     17.392
REMARK  Name = 
REMARK  14 active torsions:
REMARK  status: ('A' for Active; 'I' for Inactive)
REMARK    1  A    between atoms: S_2  and  C_21
REMARK    2  A    between atoms: S_2  and  C_27
REMARK    3  A    between atoms: O_4  and  C_16
REMARK    4  A    between atoms: O_5  and  C_18
REMARK    5  A    between atoms: O_6  and  C_20
REMARK    6  A    between atoms: N_8  and  C_23
REMARK    7  A    between atoms: N_9  and  C_15
REMARK    8  A    between atoms: C_10  and  C_17
REMARK    9  A    between atoms: C_11  and  C_19
REMARK   10  A    between atoms: C_14  and  C_15
REMARK   11  A    between atoms: C_15  and  C_22
REMARK   12  A    between atoms: C_17  and  C_24
REMARK   13  A    between atoms: C_22  and  C_25
REMARK   14  A    between atoms: C_24  and  C_26
REMARK                            x       y       z     vdW  Elec       q    Type
REMARK                         _______ _______ _______ _____ _____    ______ ____
ROOT
ATOM      1  C   UNL     1       1.421   2.712  63.296  0.00  0.00    +0.000 C 
ENDROOT
BRANCH   1   3
ATOM      2  O   UNL     1       2.559   1.503  65.057  0.00  0.00    +0.000 OA
ATOM      3  C   UNL     1       1.446   2.391  64.823  0.00  0.00    +0.000 C 
ATOM      4  C   UNL     1       1.544   3.648  65.715  0.00  0.00    +0.000 C 
ATOM      5  C   UNL     1       1.682   3.253  67.190  0.00  0.00    +0.000 C 
ATOM      6  C   UNL     1       2.864   2.292  67.377  0.00  0.00    +0.000 C 
ATOM      7  C   UNL     1       2.741   1.092  66.415  0.00  0.00    +0.000 C 
BRANCH   7   8
ATOM      8  S   UNL     1       1.450  -0.110  66.942  0.00  0.00    +0.000 S 
ATOM      9  C   UNL     1       1.900  -1.482  65.853  0.00  0.00    +0.000 C 
ENDBRANCH   7   8
BRANCH   4  10
ATOM     10  O   UNL     1       2.689   4.448  65.375  0.00  0.00    +0.000 OA
ATOM     11  H   UNL     1       3.485   3.902  65.583  0.00  0.00    +0.000 HD
ENDBRANCH   4  10
BRANCH   5  12
ATOM     12  O   UNL     1       1.869   4.442  67.972  0.00  0.00    +0.000 OA
ATOM     13  H   UNL     1       2.356   4.151  68.769  0.00  0.00    +0.000 HD
ENDBRANCH   5  12
BRANCH   6  14
ATOM     14  O   UNL     1       2.993   1.865  68.741  0.00  0.00    +0.000 OA
ATOM     15  H   UNL     1       3.627   1.126  68.751  0.00  0.00    +0.000 HD
ENDBRANCH   6  14
ENDBRANCH   1   3
BRANCH   1  17
ATOM     16  O   UNL     1       3.271   1.545  61.523  0.00  0.00    +0.000 OA
ATOM     17  N   UNL     1       2.683   3.309  62.831  0.00  0.00    +0.000 N 
ATOM     18  C   UNL     1       3.520   2.680  61.928  0.00  0.00    +0.000 C 
ATOM     19  H   UNL     1       2.955   4.205  63.225  0.00  0.00    +0.000 HD
BRANCH  18  22
ATOM     20  N   UNL     1       4.764   3.934  60.158  0.00  0.00    +0.000 NA
ATOM     21  C   UNL     1       4.957   5.915  61.326  0.00  0.00    +0.000 C 
ATOM     22  C   UNL     1       4.775   3.500  61.569  0.00  0.00    +0.000 C 
ATOM     23  C   UNL     1       4.857   4.804  62.374  0.00  0.00    +0.000 C 
ATOM     24  C   UNL     1       5.512   5.187  60.108  0.00  0.00    +0.000 C 
ATOM     25  C   UNL     1       5.289   2.929  59.246  0.00  0.00    +0.000 C 
BRANCH  21  26
ATOM     26  C   UNL     1       5.815   7.111  61.744  0.00  0.00    +0.000 C 
BRANCH  26  27
ATOM     27  C   UNL     1       5.070   8.066  62.678  0.00  0.00    +0.000 C 
ATOM     28  C   UNL     1       5.847   9.355  62.889  0.00  0.00    +0.000 C 
ENDBRANCH  26  27
ENDBRANCH  21  26
ENDBRANCH  18  22
ENDBRANCH   1  17
BRANCH   1  30
ATOM     29 CL   UNL     1       0.768   5.280  62.497  0.00  0.00    +0.000 Cl
ATOM     30  C   UNL     1       0.218   3.617  62.911  0.00  0.00    +0.000 C 
ATOM     31  C   UNL     1      -0.563   3.056  61.723  0.00  0.00    +0.000 C 
ENDBRANCH   1  30
TORSDOF 10
ENDMDL
MODEL 5
REMARK VINA RESULT:      -3.2      3.588      4.665
REMARK  Name = 
REMARK  14 active torsions:
REMARK  status: ('A' for Active; 'I' for Inactive)
REMARK    1  A    between atoms: S_2  and  C_21
REMARK    2  A    between atoms: S_2  and  C_27
REMARK    3  A    between atoms: O_4  and  C_16
REMARK    4  A    between atoms: O_5  and  C_18
REMARK    5  A    between atoms: O_6  and  C_20
REMARK    6  A    between atoms: N_8  and  C_23
REMARK    7  A    between atoms: N_9  and  C_15
REMARK    8  A    between atoms: C_10  and  C_17
REMARK    9  A    between atoms: C_11  and  C_19
REMARK   10  A    between atoms: C_14  and  C_15
REMARK   11  A    between atoms: C_15  and  C_22
REMARK   12  A    between atoms: C_17  and  C_24
REMARK   13  A    between atoms: C_22  and  C_25
REMARK   14  A    between atoms: C_24  and  C_26
REMARK                            x       y       z     vdW  Elec       q    Type
REMARK                         _______ _______ _______ _____ _____    ______ ____
ROOT
ATOM      1  C   UNL     1      20.032  10.371  57.917  0.00  0.00    +0.000 C 
ENDROOT
BRANCH   1   3
ATOM      2  O   UNL     1      19.665  11.197  60.162  0.00  0.00    +0.000 OA
ATOM      3  C   UNL     1      19.391  10.068  59.306  0.00  0.00    +0.000 C 
ATOM      4  C   UNL     1      17.876   9.782  59.236  0.00  0.00    +0.000 C 
ATOM      5  C   UNL     1      17.293   9.609  60.644  0.00  0.00    +0.000 C 
ATOM      6  C   UNL     1      17.633  10.826  61.515  0.00  0.00    +0.000 C 
ATOM      7  C   UNL     1      19.152  11.098  61.493  0.00  0.00    +0.000 C 
BRANCH   7   8
ATOM      8  S   UNL     1      20.103   9.886  62.502  0.00  0.00    +0.000 S 
ATOM      9  C   UNL     1      21.636  10.830  62.679  0.00  0.00    +0.000 C 
ENDBRANCH   7   8
BRANCH   4  10
ATOM     10  O   UNL     1      17.164  10.860  58.606  0.00  0.00    +0.000 OA
ATOM     11  H   UNL     1      16.685  10.469  57.837  0.00  0.00    +0.000 HD
ENDBRANCH   4  10
BRANCH   5  12
ATOM     12  O   UNL     1      15.871   9.444  60.539  0.00  0.00    +0.000 OA
ATOM     13  H   UNL     1      15.488  10.231  60.977  0.00  0.00    +0.000 HD
ENDBRANCH   5  12
BRANCH   6  14
ATOM     14  O   UNL     1      17.142  10.676  62.855  0.00  0.00    +0.000 OA
ATOM     15  H   UNL     1      17.880  10.338  63.394  0.00  0.00    +0.000 HD
ENDBRANCH   6  14
ENDBRANCH   1   3
BRANCH   1  17
ATOM     16  O   UNL     1      19.350  11.794  55.585  0.00  0.00    +0.000 OA
ATOM     17  N   UNL     1      19.207   9.880  56.803  0.00  0.00    +0.000 N 
ATOM     18  C   UNL     1      18.949  10.635  55.673  0.00  0.00    +0.000 C 
ATOM     19  H   UNL     1      18.787   8.960  56.896  0.00  0.00    +0.000 HD
BRANCH  18  22
ATOM     20  N   UNL     1      18.145  10.566  53.307  0.00  0.00    +0.000 NA
ATOM     21  C   UNL     1      18.814   8.403  52.863  0.00  0.00    +0.000 C 
ATOM     22  C   UNL     1      18.079   9.911  54.627  0.00  0.00    +0.000 C 
ATOM     23  C   UNL     1      18.564   8.477  54.371  0.00  0.00    +0.000 C 
ATOM     24  C   UNL     1      17.930   9.517  52.314  0.00  0.00    +0.000 C 
ATOM     25  C   UNL     1      17.207  11.671  53.168  0.00  0.00    +0.000 C 
BRANCH  21  26
ATOM     26  C   UNL     1      18.514   7.043  52.232  0.00  0.00    +0.000 C 
BRANCH  26  27
ATOM     27  C   UNL     1      17.954   7.168  50.813  0.00  0.00    +0.000 C 
ATOM     28  C   UNL     1      17.876   5.814  50.126  0.00  0.00    +0.000 C 
ENDBRANCH  26  27
ENDBRANCH  21  26
ENDBRANCH  18  22
ENDBRANCH   1  17
BRANCH   1  30
ATOM     29 CL   UNL     1      21.517   8.304  56.829  0.00  0.00    +0.000 Cl
ATOM     30  C   UNL     1      21.478   9.814  57.809  0.00  0.00    +0.000 C 
ATOM     31  C   UNL     1      22.436  10.824  57.178  0.00  0.00    +0.000 C 
ENDBRANCH   1  30
TORSDOF 10
ENDMDL
MODEL 6
REMARK VINA RESULT:      -3.2     12.057     14.164
REMARK  Name = 
REMARK  14 active torsions:
REMARK  status: ('A' for Active; 'I' for Inactive)
REMARK    1  A    between atoms: S_2  and  C_21
REMARK    2  A    between atoms: S_2  and  C_27
REMARK    3  A    between atoms: O_4  and  C_16
REMARK    4  A    between atoms: O_5  and  C_18
REMARK    5  A    between atoms: O_6  and  C_20
REMARK    6  A    between atoms: N_8  and  C_23
REMARK    7  A    between atoms: N_9  and  C_15
REMARK    8  A    between atoms: C_10  and  C_17
REMARK    9  A    between atoms: C_11  and  C_19
REMARK   10  A    between atoms: C_14  and  C_15
REMARK   11  A    between atoms: C_15  and  C_22
REMARK   12  A    between atoms: C_17  and  C_24
REMARK   13  A    between atoms: C_22  and  C_25
REMARK   14  A    between atoms: C_24  and  C_26
REMARK                            x       y       z     vdW  Elec       q    Type
REMARK                         _______ _______ _______ _____ _____    ______ ____
ROOT
ATOM      1  C   UNL     1      15.481   7.827  69.878  0.00  0.00    +0.000 C 
ENDROOT
BRANCH   1   3
ATOM      2  O   UNL     1      13.437   8.815  70.717  0.00  0.00    +0.000 OA
ATOM      3  C   UNL     1      14.741   8.365  71.141  0.00  0.00    +0.000 C 
ATOM      4  C   UNL     1      14.625   7.325  72.276  0.00  0.00    +0.000 C 
ATOM      5  C   UNL     1      13.788   7.881  73.434  0.00  0.00    +0.000 C 
ATOM      6  C   UNL     1      12.424   8.364  72.923  0.00  0.00    +0.000 C 
ATOM      7  C   UNL     1      12.606   9.349  71.750  0.00  0.00    +0.000 C 
BRANCH   7   8
ATOM      8  S   UNL     1      13.186  11.008  72.301  0.00  0.00    +0.000 S 
ATOM      9  C   UNL     1      11.706  11.961  71.888  0.00  0.00    +0.000 C 
ENDBRANCH   7   8
BRANCH   4  10
ATOM     10  O   UNL     1      13.985   6.119  71.824  0.00  0.00    +0.000 OA
ATOM     11  H   UNL     1      13.014   6.289  71.854  0.00  0.00    +0.000 HD
ENDBRANCH   4  10
BRANCH   5  12
ATOM     12  O   UNL     1      13.622   6.852  74.422  0.00  0.00    +0.000 OA
ATOM     13  H   UNL     1      14.389   6.256  74.302  0.00  0.00    +0.000 HD
ENDBRANCH   5  12
BRANCH   6  14
ATOM     14  O   UNL     1      11.632   8.934  73.976  0.00  0.00    +0.000 OA
ATOM     15  H   UNL     1      11.721   9.902  73.909  0.00  0.00    +0.000 HD
ENDBRANCH   6  14
ENDBRANCH   1   3
BRANCH   1  17
ATOM     16  O   UNL     1      15.475   5.933  67.794  0.00  0.00    +0.000 OA
ATOM     17  N   UNL     1      15.816   6.399  69.993  0.00  0.00    +0.000 N 
ATOM     18  C   UNL     1      15.823   5.542  68.907  0.00  0.00    +0.000 C 
ATOM     19  H   UNL     1      16.014   6.034  70.920  0.00  0.00    +0.000 HD
BRANCH  18  22
ATOM     20  N   UNL     1      17.155   4.046  70.403  0.00  0.00    +0.000 NA
ATOM     21  C   UNL     1      15.393   2.726  71.094  0.00  0.00    +0.000 C 
ATOM     22  C   UNL     1      16.223   4.096  69.260  0.00  0.00    +0.000 C 
ATOM     23  C   UNL     1      15.016   3.261  69.710  0.00  0.00    +0.000 C 
ATOM     24  C   UNL     1      16.916   2.772  71.075  0.00  0.00    +0.000 C 
ATOM     25  C   UNL     1      18.547   4.225  70.016  0.00  0.00    +0.000 C 
BRANCH  21  26
ATOM     26  C   UNL     1      14.846   1.333  71.411  0.00  0.00    +0.000 C 
BRANCH  26  27
ATOM     27  C   UNL     1      13.483   1.386  72.105  0.00  0.00    +0.000 C 
ATOM     28  C   UNL     1      12.486   0.450  71.441  0.00  0.00    +0.000 C 
ENDBRANCH  26  27
ENDBRANCH  21  26
ENDBRANCH  18  22
ENDBRANCH   1  17
BRANCH   1  30
ATOM     29 CL   UNL     1      16.783   9.133  67.813  0.00  0.00    +0.000 Cl
ATOM     30  C   UNL     1      16.752   8.658  69.549  0.00  0.00    +0.000 C 
ATOM     31  C   UNL     1      16.842   9.925  70.399  0.00  0.00    +0.000 C 
ENDBRANCH   1  30
TORSDOF 10
ENDMDL
MODEL 7
REMARK VINA RESULT:      -3.2     14.600     18.198
REMARK  Name = 
REMARK  14 active torsions:
REMARK  status: ('A' for Active; 'I' for Inactive)
REMARK    1  A    between atoms: S_2  and  C_21
REMARK    2  A    between atoms: S_2  and  C_27
REMARK    3  A    between atoms: O_4  and  C_16
REMARK    4  A    between atoms: O_5  and  C_18
REMARK    5  A    between atoms: O_6  and  C_20
REMARK    6  A    between atoms: N_8  and  C_23
REMARK    7  A    between atoms: N_9  and  C_15
REMARK    8  A    between atoms: C_10  and  C_17
REMARK    9  A    between atoms: C_11  and  C_19
REMARK   10  A    between atoms: C_14  and  C_15
REMARK   11  A    between atoms: C_15  and  C_22
REMARK   12  A    between atoms: C_17  and  C_24
REMARK   13  A    between atoms: C_22  and  C_25
REMARK   14  A    between atoms: C_24  and  C_26
REMARK                            x       y       z     vdW  Elec       q    Type
REMARK                         _______ _______ _______ _____ _____    ______ ____
ROOT
ATOM      1  C   UNL     1       2.357   7.257  64.685  0.00  0.00    +0.000 C 
ENDROOT
BRANCH   1   3
ATOM      2  O   UNL     1       4.204   8.028  63.325  0.00  0.00    +0.000 OA
ATOM      3  C   UNL     1       3.048   7.164  63.290  0.00  0.00    +0.000 C 
ATOM      4  C   UNL     1       3.446   5.726  62.894  0.00  0.00    +0.000 C 
ATOM      5  C   UNL     1       4.222   5.724  61.571  0.00  0.00    +0.000 C 
ATOM      6  C   UNL     1       5.423   6.675  61.657  0.00  0.00    +0.000 C 
ATOM      7  C   UNL     1       4.971   8.076  62.119  0.00  0.00    +0.000 C 
BRANCH   7   8
ATOM      8  S   UNL     1       4.100   9.012  60.794  0.00  0.00    +0.000 S 
ATOM      9  C   UNL     1       5.307  10.338  60.563  0.00  0.00    +0.000 C 
ENDBRANCH   7   8
BRANCH   4  10
ATOM     10  O   UNL     1       4.289   5.118  63.887  0.00  0.00    +0.000 OA
ATOM     11  H   UNL     1       5.099   4.810  63.417  0.00  0.00    +0.000 HD
ENDBRANCH   4  10
BRANCH   5  12
ATOM     12  O   UNL     1       4.656   4.385  61.290  0.00  0.00    +0.000 OA
ATOM     13  H   UNL     1       4.742   4.343  60.316  0.00  0.00    +0.000 HD
ENDBRANCH   5  12
BRANCH   6  14
ATOM     14  O   UNL     1       6.146   6.734  60.418  0.00  0.00    +0.000 OA
ATOM     15  H   UNL     1       5.975   7.610  60.029  0.00  0.00    +0.000 HD
ENDBRANCH   6  14
ENDBRANCH   1   3
BRANCH   1  17
ATOM     16  O   UNL     1       2.413   6.241  67.310  0.00  0.00    +0.000 OA
ATOM     17  N   UNL     1       1.827   5.959  65.132  0.00  0.00    +0.000 N 
ATOM     18  C   UNL     1       1.863   5.551  66.453  0.00  0.00    +0.000 C 
ATOM     19  H   UNL     1       1.454   5.332  64.425  0.00  0.00    +0.000 HD
BRANCH  18  22
ATOM     20  N   UNL     1       2.091   3.309  67.535  0.00  0.00    +0.000 NA
ATOM     21  C   UNL     1       0.096   3.371  68.693  0.00  0.00    +0.000 C 
ATOM     22  C   UNL     1       1.233   4.165  66.692  0.00  0.00    +0.000 C 
ATOM     23  C   UNL     1      -0.091   4.262  67.462  0.00  0.00    +0.000 C 
ATOM     24  C   UNL     1       1.194   2.409  68.256  0.00  0.00    +0.000 C 
ATOM     25  C   UNL     1       3.110   2.598  66.779  0.00  0.00    +0.000 C 
BRANCH  21  26
ATOM     26  C   UNL     1      -1.172   2.652  69.158  0.00  0.00    +0.000 C 
BRANCH  26  27
ATOM     27  C   UNL     1      -1.734   3.238  70.455  0.00  0.00    +0.000 C 
ATOM     28  C   UNL     1      -2.928   4.140  70.185  0.00  0.00    +0.000 C 
ENDBRANCH  26  27
ENDBRANCH  21  26
ENDBRANCH  18  22
ENDBRANCH   1  17
BRANCH   1  30
ATOM     29 CL   UNL     1      -0.388   7.580  64.839  0.00  0.00    +0.000 Cl
ATOM     30  C   UNL     1       1.240   8.337  64.710  0.00  0.00    +0.000 C 
ATOM     31  C   UNL     1       1.414   9.311  65.874  0.00  0.00    +0.000 C 
ENDBRANCH   1  30
TORSDOF 10
ENDMDL
MODEL 8
REMARK VINA RESULT:      -3.1      3.206      7.262
REMARK  Name = 
REMARK  14 active torsions:
REMARK  status: ('A' for Active; 'I' for Inactive)
REMARK    1  A    between atoms: S_2  and  C_21
REMARK    2  A    between atoms: S_2  and  C_27
REMARK    3  A    between atoms: O_4  and  C_16
REMARK    4  A    between atoms: O_5  and  C_18
REMARK    5  A    between atoms: O_6  and  C_20
REMARK    6  A    between atoms: N_8  and  C_23
REMARK    7  A    between atoms: N_9  and  C_15
REMARK    8  A    between atoms: C_10  and  C_17
REMARK    9  A    between atoms: C_11  and  C_19
REMARK   10  A    between atoms: C_14  and  C_15
REMARK   11  A    between atoms: C_15  and  C_22
REMARK   12  A    between atoms: C_17  and  C_24
REMARK   13  A    between atoms: C_22  and  C_25
REMARK   14  A    between atoms: C_24  and  C_26
REMARK                            x       y       z     vdW  Elec       q    Type
REMARK                         _______ _______ _______ _____ _____    ______ ____
ROOT
ATOM      1  C   UNL     1      17.303  11.374  58.337  0.00  0.00    +0.000 C 
ENDROOT
BRANCH   1   3
ATOM      2  O   UNL     1      17.026  10.839  55.993  0.00  0.00    +0.000 OA
ATOM      3  C   UNL     1      16.975  11.943  56.922  0.00  0.00    +0.000 C 
ATOM      4  C   UNL     1      15.611  12.663  56.849  0.00  0.00    +0.000 C 
ATOM      5  C   UNL     1      15.303  13.091  55.409  0.00  0.00    +0.000 C 
ATOM      6  C   UNL     1      15.395  11.886  54.463  0.00  0.00    +0.000 C 
ATOM      7  C   UNL     1      16.752  11.172  54.629  0.00  0.00    +0.000 C 
BRANCH   7   8
ATOM      8  S   UNL     1      18.142  12.104  53.862  0.00  0.00    +0.000 S 
ATOM      9  C   UNL     1      18.476  10.995  52.474  0.00  0.00    +0.000 C 
ENDBRANCH   7   8
BRANCH   4  10
ATOM     10  O   UNL     1      14.539  11.810  57.282  0.00  0.00    +0.000 OA
ATOM     11  H   UNL     1      13.898  12.386  57.763  0.00  0.00    +0.000 HD
ENDBRANCH   4  10
BRANCH   5  12
ATOM     12  O   UNL     1      13.989  13.668  55.369  0.00  0.00    +0.000 OA
ATOM     13  H   UNL     1      13.640  13.575  56.278  0.00  0.00    +0.000 HD
ENDBRANCH   5  12
BRANCH   6  14
ATOM     14  O   UNL     1      15.157  12.261  53.098  0.00  0.00    +0.000 OA
ATOM     15  H   UNL     1      14.366  12.830  53.092  0.00  0.00    +0.000 HD
ENDBRANCH   6  14
ENDBRANCH   1   3
BRANCH   1  17
ATOM     16  O   UNL     1      16.147   9.917  60.451  0.00  0.00    +0.000 OA
ATOM     17  N   UNL     1      16.402  11.902  59.373  0.00  0.00    +0.000 N 
ATOM     18  C   UNL     1      15.906  11.122  60.401  0.00  0.00    +0.000 C 
ATOM     19  H   UNL     1      16.113  12.873  59.298  0.00  0.00    +0.000 HD
BRANCH  18  22
ATOM     20  N   UNL     1      15.548  13.219  61.715  0.00  0.00    +0.000 NA
ATOM     21  C   UNL     1      13.455  13.705  60.873  0.00  0.00    +0.000 C 
ATOM     22  C   UNL     1      14.998  11.891  61.382  0.00  0.00    +0.000 C 
ATOM     23  C   UNL     1      13.619  12.186  60.775  0.00  0.00    +0.000 C 
ATOM     24  C   UNL     1      14.403  14.078  62.006  0.00  0.00    +0.000 C 
ATOM     25  C   UNL     1      16.514  13.182  62.804  0.00  0.00    +0.000 C 
BRANCH  21  26
ATOM     26  C   UNL     1      12.022  14.177  61.120  0.00  0.00    +0.000 C 
BRANCH  26  27
ATOM     27  C   UNL     1      11.501  13.767  62.499  0.00  0.00    +0.000 C 
ATOM     28  C   UNL     1      10.335  12.798  62.387  0.00  0.00    +0.000 C 
ENDBRANCH  26  27
ENDBRANCH  21  26
ENDBRANCH  18  22
ENDBRANCH   1  17
BRANCH   1  30
ATOM     29 CL   UNL     1      18.919  12.902  59.984  0.00  0.00    +0.000 Cl
ATOM     30  C   UNL     1      18.786  11.616  58.732  0.00  0.00    +0.000 C 
ATOM     31  C   UNL     1      19.449  10.348  59.269  0.00  0.00    +0.000 C 
ENDBRANCH   1  30
TORSDOF 10
ENDMDL
MODEL 9
REMARK VINA RESULT:      -3.1     11.224     13.924
REMARK  Name = 
REMARK  14 active torsions:
REMARK  status: ('A' for Active; 'I' for Inactive)
REMARK    1  A    between atoms: S_2  and  C_21
REMARK    2  A    between atoms: S_2  and  C_27
REMARK    3  A    between atoms: O_4  and  C_16
REMARK    4  A    between atoms: O_5  and  C_18
REMARK    5  A    between atoms: O_6  and  C_20
REMARK    6  A    between atoms: N_8  and  C_23
REMARK    7  A    between atoms: N_9  and  C_15
REMARK    8  A    between atoms: C_10  and  C_17
REMARK    9  A    between atoms: C_11  and  C_19
REMARK   10  A    between atoms: C_14  and  C_15
REMARK   11  A    between atoms: C_15  and  C_22
REMARK   12  A    between atoms: C_17  and  C_24
REMARK   13  A    between atoms: C_22  and  C_25
REMARK   14  A    between atoms: C_24  and  C_26
REMARK                            x       y       z     vdW  Elec       q    Type
REMARK                         _______ _______ _______ _____ _____    ______ ____
ROOT
ATOM      1  C   UNL     1       6.917   4.927  52.631  0.00  0.00    +0.000 C 
ENDROOT
BRANCH   1   3
ATOM      2  O   UNL     1       8.162   5.517  50.641  0.00  0.00    +0.000 OA
ATOM      3  C   UNL     1       8.203   5.618  52.080  0.00  0.00    +0.000 C 
ATOM      4  C   UNL     1       8.351   7.088  52.528  0.00  0.00    +0.000 C 
ATOM      5  C   UNL     1       9.569   7.736  51.858  0.00  0.00    +0.000 C 
ATOM      6  C   UNL     1       9.486   7.579  50.333  0.00  0.00    +0.000 C 
ATOM      7  C   UNL     1       9.273   6.099  49.954  0.00  0.00    +0.000 C 
BRANCH   7   8
ATOM      8  S   UNL     1      10.801   5.091  50.152  0.00  0.00    +0.000 S 
ATOM      9  C   UNL     1      11.166   4.810  48.403  0.00  0.00    +0.000 C 
ENDBRANCH   7   8
BRANCH   4  10
ATOM     10  O   UNL     1       7.198   7.869  52.169  0.00  0.00    +0.000 OA
ATOM     11  H   UNL     1       7.197   7.931  51.184  0.00  0.00    +0.000 HD
ENDBRANCH   4  10
BRANCH   5  12
ATOM     12  O   UNL     1       9.614   9.124  52.222  0.00  0.00    +0.000 OA
ATOM     13  H   UNL     1       9.209   9.600  51.469  0.00  0.00    +0.000 HD
ENDBRANCH   5  12
BRANCH   6  14
ATOM     14  O   UNL     1      10.635   8.135  49.677  0.00  0.00    +0.000 OA
ATOM     15  H   UNL     1      11.421   7.804  50.148  0.00  0.00    +0.000 HD
ENDBRANCH   6  14
ENDBRANCH   1   3
BRANCH   1  17
ATOM     16  O   UNL     1       4.849   6.492  53.729  0.00  0.00    +0.000 OA
ATOM     17  N   UNL     1       6.698   5.211  54.058  0.00  0.00    +0.000 N 
ATOM     18  C   UNL     1       5.632   5.963  54.516  0.00  0.00    +0.000 C 
ATOM     19  H   UNL     1       7.386   4.864  54.719  0.00  0.00    +0.000 HD
BRANCH  18  22
ATOM     20  N   UNL     1       5.636   4.806  56.733  0.00  0.00    +0.000 NA
ATOM     21  C   UNL     1       7.450   5.929  57.613  0.00  0.00    +0.000 C 
ATOM     22  C   UNL     1       5.592   6.113  56.050  0.00  0.00    +0.000 C 
ATOM     23  C   UNL     1       6.817   6.869  56.584  0.00  0.00    +0.000 C 
ATOM     24  C   UNL     1       6.285   5.035  58.021  0.00  0.00    +0.000 C 
ATOM     25  C   UNL     1       4.327   4.184  56.865  0.00  0.00    +0.000 C 
BRANCH  21  26
ATOM     26  C   UNL     1       8.101   6.633  58.805  0.00  0.00    +0.000 C 
BRANCH  26  27
ATOM     27  C   UNL     1       7.116   7.520  59.569  0.00  0.00    +0.000 C 
ATOM     28  C   UNL     1       7.841   8.550  60.420  0.00  0.00    +0.000 C 
ENDBRANCH  26  27
ENDBRANCH  21  26
ENDBRANCH  18  22
ENDBRANCH   1  17
BRANCH   1  30
ATOM     29 CL   UNL     1       6.811   2.483  53.925  0.00  0.00    +0.000 Cl
ATOM     30  C   UNL     1       6.925   3.395  52.377  0.00  0.00    +0.000 C 
ATOM     31  C   UNL     1       5.774   2.958  51.472  0.00  0.00    +0.000 C 
ENDBRANCH   1  30
TORSDOF 10
ENDMDL
