MODEL 1
REMARK VINA RESULT:      -4.3      0.000      0.000
REMARK  Name = 
REMARK  5 active torsions:
REMARK  status: ('A' for Active; 'I' for Inactive)
REMARK    1  A    between atoms: O_5  and  C_10
REMARK    2  A    between atoms: N_9  and  C_20
REMARK    3  A    between atoms: N_9  and  C_25
REMARK    4  A    between atoms: C_10  and  C_11
REMARK    5  A    between atoms: C_18  and  C_19
REMARK                            x       y       z     vdW  Elec       q    Type
REMARK                         _______ _______ _______ _____ _____    ______ ____
ROOT
ATOM      1  F   UNL     1       3.088   9.283  78.095  0.00  0.00    +0.000 F 
ATOM      2  F   UNL     1       0.449   9.792  77.844  0.00  0.00    +0.000 F 
ATOM      3  C   UNL     1       2.607   8.638  74.546  0.00  0.00    +0.000 A 
ATOM      4  C   UNL     1       3.284   8.758  75.780  0.00  0.00    +0.000 A 
ATOM      5  C   UNL     1       1.230   8.890  74.426  0.00  0.00    +0.000 A 
ATOM      6  C   UNL     1       2.522   9.162  76.885  0.00  0.00    +0.000 A 
ATOM      7  C   UNL     1       0.503   9.280  75.547  0.00  0.00    +0.000 A 
ATOM      8  C   UNL     1       1.154   9.413  76.767  0.00  0.00    +0.000 A 
ENDROOT
BRANCH   3  14
ATOM      9  O   UNL     1       3.887   7.141  73.293  0.00  0.00    +0.000 OA
ATOM     10  N   UNL     1       3.488   9.202  72.349  0.00  0.00    +0.000 N 
ATOM     11  C   UNL     1       4.927  10.577  71.720  0.00  0.00    +0.000 C 
ATOM     12  C   UNL     1       3.583  10.653  72.500  0.00  0.00    +0.000 C 
ATOM     13  C   UNL     1       4.458   9.166  71.256  0.00  0.00    +0.000 C 
ATOM     14  C   UNL     1       3.367   8.251  73.338  0.00  0.00    +0.000 C 
BRANCH  11  16
ATOM     15  N   UNL     1       7.384  10.915  71.719  0.00  0.00    +0.000 NA
ATOM     16  C   UNL     1       6.228  10.521  72.565  0.00  0.00    +0.000 C 
ATOM     17  C   UNL     1       6.151  11.455  73.785  0.00  0.00    +0.000 C 
ATOM     18  C   UNL     1       7.449  11.409  74.592  0.00  0.00    +0.000 C 
ATOM     19  C   UNL     1       8.636  10.747  72.470  0.00  0.00    +0.000 C 
ATOM     20  C   UNL     1       8.664  11.648  73.703  0.00  0.00    +0.000 C 
ATOM     21  H   UNL     1       7.294  11.913  71.512  0.00  0.00    +0.000 HD
ENDBRANCH  11  16
BRANCH  11  22
ATOM     22  O   UNL     1       5.068  11.554  70.648  0.00  0.00    +0.000 OA
ATOM     23  H   UNL     1       4.322  12.162  70.804  0.00  0.00    +0.000 HD
ENDBRANCH  11  22
ENDBRANCH   3  14
BRANCH   4  24
ATOM     24  N   UNL     1       4.681   8.555  75.840  0.00  0.00    +0.000 N 
ATOM     25  H   UNL     1       5.225   9.419  75.732  0.00  0.00    +0.000 HD
BRANCH  24  28
ATOM     26  I   UNL     1       8.396   3.791  77.630  0.00  0.00    +0.000 I 
ATOM     27  F   UNL     1       7.278   8.937  76.620  0.00  0.00    +0.000 F 
ATOM     28  C   UNL     1       5.465   7.457  76.239  0.00  0.00    +0.000 A 
ATOM     29  C   UNL     1       6.801   7.682  76.620  0.00  0.00    +0.000 A 
ATOM     30  C   UNL     1       5.006   6.137  76.255  0.00  0.00    +0.000 A 
ATOM     31  C   UNL     1       7.648   6.651  77.015  0.00  0.00    +0.000 A 
ATOM     32  C   UNL     1       5.846   5.087  76.650  0.00  0.00    +0.000 A 
ATOM     33  C   UNL     1       7.162   5.349  77.031  0.00  0.00    +0.000 A 
ENDBRANCH  24  28
ENDBRANCH   4  24
TORSDOF 5
ENDMDL
MODEL 2
REMARK VINA RESULT:      -4.2     13.386     16.746
REMARK  Name = 
REMARK  5 active torsions:
REMARK  status: ('A' for Active; 'I' for Inactive)
REMARK    1  A    between atoms: O_5  and  C_10
REMARK    2  A    between atoms: N_9  and  C_20
REMARK    3  A    between atoms: N_9  and  C_25
REMARK    4  A    between atoms: C_10  and  C_11
REMARK    5  A    between atoms: C_18  and  C_19
REMARK                            x       y       z     vdW  Elec       q    Type
REMARK                         _______ _______ _______ _____ _____    ______ ____
ROOT
ATOM      1  F   UNL     1      18.822   2.598  63.780  0.00  0.00    +0.000 F 
ATOM      2  F   UNL     1      17.154   0.537  64.286  0.00  0.00    +0.000 F 
ATOM      3  C   UNL     1      17.905   3.298  67.232  0.00  0.00    +0.000 A 
ATOM      4  C   UNL     1      18.540   3.465  65.981  0.00  0.00    +0.000 A 
ATOM      5  C   UNL     1      17.026   2.230  67.483  0.00  0.00    +0.000 A 
ATOM      6  C   UNL     1      18.270   2.501  64.999  0.00  0.00    +0.000 A 
ATOM      7  C   UNL     1      16.774   1.297  66.481  0.00  0.00    +0.000 A 
ATOM      8  C   UNL     1      17.398   1.440  65.247  0.00  0.00    +0.000 A 
ENDROOT
BRANCH   3  14
ATOM      9  O   UNL     1      19.127   4.055  69.070  0.00  0.00    +0.000 OA
ATOM     10  N   UNL     1      17.307   5.319  68.447  0.00  0.00    +0.000 N 
ATOM     11  C   UNL     1      15.669   5.809  69.644  0.00  0.00    +0.000 C 
ATOM     12  C   UNL     1      15.871   5.341  68.175  0.00  0.00    +0.000 C 
ATOM     13  C   UNL     1      17.183   6.174  69.627  0.00  0.00    +0.000 C 
ATOM     14  C   UNL     1      18.181   4.263  68.318  0.00  0.00    +0.000 C 
BRANCH  11  16
ATOM     15  N   UNL     1      14.442   5.281  71.734  0.00  0.00    +0.000 NA
ATOM     16  C   UNL     1      15.335   4.714  70.692  0.00  0.00    +0.000 C 
ATOM     17  C   UNL     1      14.647   3.500  70.042  0.00  0.00    +0.000 C 
ATOM     18  C   UNL     1      14.301   2.441  71.089  0.00  0.00    +0.000 C 
ATOM     19  C   UNL     1      14.219   4.293  72.798  0.00  0.00    +0.000 C 
ATOM     20  C   UNL     1      13.525   3.046  72.253  0.00  0.00    +0.000 C 
ATOM     21  H   UNL     1      13.533   5.463  71.302  0.00  0.00    +0.000 HD
ENDBRANCH  11  16
BRANCH  11  22
ATOM     22  O   UNL     1      14.771   6.946  69.806  0.00  0.00    +0.000 OA
ATOM     23  H   UNL     1      14.037   6.574  70.330  0.00  0.00    +0.000 HD
ENDBRANCH  11  22
ENDBRANCH   3  14
BRANCH   4  24
ATOM     24  N   UNL     1      19.463   4.517  65.795  0.00  0.00    +0.000 N 
ATOM     25  H   UNL     1      20.433   4.254  66.008  0.00  0.00    +0.000 HD
BRANCH  24  28
ATOM     26  I   UNL     1      19.142  10.047  62.792  0.00  0.00    +0.000 I 
ATOM     27  F   UNL     1      20.383   4.850  63.236  0.00  0.00    +0.000 F 
ATOM     28  C   UNL     1      19.359   5.772  65.166  0.00  0.00    +0.000 A 
ATOM     29  C   UNL     1      19.855   5.917  63.857  0.00  0.00    +0.000 A 
ATOM     30  C   UNL     1      18.815   6.905  65.776  0.00  0.00    +0.000 A 
ATOM     31  C   UNL     1      19.803   7.125  63.169  0.00  0.00    +0.000 A 
ATOM     32  C   UNL     1      18.756   8.130  65.098  0.00  0.00    +0.000 A 
ATOM     33  C   UNL     1      19.247   8.234  63.797  0.00  0.00    +0.000 A 
ENDBRANCH  24  28
ENDBRANCH   4  24
TORSDOF 5
ENDMDL
MODEL 3
REMARK VINA RESULT:      -4.0     19.733     23.160
REMARK  Name = 
REMARK  5 active torsions:
REMARK  status: ('A' for Active; 'I' for Inactive)
REMARK    1  A    between atoms: O_5  and  C_10
REMARK    2  A    between atoms: N_9  and  C_20
REMARK    3  A    between atoms: N_9  and  C_25
REMARK    4  A    between atoms: C_10  and  C_11
REMARK    5  A    between atoms: C_18  and  C_19
REMARK                            x       y       z     vdW  Elec       q    Type
REMARK                         _______ _______ _______ _____ _____    ______ ____
ROOT
ATOM      1  F   UNL     1      16.693  14.438  54.464  0.00  0.00    +0.000 F 
ATOM      2  F   UNL     1      18.361  14.776  52.368  0.00  0.00    +0.000 F 
ATOM      3  C   UNL     1      18.255  11.155  54.302  0.00  0.00    +0.000 A 
ATOM      4  C   UNL     1      17.410  12.187  54.768  0.00  0.00    +0.000 A 
ATOM      5  C   UNL     1      19.110  11.334  53.201  0.00  0.00    +0.000 A 
ATOM      6  C   UNL     1      17.476  13.414  54.093  0.00  0.00    +0.000 A 
ATOM      7  C   UNL     1      19.141  12.564  52.548  0.00  0.00    +0.000 A 
ATOM      8  C   UNL     1      18.324  13.593  52.999  0.00  0.00    +0.000 A 
ENDROOT
BRANCH   3  14
ATOM      9  O   UNL     1      17.339   9.064  54.786  0.00  0.00    +0.000 OA
ATOM     10  N   UNL     1      19.276   9.626  55.895  0.00  0.00    +0.000 N 
ATOM     11  C   UNL     1      19.540   9.718  57.964  0.00  0.00    +0.000 C 
ATOM     12  C   UNL     1      19.956  10.598  56.751  0.00  0.00    +0.000 C 
ATOM     13  C   UNL     1      19.284   8.587  56.923  0.00  0.00    +0.000 C 
ATOM     14  C   UNL     1      18.256   9.850  54.998  0.00  0.00    +0.000 C 
BRANCH  11  16
ATOM     15  N   UNL     1      18.070   9.251  59.906  0.00  0.00    +0.000 NA
ATOM     16  C   UNL     1      18.248  10.128  58.720  0.00  0.00    +0.000 C 
ATOM     17  C   UNL     1      18.305  11.595  59.180  0.00  0.00    +0.000 C 
ATOM     18  C   UNL     1      17.038  11.978  59.947  0.00  0.00    +0.000 C 
ATOM     19  C   UNL     1      16.788   9.545  60.561  0.00  0.00    +0.000 C 
ATOM     20  C   UNL     1      16.748  10.986  61.068  0.00  0.00    +0.000 C 
ATOM     21  H   UNL     1      18.807   9.479  60.578  0.00  0.00    +0.000 HD
ENDBRANCH  11  16
BRANCH  11  22
ATOM     22  O   UNL     1      20.610   9.439  58.914  0.00  0.00    +0.000 OA
ATOM     23  H   UNL     1      20.257   9.793  59.752  0.00  0.00    +0.000 HD
ENDBRANCH  11  22
ENDBRANCH   3  14
BRANCH   4  24
ATOM     24  N   UNL     1      16.615  11.982  55.916  0.00  0.00    +0.000 N 
ATOM     25  H   UNL     1      17.153  11.692  56.741  0.00  0.00    +0.000 HD
BRANCH  24  28
ATOM     26  I   UNL     1      10.564  13.321  57.054  0.00  0.00    +0.000 I 
ATOM     27  F   UNL     1      14.571  10.870  54.470  0.00  0.00    +0.000 F 
ATOM     28  C   UNL     1      15.279  12.308  56.218  0.00  0.00    +0.000 A 
ATOM     29  C   UNL     1      14.252  11.733  55.447  0.00  0.00    +0.000 A 
ATOM     30  C   UNL     1      14.904  13.199  57.227  0.00  0.00    +0.000 A 
ATOM     31  C   UNL     1      12.906  12.012  55.671  0.00  0.00    +0.000 A 
ATOM     32  C   UNL     1      13.554  13.492  57.464  0.00  0.00    +0.000 A 
ATOM     33  C   UNL     1      12.562  12.895  56.687  0.00  0.00    +0.000 A 
ENDBRANCH  24  28
ENDBRANCH   4  24
TORSDOF 5
ENDMDL
MODEL 4
REMARK VINA RESULT:      -3.8     24.143     26.432
REMARK  Name = 
REMARK  5 active torsions:
REMARK  status: ('A' for Active; 'I' for Inactive)
REMARK    1  A    between atoms: O_5  and  C_10
REMARK    2  A    between atoms: N_9  and  C_20
REMARK    3  A    between atoms: N_9  and  C_25
REMARK    4  A    between atoms: C_10  and  C_11
REMARK    5  A    between atoms: C_18  and  C_19
REMARK                            x       y       z     vdW  Elec       q    Type
REMARK                         _______ _______ _______ _____ _____    ______ ____
ROOT
ATOM      1  F   UNL     1      18.395  -0.883  57.123  0.00  0.00    +0.000 F 
ATOM      2  F   UNL     1      16.310  -1.671  58.646  0.00  0.00    +0.000 F 
ATOM      3  C   UNL     1      15.888  -1.524  54.564  0.00  0.00    +0.000 A 
ATOM      4  C   UNL     1      17.131  -1.153  55.122  0.00  0.00    +0.000 A 
ATOM      5  C   UNL     1      14.811  -1.948  55.363  0.00  0.00    +0.000 A 
ATOM      6  C   UNL     1      17.241  -1.205  56.518  0.00  0.00    +0.000 A 
ATOM      7  C   UNL     1      14.960  -1.996  56.747  0.00  0.00    +0.000 A 
ATOM      8  C   UNL     1      16.173  -1.625  57.313  0.00  0.00    +0.000 A 
ENDROOT
BRANCH   3  14
ATOM      9  O   UNL     1      16.144  -2.359  52.400  0.00  0.00    +0.000 OA
ATOM     10  N   UNL     1      15.078  -0.329  52.606  0.00  0.00    +0.000 N 
ATOM     11  C   UNL     1      15.653   1.470  51.717  0.00  0.00    +0.000 C 
ATOM     12  C   UNL     1      15.143   1.037  53.121  0.00  0.00    +0.000 C 
ATOM     13  C   UNL     1      15.100   0.105  51.210  0.00  0.00    +0.000 C 
ATOM     14  C   UNL     1      15.701  -1.454  53.099  0.00  0.00    +0.000 C 
BRANCH  11  16
ATOM     15  N   UNL     1      17.485   2.150  50.190  0.00  0.00    +0.000 NA
ATOM     16  C   UNL     1      17.190   1.590  51.534  0.00  0.00    +0.000 C 
ATOM     17  C   UNL     1      17.819   2.495  52.608  0.00  0.00    +0.000 C 
ATOM     18  C   UNL     1      19.328   2.625  52.399  0.00  0.00    +0.000 C 
ATOM     19  C   UNL     1      18.936   2.153  49.954  0.00  0.00    +0.000 C 
ATOM     20  C   UNL     1      19.656   3.039  50.969  0.00  0.00    +0.000 C 
ATOM     21  H   UNL     1      17.181   3.127  50.184  0.00  0.00    +0.000 HD
ENDBRANCH  11  16
BRANCH  11  22
ATOM     22  O   UNL     1      14.990   2.641  51.158  0.00  0.00    +0.000 OA
ATOM     23  H   UNL     1      15.567   2.885  50.411  0.00  0.00    +0.000 HD
ENDBRANCH  11  22
ENDBRANCH   3  14
BRANCH   4  24
ATOM     24  N   UNL     1      18.163  -0.674  54.285  0.00  0.00    +0.000 N 
ATOM     25  H   UNL     1      17.873   0.103  53.680  0.00  0.00    +0.000 HD
BRANCH  24  28
ATOM     26  I   UNL     1      24.421  -1.406  54.311  0.00  0.00    +0.000 I 
ATOM     27  F   UNL     1      19.851   1.190  55.370  0.00  0.00    +0.000 F 
ATOM     28  C   UNL     1      19.554  -0.891  54.273  0.00  0.00    +0.000 A 
ATOM     29  C   UNL     1      20.397   0.092  54.823  0.00  0.00    +0.000 A 
ATOM     30  C   UNL     1      20.161  -2.020  53.716  0.00  0.00    +0.000 A 
ATOM     31  C   UNL     1      21.783  -0.038  54.840  0.00  0.00    +0.000 A 
ATOM     32  C   UNL     1      21.555  -2.166  53.724  0.00  0.00    +0.000 A 
ATOM     33  C   UNL     1      22.359  -1.176  54.288  0.00  0.00    +0.000 A 
ENDBRANCH  24  28
ENDBRANCH   4  24
TORSDOF 5
ENDMDL
MODEL 5
REMARK VINA RESULT:      -3.8     16.749     18.773
REMARK  Name = 
REMARK  5 active torsions:
REMARK  status: ('A' for Active; 'I' for Inactive)
REMARK    1  A    between atoms: O_5  and  C_10
REMARK    2  A    between atoms: N_9  and  C_20
REMARK    3  A    between atoms: N_9  and  C_25
REMARK    4  A    between atoms: C_10  and  C_11
REMARK    5  A    between atoms: C_18  and  C_19
REMARK                            x       y       z     vdW  Elec       q    Type
REMARK                         _______ _______ _______ _____ _____    ______ ____
ROOT
ATOM      1  F   UNL     1      14.370  15.832  61.066  0.00  0.00    +0.000 F 
ATOM      2  F   UNL     1      15.824  16.308  63.291  0.00  0.00    +0.000 F 
ATOM      3  C   UNL     1      15.914  12.577  61.578  0.00  0.00    +0.000 A 
ATOM      4  C   UNL     1      15.112  13.571  60.975  0.00  0.00    +0.000 A 
ATOM      5  C   UNL     1      16.680  12.837  62.728  0.00  0.00    +0.000 A 
ATOM      6  C   UNL     1      15.095  14.831  61.588  0.00  0.00    +0.000 A 
ATOM      7  C   UNL     1      16.646  14.104  63.304  0.00  0.00    +0.000 A 
ATOM      8  C   UNL     1      15.855  15.091  62.730  0.00  0.00    +0.000 A 
ENDROOT
BRANCH   3  14
ATOM      9  O   UNL     1      15.004  10.459  61.217  0.00  0.00    +0.000 OA
ATOM     10  N   UNL     1      17.067  10.870  60.283  0.00  0.00    +0.000 N 
ATOM     11  C   UNL     1      18.820   9.790  60.622  0.00  0.00    +0.000 C 
ATOM     12  C   UNL     1      18.447  11.295  60.509  0.00  0.00    +0.000 C 
ATOM     13  C   UNL     1      17.454   9.506  59.928  0.00  0.00    +0.000 C 
ATOM     14  C   UNL     1      15.942  11.217  60.998  0.00  0.00    +0.000 C 
BRANCH  11  16
ATOM     15  N   UNL     1      19.718   7.953  62.027  0.00  0.00    +0.000 NA
ATOM     16  C   UNL     1      18.893   9.188  62.051  0.00  0.00    +0.000 C 
ATOM     17  C   UNL     1      19.503  10.184  63.053  0.00  0.00    +0.000 C 
ATOM     18  C   UNL     1      19.593   9.570  64.450  0.00  0.00    +0.000 C 
ATOM     19  C   UNL     1      19.693   7.305  63.346  0.00  0.00    +0.000 C 
ATOM     20  C   UNL     1      20.293   8.215  64.416  0.00  0.00    +0.000 C 
ATOM     21  H   UNL     1      20.687   8.228  61.848  0.00  0.00    +0.000 HD
ENDBRANCH  11  16
BRANCH  11  22
ATOM     22  O   UNL     1      19.990   9.389  59.850  0.00  0.00    +0.000 OA
ATOM     23  H   UNL     1      19.768   8.481  59.571  0.00  0.00    +0.000 HD
ENDBRANCH  11  22
ENDBRANCH   3  14
BRANCH   4  24
ATOM     24  N   UNL     1      14.311  13.246  59.858  0.00  0.00    +0.000 N 
ATOM     25  H   UNL     1      14.853  12.999  59.023  0.00  0.00    +0.000 HD
BRANCH  24  28
ATOM     26  I   UNL     1       8.167  12.130  59.013  0.00  0.00    +0.000 I 
ATOM     27  F   UNL     1      13.090  13.540  57.424  0.00  0.00    +0.000 F 
ATOM     28  C   UNL     1      12.936  12.975  59.722  0.00  0.00    +0.000 A 
ATOM     29  C   UNL     1      12.334  13.150  58.463  0.00  0.00    +0.000 A 
ATOM     30  C   UNL     1      12.115  12.566  60.776  0.00  0.00    +0.000 A 
ATOM     31  C   UNL     1      10.979  12.916  58.245  0.00  0.00    +0.000 A 
ATOM     32  C   UNL     1      10.749  12.327  60.574  0.00  0.00    +0.000 A 
ATOM     33  C   UNL     1      10.188  12.501  59.309  0.00  0.00    +0.000 A 
ENDBRANCH  24  28
ENDBRANCH   4  24
TORSDOF 5
ENDMDL
MODEL 6
REMARK VINA RESULT:      -3.7     21.925     24.315
REMARK  Name = 
REMARK  5 active torsions:
REMARK  status: ('A' for Active; 'I' for Inactive)
REMARK    1  A    between atoms: O_5  and  C_10
REMARK    2  A    between atoms: N_9  and  C_20
REMARK    3  A    between atoms: N_9  and  C_25
REMARK    4  A    between atoms: C_10  and  C_11
REMARK    5  A    between atoms: C_18  and  C_19
REMARK                            x       y       z     vdW  Elec       q    Type
REMARK                         _______ _______ _______ _____ _____    ______ ____
ROOT
ATOM      1  F   UNL     1      18.794  -3.947  55.582  0.00  0.00    +0.000 F 
ATOM      2  F   UNL     1      17.712  -6.345  54.977  0.00  0.00    +0.000 F 
ATOM      3  C   UNL     1      15.301  -3.343  56.404  0.00  0.00    +0.000 A 
ATOM      4  C   UNL     1      16.680  -3.078  56.251  0.00  0.00    +0.000 A 
ATOM      5  C   UNL     1      14.742  -4.590  56.073  0.00  0.00    +0.000 A 
ATOM      6  C   UNL     1      17.477  -4.125  55.770  0.00  0.00    +0.000 A 
ATOM      7  C   UNL     1      15.564  -5.604  55.589  0.00  0.00    +0.000 A 
ATOM      8  C   UNL     1      16.925  -5.364  55.441  0.00  0.00    +0.000 A 
ENDROOT
BRANCH   3  14
ATOM      9  O   UNL     1      14.260  -1.257  56.296  0.00  0.00    +0.000 OA
ATOM     10  N   UNL     1      13.858  -2.517  58.181  0.00  0.00    +0.000 N 
ATOM     11  C   UNL     1      14.238  -1.953  60.154  0.00  0.00    +0.000 C 
ATOM     12  C   UNL     1      14.436  -3.244  59.310  0.00  0.00    +0.000 C 
ATOM     13  C   UNL     1      13.253  -1.497  59.036  0.00  0.00    +0.000 C 
ATOM     14  C   UNL     1      14.415  -2.288  56.942  0.00  0.00    +0.000 C 
BRANCH  11  16
ATOM     15  N   UNL     1      15.314  -0.181  61.515  0.00  0.00    +0.000 NA
ATOM     16  C   UNL     1      15.460  -1.005  60.288  0.00  0.00    +0.000 C 
ATOM     17  C   UNL     1      16.780  -1.792  60.362  0.00  0.00    +0.000 C 
ATOM     18  C   UNL     1      17.972  -0.848  60.520  0.00  0.00    +0.000 C 
ATOM     19  C   UNL     1      16.400   0.807  61.589  0.00  0.00    +0.000 C 
ATOM     20  C   UNL     1      17.762   0.121  61.678  0.00  0.00    +0.000 C 
ATOM     21  H   UNL     1      15.419  -0.800  62.323  0.00  0.00    +0.000 HD
ENDBRANCH  11  16
BRANCH  11  22
ATOM     22  O   UNL     1      13.622  -2.163  61.458  0.00  0.00    +0.000 OA
ATOM     23  H   UNL     1      14.245  -2.770  61.900  0.00  0.00    +0.000 HD
ENDBRANCH  11  22
ENDBRANCH   3  14
BRANCH   4  24
ATOM     24  N   UNL     1      17.206  -1.832  56.656  0.00  0.00    +0.000 N 
ATOM     25  H   UNL     1      17.080  -1.639  57.656  0.00  0.00    +0.000 HD
BRANCH  24  28
ATOM     26  I   UNL     1      21.181   2.284  54.017  0.00  0.00    +0.000 I 
ATOM     27  F   UNL     1      19.675  -1.296  57.713  0.00  0.00    +0.000 F 
ATOM     28  C   UNL     1      18.059  -0.910  56.022  0.00  0.00    +0.000 A 
ATOM     29  C   UNL     1      19.315  -0.643  56.597  0.00  0.00    +0.000 A 
ATOM     30  C   UNL     1      17.724  -0.211  54.858  0.00  0.00    +0.000 A 
ATOM     31  C   UNL     1      20.214   0.263  56.041  0.00  0.00    +0.000 A 
ATOM     32  C   UNL     1      18.616   0.706  54.286  0.00  0.00    +0.000 A 
ATOM     33  C   UNL     1      19.858   0.937  54.879  0.00  0.00    +0.000 A 
ENDBRANCH  24  28
ENDBRANCH   4  24
TORSDOF 5
ENDMDL
MODEL 7
REMARK VINA RESULT:      -3.6     15.393     18.909
REMARK  Name = 
REMARK  5 active torsions:
REMARK  status: ('A' for Active; 'I' for Inactive)
REMARK    1  A    between atoms: O_5  and  C_10
REMARK    2  A    between atoms: N_9  and  C_20
REMARK    3  A    between atoms: N_9  and  C_25
REMARK    4  A    between atoms: C_10  and  C_11
REMARK    5  A    between atoms: C_18  and  C_19
REMARK                            x       y       z     vdW  Elec       q    Type
REMARK                         _______ _______ _______ _____ _____    ______ ____
ROOT
ATOM      1  F   UNL     1      10.776  13.335  57.207  0.00  0.00    +0.000 F 
ATOM      2  F   UNL     1      11.981  12.133  55.111  0.00  0.00    +0.000 F 
ATOM      3  C   UNL     1      14.220  13.218  58.378  0.00  0.00    +0.000 A 
ATOM      4  C   UNL     1      12.835  13.495  58.395  0.00  0.00    +0.000 A 
ATOM      5  C   UNL     1      14.837  12.578  57.289  0.00  0.00    +0.000 A 
ATOM      6  C   UNL     1      12.100  13.121  57.262  0.00  0.00    +0.000 A 
ATOM      7  C   UNL     1      14.073  12.212  56.184  0.00  0.00    +0.000 A 
ATOM      8  C   UNL     1      12.711  12.485  56.179  0.00  0.00    +0.000 A 
ENDROOT
BRANCH   3  14
ATOM      9  O   UNL     1      15.710  14.657  59.452  0.00  0.00    +0.000 OA
ATOM     10  N   UNL     1      15.080  12.770  60.610  0.00  0.00    +0.000 N 
ATOM     11  C   UNL     1      16.349  11.292  61.359  0.00  0.00    +0.000 C 
ATOM     12  C   UNL     1      14.987  11.311  60.609  0.00  0.00    +0.000 C 
ATOM     13  C   UNL     1      16.075  12.792  61.680  0.00  0.00    +0.000 C 
ATOM     14  C   UNL     1      15.054  13.624  59.530  0.00  0.00    +0.000 C 
BRANCH  11  16
ATOM     15  N   UNL     1      18.816  11.038  61.381  0.00  0.00    +0.000 NA
ATOM     16  C   UNL     1      17.624  11.096  60.496  0.00  0.00    +0.000 C 
ATOM     17  C   UNL     1      17.550   9.804  59.663  0.00  0.00    +0.000 C 
ATOM     18  C   UNL     1      18.823   9.610  58.839  0.00  0.00    +0.000 C 
ATOM     19  C   UNL     1      20.041  10.978  60.571  0.00  0.00    +0.000 C 
ATOM     20  C   UNL     1      20.069   9.716  59.711  0.00  0.00    +0.000 C 
ATOM     21  H   UNL     1      18.768  10.166  61.914  0.00  0.00    +0.000 HD
ENDBRANCH  11  16
BRANCH  11  22
ATOM     22  O   UNL     1      16.394  10.419  62.525  0.00  0.00    +0.000 OA
ATOM     23  H   UNL     1      15.599  10.681  63.026  0.00  0.00    +0.000 HD
ENDBRANCH  11  22
ENDBRANCH   3  14
BRANCH   4  24
ATOM     24  N   UNL     1      12.270  14.196  59.482  0.00  0.00    +0.000 N 
ATOM     25  H   UNL     1      12.484  15.200  59.479  0.00  0.00    +0.000 HD
BRANCH  24  28
ATOM     26  I   UNL     1       7.757  12.799  63.652  0.00  0.00    +0.000 I 
ATOM     27  F   UNL     1       9.729  15.197  59.281  0.00  0.00    +0.000 F 
ATOM     28  C   UNL     1      11.297  13.845  60.436  0.00  0.00    +0.000 A 
ATOM     29  C   UNL     1      10.004  14.387  60.315  0.00  0.00    +0.000 A 
ATOM     30  C   UNL     1      11.542  13.005  61.526  0.00  0.00    +0.000 A 
ATOM     31  C   UNL     1       8.987  14.102  61.222  0.00  0.00    +0.000 A 
ATOM     32  C   UNL     1      10.529  12.707  62.448  0.00  0.00    +0.000 A 
ATOM     33  C   UNL     1       9.257  13.255  62.291  0.00  0.00    +0.000 A 
ENDBRANCH  24  28
ENDBRANCH   4  24
TORSDOF 5
ENDMDL
MODEL 8
REMARK VINA RESULT:      -3.5     22.101     24.691
REMARK  Name = 
REMARK  5 active torsions:
REMARK  status: ('A' for Active; 'I' for Inactive)
REMARK    1  A    between atoms: O_5  and  C_10
REMARK    2  A    between atoms: N_9  and  C_20
REMARK    3  A    between atoms: N_9  and  C_25
REMARK    4  A    between atoms: C_10  and  C_11
REMARK    5  A    between atoms: C_18  and  C_19
REMARK                            x       y       z     vdW  Elec       q    Type
REMARK                         _______ _______ _______ _____ _____    ______ ____
ROOT
ATOM      1  F   UNL     1      19.633  -2.971  54.828  0.00  0.00    +0.000 F 
ATOM      2  F   UNL     1      19.041  -5.596  55.039  0.00  0.00    +0.000 F 
ATOM      3  C   UNL     1      17.802  -3.005  57.973  0.00  0.00    +0.000 A 
ATOM      4  C   UNL     1      18.532  -2.481  56.883  0.00  0.00    +0.000 A 
ATOM      5  C   UNL     1      17.485  -4.371  58.068  0.00  0.00    +0.000 A 
ATOM      6  C   UNL     1      18.949  -3.392  55.903  0.00  0.00    +0.000 A 
ATOM      7  C   UNL     1      17.907  -5.245  57.070  0.00  0.00    +0.000 A 
ATOM      8  C   UNL     1      18.635  -4.749  55.995  0.00  0.00    +0.000 A 
ENDROOT
BRANCH   3  14
ATOM      9  O   UNL     1      17.946  -2.145  60.138  0.00  0.00    +0.000 OA
ATOM     10  N   UNL     1      16.289  -1.284  58.792  0.00  0.00    +0.000 N 
ATOM     11  C   UNL     1      14.241  -1.285  59.192  0.00  0.00    +0.000 C 
ATOM     12  C   UNL     1      15.130  -1.569  57.948  0.00  0.00    +0.000 C 
ATOM     13  C   UNL     1      15.493  -0.583  59.798  0.00  0.00    +0.000 C 
ATOM     14  C   UNL     1      17.368  -2.097  59.057  0.00  0.00    +0.000 C 
BRANCH  11  16
ATOM     15  N   UNL     1      13.620  -2.107  61.448  0.00  0.00    +0.000 NA
ATOM     16  C   UNL     1      13.788  -2.511  60.028  0.00  0.00    +0.000 C 
ATOM     17  C   UNL     1      12.461  -3.092  59.508  0.00  0.00    +0.000 C 
ATOM     18  C   UNL     1      12.014  -4.283  60.357  0.00  0.00    +0.000 C 
ATOM     19  C   UNL     1      13.313  -3.285  62.273  0.00  0.00    +0.000 C 
ATOM     20  C   UNL     1      11.999  -3.931  61.840  0.00  0.00    +0.000 C 
ATOM     21  H   UNL     1      12.809  -1.486  61.503  0.00  0.00    +0.000 HD
ENDBRANCH  11  16
BRANCH  11  22
ATOM     22  O   UNL     1      13.108  -0.401  58.946  0.00  0.00    +0.000 OA
ATOM     23  H   UNL     1      12.537  -0.555  59.722  0.00  0.00    +0.000 HD
ENDBRANCH  11  22
ENDBRANCH   3  14
BRANCH   4  24
ATOM     24  N   UNL     1      18.881  -1.113  56.862  0.00  0.00    +0.000 N 
ATOM     25  H   UNL     1      19.279  -0.777  57.747  0.00  0.00    +0.000 HD
BRANCH  24  28
ATOM     26  I   UNL     1      19.219   2.973  52.078  0.00  0.00    +0.000 I 
ATOM     27  F   UNL     1      16.810  -0.734  55.110  0.00  0.00    +0.000 F 
ATOM     28  C   UNL     1      19.005  -0.181  55.815  0.00  0.00    +0.000 A 
ATOM     29  C   UNL     1      17.931  -0.019  54.921  0.00  0.00    +0.000 A 
ATOM     30  C   UNL     1      20.153   0.584  55.585  0.00  0.00    +0.000 A 
ATOM     31  C   UNL     1      17.976   0.871  53.852  0.00  0.00    +0.000 A 
ATOM     32  C   UNL     1      20.215   1.485  54.513  0.00  0.00    +0.000 A 
ATOM     33  C   UNL     1      19.126   1.626  53.654  0.00  0.00    +0.000 A 
ENDBRANCH  24  28
ENDBRANCH   4  24
TORSDOF 5
ENDMDL
MODEL 9
REMARK VINA RESULT:      -3.5     23.270     25.752
REMARK  Name = 
REMARK  5 active torsions:
REMARK  status: ('A' for Active; 'I' for Inactive)
REMARK    1  A    between atoms: O_5  and  C_10
REMARK    2  A    between atoms: N_9  and  C_20
REMARK    3  A    between atoms: N_9  and  C_25
REMARK    4  A    between atoms: C_10  and  C_11
REMARK    5  A    between atoms: C_18  and  C_19
REMARK                            x       y       z     vdW  Elec       q    Type
REMARK                         _______ _______ _______ _____ _____    ______ ____
ROOT
ATOM      1  F   UNL     1      16.069  -1.066  54.937  0.00  0.00    +0.000 F 
ATOM      2  F   UNL     1      16.718   0.817  53.115  0.00  0.00    +0.000 F 
ATOM      3  C   UNL     1      19.412  -0.159  56.056  0.00  0.00    +0.000 A 
ATOM      4  C   UNL     1      18.167  -0.827  56.041  0.00  0.00    +0.000 A 
ATOM      5  C   UNL     1      19.748   0.809  55.095  0.00  0.00    +0.000 A 
ATOM      6  C   UNL     1      17.266  -0.465  55.030  0.00  0.00    +0.000 A 
ATOM      7  C   UNL     1      18.831   1.136  54.099  0.00  0.00    +0.000 A 
ATOM      8  C   UNL     1      17.598   0.496  54.074  0.00  0.00    +0.000 A 
ENDROOT
BRANCH   3  14
ATOM      9  O   UNL     1      20.378   0.196  58.151  0.00  0.00    +0.000 OA
ATOM     10  N   UNL     1      21.295  -1.475  56.858  0.00  0.00    +0.000 N 
ATOM     11  C   UNL     1      23.282  -1.613  56.236  0.00  0.00    +0.000 C 
ATOM     12  C   UNL     1      21.893  -1.836  55.574  0.00  0.00    +0.000 C 
ATOM     13  C   UNL     1      22.533  -1.710  57.599  0.00  0.00    +0.000 C 
ATOM     14  C   UNL     1      20.388  -0.472  57.122  0.00  0.00    +0.000 C 
BRANCH  11  16
ATOM     15  N   UNL     1      25.408  -0.336  56.270  0.00  0.00    +0.000 NA
ATOM     16  C   UNL     1      23.947  -0.227  56.024  0.00  0.00    +0.000 C 
ATOM     17  C   UNL     1      23.713   0.301  54.598  0.00  0.00    +0.000 C 
ATOM     18  C   UNL     1      24.395   1.654  54.395  0.00  0.00    +0.000 C 
ATOM     19  C   UNL     1      26.032   0.992  56.195  0.00  0.00    +0.000 C 
ATOM     20  C   UNL     1      25.863   1.601  54.804  0.00  0.00    +0.000 C 
ATOM     21  H   UNL     1      25.812  -0.897  55.515  0.00  0.00    +0.000 HD
ENDBRANCH  11  16
BRANCH  11  22
ATOM     22  O   UNL     1      24.252  -2.675  55.998  0.00  0.00    +0.000 OA
ATOM     23  H   UNL     1      24.874  -2.575  56.743  0.00  0.00    +0.000 HD
ENDBRANCH  11  22
ENDBRANCH   3  14
BRANCH   4  24
ATOM     24  N   UNL     1      17.849  -1.747  57.063  0.00  0.00    +0.000 N 
ATOM     25  H   UNL     1      18.423  -2.598  57.043  0.00  0.00    +0.000 HD
BRANCH  24  28
ATOM     26  I   UNL     1      14.547  -1.360  62.416  0.00  0.00    +0.000 I 
ATOM     27  F   UNL     1      18.975  -2.214  59.516  0.00  0.00    +0.000 F 
ATOM     28  C   UNL     1      17.068  -1.638  58.230  0.00  0.00    +0.000 A 
ATOM     29  C   UNL     1      17.670  -1.899  59.474  0.00  0.00    +0.000 A 
ATOM     30  C   UNL     1      15.709  -1.312  58.229  0.00  0.00    +0.000 A 
ATOM     31  C   UNL     1      16.968  -1.827  60.673  0.00  0.00    +0.000 A 
ATOM     32  C   UNL     1      14.986  -1.235  59.428  0.00  0.00    +0.000 A 
ATOM     33  C   UNL     1      15.619  -1.490  60.644  0.00  0.00    +0.000 A 
ENDBRANCH  24  28
ENDBRANCH   4  24
TORSDOF 5
ENDMDL
