MODEL 1
REMARK VINA RESULT:      -4.5      0.000      0.000
REMARK  Name = COUMESTROL.pdbqt.pdb
REMARK  2 active torsions:
REMARK  status: ('A' for Active; 'I' for Inactive)
REMARK    1  A    between atoms: C_16  and  O_19
REMARK    2  A    between atoms: C_18  and  O_21
REMARK                            x       y       z     vdW  Elec       q    Type
REMARK                         _______ _______ _______ _____ _____    ______ ____
ROOT
ATOM      1  O   UNL     1      18.154  -0.067  55.219  0.00  0.00    +0.000 OA
ATOM      2  O   UNL     1      17.099   1.968  51.839  0.00  0.00    +0.000 OA
ATOM      3  O   UNL     1      19.154   3.020  51.938  0.00  0.00    +0.000 OA
ATOM      4  C   UNL     1      18.655   1.447  53.617  0.00  0.00    +0.000 A 
ATOM      5  C   UNL     1      17.728   0.562  54.103  0.00  0.00    +0.000 A 
ATOM      6  C   UNL     1      19.761   1.372  54.500  0.00  0.00    +0.000 A 
ATOM      7  C   UNL     1      16.443   0.302  53.527  0.00  0.00    +0.000 A 
ATOM      8  C   UNL     1      19.405   0.428  55.468  0.00  0.00    +0.000 A 
ATOM      9  C   UNL     1      16.153   1.038  52.369  0.00  0.00    +0.000 A 
ATOM     10  C   UNL     1      18.371   2.214  52.425  0.00  0.00    +0.000 A 
ATOM     11  C   UNL     1      21.018   1.990  54.593  0.00  0.00    +0.000 A 
ATOM     12  C   UNL     1      15.512  -0.599  54.030  0.00  0.00    +0.000 A 
ATOM     13  C   UNL     1      20.220   0.050  56.535  0.00  0.00    +0.000 A 
ATOM     14  C   UNL     1      14.944   0.892  51.700  0.00  0.00    +0.000 A 
ATOM     15  C   UNL     1      21.861   1.635  55.651  0.00  0.00    +0.000 A 
ATOM     16  C   UNL     1      21.461   0.688  56.592  0.00  0.00    +0.000 A 
ATOM     17  C   UNL     1      14.294  -0.756  53.368  0.00  0.00    +0.000 A 
ATOM     18  C   UNL     1      14.023  -0.013  52.216  0.00  0.00    +0.000 A 
ENDROOT
BRANCH  16  19
ATOM     19  O   UNL     1      22.337   0.389  57.601  0.00  0.00    +0.000 OA
ATOM     20  H   UNL     1      21.901   0.572  58.451  0.00  0.00    +0.000 HD
ENDBRANCH  16  19
BRANCH  18  21
ATOM     21  O   UNL     1      12.832  -0.162  51.562  0.00  0.00    +0.000 OA
ATOM     22  H   UNL     1      12.634   0.666  51.091  0.00  0.00    +0.000 HD
ENDBRANCH  18  21
TORSDOF 2
ENDMDL
MODEL 2
REMARK VINA RESULT:      -4.4      1.276      6.684
REMARK  Name = COUMESTROL.pdbqt.pdb
REMARK  2 active torsions:
REMARK  status: ('A' for Active; 'I' for Inactive)
REMARK    1  A    between atoms: C_16  and  O_19
REMARK    2  A    between atoms: C_18  and  O_21
REMARK                            x       y       z     vdW  Elec       q    Type
REMARK                         _______ _______ _______ _____ _____    ______ ____
ROOT
ATOM      1  O   UNL     1      17.489   1.573  52.567  0.00  0.00    +0.000 OA
ATOM      2  O   UNL     1      19.365   0.066  55.868  0.00  0.00    +0.000 OA
ATOM      3  O   UNL     1      17.490  -1.236  56.229  0.00  0.00    +0.000 OA
ATOM      4  C   UNL     1      17.478   0.193  54.358  0.00  0.00    +0.000 A 
ATOM      5  C   UNL     1      18.178   1.127  53.640  0.00  0.00    +0.000 A 
ATOM      6  C   UNL     1      16.242   0.034  53.684  0.00  0.00    +0.000 A 
ATOM      7  C   UNL     1      19.491   1.606  53.951  0.00  0.00    +0.000 A 
ATOM      8  C   UNL     1      16.296   0.903  52.590  0.00  0.00    +0.000 A 
ATOM      9  C   UNL     1      20.070   1.043  55.098  0.00  0.00    +0.000 A 
ATOM     10  C   UNL     1      18.060  -0.397  55.542  0.00  0.00    +0.000 A 
ATOM     11  C   UNL     1      15.086  -0.741  53.871  0.00  0.00    +0.000 A 
ATOM     12  C   UNL     1      20.190   2.554  53.214  0.00  0.00    +0.000 A 
ATOM     13  C   UNL     1      15.271   1.058  51.658  0.00  0.00    +0.000 A 
ATOM     14  C   UNL     1      21.340   1.409  55.525  0.00  0.00    +0.000 A 
ATOM     15  C   UNL     1      14.038  -0.611  52.954  0.00  0.00    +0.000 A 
ATOM     16  C   UNL     1      14.139   0.270  51.879  0.00  0.00    +0.000 A 
ATOM     17  C   UNL     1      21.466   2.932  53.631  0.00  0.00    +0.000 A 
ATOM     18  C   UNL     1      22.027   2.359  54.777  0.00  0.00    +0.000 A 
ENDROOT
BRANCH  16  19
ATOM     19  O   UNL     1      13.075   0.346  51.021  0.00  0.00    +0.000 OA
ATOM     20  H   UNL     1      13.417   0.437  50.115  0.00  0.00    +0.000 HD
ENDBRANCH  16  19
BRANCH  18  21
ATOM     21  O   UNL     1      23.276   2.724  55.191  0.00  0.00    +0.000 OA
ATOM     22  H   UNL     1      23.608   3.419  54.595  0.00  0.00    +0.000 HD
ENDBRANCH  18  21
TORSDOF 2
ENDMDL
MODEL 3
REMARK VINA RESULT:      -4.4      9.122     11.097
REMARK  Name = COUMESTROL.pdbqt.pdb
REMARK  2 active torsions:
REMARK  status: ('A' for Active; 'I' for Inactive)
REMARK    1  A    between atoms: C_16  and  O_19
REMARK    2  A    between atoms: C_18  and  O_21
REMARK                            x       y       z     vdW  Elec       q    Type
REMARK                         _______ _______ _______ _____ _____    ______ ____
ROOT
ATOM      1  O   UNL     1      17.952   9.464  57.552  0.00  0.00    +0.000 OA
ATOM      2  O   UNL     1      20.457   9.247  60.771  0.00  0.00    +0.000 OA
ATOM      3  O   UNL     1      22.138   8.634  59.308  0.00  0.00    +0.000 OA
ATOM      4  C   UNL     1      20.007   9.055  58.401  0.00  0.00    +0.000 A 
ATOM      5  C   UNL     1      18.712   9.416  58.668  0.00  0.00    +0.000 A 
ATOM      6  C   UNL     1      20.073   8.858  56.999  0.00  0.00    +0.000 A 
ATOM      7  C   UNL     1      18.180   9.717  59.962  0.00  0.00    +0.000 A 
ATOM      8  C   UNL     1      18.785   9.121  56.522  0.00  0.00    +0.000 A 
ATOM      9  C   UNL     1      19.100   9.621  61.017  0.00  0.00    +0.000 A 
ATOM     10  C   UNL     1      20.967   8.951  59.476  0.00  0.00    +0.000 A 
ATOM     11  C   UNL     1      21.068   8.488  56.080  0.00  0.00    +0.000 A 
ATOM     12  C   UNL     1      16.864  10.083  60.219  0.00  0.00    +0.000 A 
ATOM     13  C   UNL     1      18.412   9.042  55.181  0.00  0.00    +0.000 A 
ATOM     14  C   UNL     1      18.729   9.884  62.329  0.00  0.00    +0.000 A 
ATOM     15  C   UNL     1      20.729   8.399  54.727  0.00  0.00    +0.000 A 
ATOM     16  C   UNL     1      19.431   8.671  54.300  0.00  0.00    +0.000 A 
ATOM     17  C   UNL     1      16.478  10.349  61.532  0.00  0.00    +0.000 A 
ATOM     18  C   UNL     1      17.409  10.249  62.570  0.00  0.00    +0.000 A 
ENDROOT
BRANCH  16  19
ATOM     19  O   UNL     1      19.169   8.564  52.960  0.00  0.00    +0.000 OA
ATOM     20  H   UNL     1      18.207   8.478  52.841  0.00  0.00    +0.000 HD
ENDBRANCH  16  19
BRANCH  18  21
ATOM     21  O   UNL     1      17.038  10.509  63.859  0.00  0.00    +0.000 OA
ATOM     22  H   UNL     1      17.445  11.349  64.133  0.00  0.00    +0.000 HD
ENDBRANCH  18  21
TORSDOF 2
ENDMDL
MODEL 4
REMARK VINA RESULT:      -4.2      2.039      2.986
REMARK  Name = COUMESTROL.pdbqt.pdb
REMARK  2 active torsions:
REMARK  status: ('A' for Active; 'I' for Inactive)
REMARK    1  A    between atoms: C_16  and  O_19
REMARK    2  A    between atoms: C_18  and  O_21
REMARK                            x       y       z     vdW  Elec       q    Type
REMARK                         _______ _______ _______ _____ _____    ______ ____
ROOT
ATOM      1  O   UNL     1      17.269  -0.235  54.836  0.00  0.00    +0.000 OA
ATOM      2  O   UNL     1      19.423   2.606  52.843  0.00  0.00    +0.000 OA
ATOM      3  O   UNL     1      21.124   2.258  54.367  0.00  0.00    +0.000 OA
ATOM      4  C   UNL     1      19.162   0.980  54.616  0.00  0.00    +0.000 A 
ATOM      5  C   UNL     1      17.912   0.713  54.122  0.00  0.00    +0.000 A 
ATOM      6  C   UNL     1      19.324   0.130  55.738  0.00  0.00    +0.000 A 
ATOM      7  C   UNL     1      17.315   1.341  52.982  0.00  0.00    +0.000 A 
ATOM      8  C   UNL     1      18.134  -0.598  55.833  0.00  0.00    +0.000 A 
ATOM      9  C   UNL     1      18.115   2.305  52.351  0.00  0.00    +0.000 A 
ATOM     10  C   UNL     1      19.999   1.971  53.978  0.00  0.00    +0.000 A 
ATOM     11  C   UNL     1      20.335  -0.109  56.683  0.00  0.00    +0.000 A 
ATOM     12  C   UNL     1      16.046   1.061  52.490  0.00  0.00    +0.000 A 
ATOM     13  C   UNL     1      17.874  -1.557  56.811  0.00  0.00    +0.000 A 
ATOM     14  C   UNL     1      17.670   2.998  51.232  0.00  0.00    +0.000 A 
ATOM     15  C   UNL     1      20.108  -1.065  57.678  0.00  0.00    +0.000 A 
ATOM     16  C   UNL     1      18.904  -1.765  57.731  0.00  0.00    +0.000 A 
ATOM     17  C   UNL     1      15.586   1.749  51.368  0.00  0.00    +0.000 A 
ATOM     18  C   UNL     1      16.397   2.706  50.752  0.00  0.00    +0.000 A 
ENDROOT
BRANCH  16  19
ATOM     19  O   UNL     1      18.750  -2.686  58.732  0.00  0.00    +0.000 OA
ATOM     20  H   UNL     1      18.078  -3.332  58.454  0.00  0.00    +0.000 HD
ENDBRANCH  16  19
BRANCH  18  21
ATOM     21  O   UNL     1      15.953   3.384  49.652  0.00  0.00    +0.000 OA
ATOM     22  H   UNL     1      16.600   4.079  49.437  0.00  0.00    +0.000 HD
ENDBRANCH  18  21
TORSDOF 2
ENDMDL
MODEL 5
REMARK VINA RESULT:      -4.2     22.226     24.080
REMARK  Name = COUMESTROL.pdbqt.pdb
REMARK  2 active torsions:
REMARK  status: ('A' for Active; 'I' for Inactive)
REMARK    1  A    between atoms: C_16  and  O_19
REMARK    2  A    between atoms: C_18  and  O_21
REMARK                            x       y       z     vdW  Elec       q    Type
REMARK                         _______ _______ _______ _____ _____    ______ ____
ROOT
ATOM      1  O   UNL     1       8.600   2.162  76.667  0.00  0.00    +0.000 OA
ATOM      2  O   UNL     1      11.872   1.180  74.428  0.00  0.00    +0.000 OA
ATOM      3  O   UNL     1      10.923  -0.904  74.117  0.00  0.00    +0.000 OA
ATOM      4  C   UNL     1       9.729   0.652  75.420  0.00  0.00    +0.000 A 
ATOM      5  C   UNL     1       9.714   1.919  75.942  0.00  0.00    +0.000 A 
ATOM      6  C   UNL     1       8.525   0.042  75.850  0.00  0.00    +0.000 A 
ATOM      7  C   UNL     1      10.736   2.906  75.767  0.00  0.00    +0.000 A 
ATOM      8  C   UNL     1       7.865   1.009  76.614  0.00  0.00    +0.000 A 
ATOM      9  C   UNL     1      11.827   2.495  74.986  0.00  0.00    +0.000 A 
ATOM     10  C   UNL     1      10.845   0.213  74.613  0.00  0.00    +0.000 A 
ATOM     11  C   UNL     1       7.916  -1.213  75.683  0.00  0.00    +0.000 A 
ATOM     12  C   UNL     1      10.708   4.187  76.302  0.00  0.00    +0.000 A 
ATOM     13  C   UNL     1       6.629   0.816  77.231  0.00  0.00    +0.000 A 
ATOM     14  C   UNL     1      12.896   3.344  74.729  0.00  0.00    +0.000 A 
ATOM     15  C   UNL     1       6.677  -1.441  76.289  0.00  0.00    +0.000 A 
ATOM     16  C   UNL     1       6.059  -0.444  77.041  0.00  0.00    +0.000 A 
ATOM     17  C   UNL     1      11.775   5.050  76.052  0.00  0.00    +0.000 A 
ATOM     18  C   UNL     1      12.853   4.623  75.272  0.00  0.00    +0.000 A 
ENDROOT
BRANCH  16  19
ATOM     19  O   UNL     1       4.846  -0.736  77.605  0.00  0.00    +0.000 OA
ATOM     20  H   UNL     1       5.000  -1.093  78.497  0.00  0.00    +0.000 HD
ENDBRANCH  16  19
BRANCH  18  21
ATOM     21  O   UNL     1      13.902   5.464  75.023  0.00  0.00    +0.000 OA
ATOM     22  H   UNL     1      14.665   5.167  75.548  0.00  0.00    +0.000 HD
ENDBRANCH  18  21
TORSDOF 2
ENDMDL
MODEL 6
REMARK VINA RESULT:      -4.2     13.259     14.340
REMARK  Name = COUMESTROL.pdbqt.pdb
REMARK  2 active torsions:
REMARK  status: ('A' for Active; 'I' for Inactive)
REMARK    1  A    between atoms: C_16  and  O_19
REMARK    2  A    between atoms: C_18  and  O_21
REMARK                            x       y       z     vdW  Elec       q    Type
REMARK                         _______ _______ _______ _____ _____    ______ ____
ROOT
ATOM      1  O   UNL     1      13.707  11.679  61.073  0.00  0.00    +0.000 OA
ATOM      2  O   UNL     1      16.366  12.458  58.072  0.00  0.00    +0.000 OA
ATOM      3  O   UNL     1      14.956  14.155  57.384  0.00  0.00    +0.000 OA
ATOM      4  C   UNL     1      14.309  12.898  59.267  0.00  0.00    +0.000 A 
ATOM      5  C   UNL     1      14.636  11.870  60.112  0.00  0.00    +0.000 A 
ATOM      6  C   UNL     1      13.068  13.401  59.733  0.00  0.00    +0.000 A 
ATOM      7  C   UNL     1      15.816  11.063  60.025  0.00  0.00    +0.000 A 
ATOM      8  C   UNL     1      12.740  12.619  60.844  0.00  0.00    +0.000 A 
ATOM      9  C   UNL     1      16.680  11.390  58.969  0.00  0.00    +0.000 A 
ATOM     10  C   UNL     1      15.188  13.248  58.175  0.00  0.00    +0.000 A 
ATOM     11  C   UNL     1      12.187  14.423  59.346  0.00  0.00    +0.000 A 
ATOM     12  C   UNL     1      16.137  10.022  60.888  0.00  0.00    +0.000 A 
ATOM     13  C   UNL     1      11.584  12.783  61.607  0.00  0.00    +0.000 A 
ATOM     14  C   UNL     1      17.864  10.695  58.758  0.00  0.00    +0.000 A 
ATOM     15  C   UNL     1      11.018  14.615  60.088  0.00  0.00    +0.000 A 
ATOM     16  C   UNL     1      10.734  13.809  61.189  0.00  0.00    +0.000 A 
ATOM     17  C   UNL     1      17.322   9.316  60.687  0.00  0.00    +0.000 A 
ATOM     18  C   UNL     1      18.170   9.656  59.630  0.00  0.00    +0.000 A 
ENDROOT
BRANCH  16  19
ATOM     19  O   UNL     1       9.572  14.053  61.870  0.00  0.00    +0.000 OA
ATOM     20  H   UNL     1       9.798  14.314  62.780  0.00  0.00    +0.000 HD
ENDBRANCH  16  19
BRANCH  18  21
ATOM     21  O   UNL     1      19.333   8.968  59.428  0.00  0.00    +0.000 OA
ATOM     22  H   UNL     1      19.861   9.010  60.245  0.00  0.00    +0.000 HD
ENDBRANCH  18  21
TORSDOF 2
ENDMDL
MODEL 7
REMARK VINA RESULT:      -4.1      1.714      6.402
REMARK  Name = COUMESTROL.pdbqt.pdb
REMARK  2 active torsions:
REMARK  status: ('A' for Active; 'I' for Inactive)
REMARK    1  A    between atoms: C_16  and  O_19
REMARK    2  A    between atoms: C_18  and  O_21
REMARK                            x       y       z     vdW  Elec       q    Type
REMARK                         _______ _______ _______ _____ _____    ______ ____
ROOT
ATOM      1  O   UNL     1      19.489   2.567  52.943  0.00  0.00    +0.000 OA
ATOM      2  O   UNL     1      18.030  -0.341  55.411  0.00  0.00    +0.000 OA
ATOM      3  O   UNL     1      16.116  -0.354  54.117  0.00  0.00    +0.000 OA
ATOM      4  C   UNL     1      17.830   1.140  53.509  0.00  0.00    +0.000 A 
ATOM      5  C   UNL     1      19.083   1.611  53.805  0.00  0.00    +0.000 A 
ATOM      6  C   UNL     1      17.408   1.859  52.363  0.00  0.00    +0.000 A 
ATOM      7  C   UNL     1      19.904   1.170  54.892  0.00  0.00    +0.000 A 
ATOM      8  C   UNL     1      18.462   2.724  52.053  0.00  0.00    +0.000 A 
ATOM      9  C   UNL     1      19.335   0.170  55.695  0.00  0.00    +0.000 A 
ATOM     10  C   UNL     1      17.230   0.110  54.326  0.00  0.00    +0.000 A 
ATOM     11  C   UNL     1      16.261   1.880  51.553  0.00  0.00    +0.000 A 
ATOM     12  C   UNL     1      21.173   1.655  55.182  0.00  0.00    +0.000 A 
ATOM     13  C   UNL     1      18.456   3.619  50.983  0.00  0.00    +0.000 A 
ATOM     14  C   UNL     1      20.012  -0.357  56.787  0.00  0.00    +0.000 A 
ATOM     15  C   UNL     1      16.222   2.765  50.471  0.00  0.00    +0.000 A 
ATOM     16  C   UNL     1      17.298   3.608  50.203  0.00  0.00    +0.000 A 
ATOM     17  C   UNL     1      21.864   1.135  56.275  0.00  0.00    +0.000 A 
ATOM     18  C   UNL     1      21.282   0.139  57.064  0.00  0.00    +0.000 A 
ENDROOT
BRANCH  16  19
ATOM     19  O   UNL     1      17.191   4.449  49.127  0.00  0.00    +0.000 OA
ATOM     20  H   UNL     1      18.029   4.934  49.033  0.00  0.00    +0.000 HD
ENDBRANCH  16  19
BRANCH  18  21
ATOM     21  O   UNL     1      21.954  -0.375  58.136  0.00  0.00    +0.000 OA
ATOM     22  H   UNL     1      22.791  -0.757  57.820  0.00  0.00    +0.000 HD
ENDBRANCH  18  21
TORSDOF 2
ENDMDL
MODEL 8
REMARK VINA RESULT:      -4.1     10.317     11.970
REMARK  Name = COUMESTROL.pdbqt.pdb
REMARK  2 active torsions:
REMARK  status: ('A' for Active; 'I' for Inactive)
REMARK    1  A    between atoms: C_16  and  O_19
REMARK    2  A    between atoms: C_18  and  O_21
REMARK                            x       y       z     vdW  Elec       q    Type
REMARK                         _______ _______ _______ _____ _____    ______ ____
ROOT
ATOM      1  O   UNL     1      19.230   8.950  59.185  0.00  0.00    +0.000 OA
ATOM      2  O   UNL     1      16.458  11.444  60.852  0.00  0.00    +0.000 OA
ATOM      3  O   UNL     1      15.899  12.108  58.710  0.00  0.00    +0.000 OA
ATOM      4  C   UNL     1      17.600  10.496  58.941  0.00  0.00    +0.000 A 
ATOM      5  C   UNL     1      18.339   9.745  59.816  0.00  0.00    +0.000 A 
ATOM      6  C   UNL     1      18.061  10.148  57.647  0.00  0.00    +0.000 A 
ATOM      7  C   UNL     1      18.217   9.767  61.243  0.00  0.00    +0.000 A 
ATOM      8  C   UNL     1      19.063   9.194  57.849  0.00  0.00    +0.000 A 
ATOM      9  C   UNL     1      17.245  10.647  61.740  0.00  0.00    +0.000 A 
ATOM     10  C   UNL     1      16.594  11.408  59.437  0.00  0.00    +0.000 A 
ATOM     11  C   UNL     1      17.749  10.526  56.331  0.00  0.00    +0.000 A 
ATOM     12  C   UNL     1      18.974   9.000  62.120  0.00  0.00    +0.000 A 
ATOM     13  C   UNL     1      19.785   8.582  56.825  0.00  0.00    +0.000 A 
ATOM     14  C   UNL     1      17.012  10.777  63.103  0.00  0.00    +0.000 A 
ATOM     15  C   UNL     1      18.454   9.932  55.279  0.00  0.00    +0.000 A 
ATOM     16  C   UNL     1      19.445   8.986  55.532  0.00  0.00    +0.000 A 
ATOM     17  C   UNL     1      18.751   9.120  63.491  0.00  0.00    +0.000 A 
ATOM     18  C   UNL     1      17.778  10.002  63.968  0.00  0.00    +0.000 A 
ENDROOT
BRANCH  16  19
ATOM     19  O   UNL     1      20.095   8.446  54.455  0.00  0.00    +0.000 OA
ATOM     20  H   UNL     1      20.321   9.165  53.840  0.00  0.00    +0.000 HD
ENDBRANCH  16  19
BRANCH  18  21
ATOM     21  O   UNL     1      17.554  10.124  65.311  0.00  0.00    +0.000 OA
ATOM     22  H   UNL     1      18.360   9.853  65.783  0.00  0.00    +0.000 HD
ENDBRANCH  18  21
TORSDOF 2
ENDMDL
MODEL 9
REMARK VINA RESULT:      -4.1      1.839      2.307
REMARK  Name = COUMESTROL.pdbqt.pdb
REMARK  2 active torsions:
REMARK  status: ('A' for Active; 'I' for Inactive)
REMARK    1  A    between atoms: C_16  and  O_19
REMARK    2  A    between atoms: C_18  and  O_21
REMARK                            x       y       z     vdW  Elec       q    Type
REMARK                         _______ _______ _______ _____ _____    ______ ____
ROOT
ATOM      1  O   UNL     1      18.924   0.645  54.511  0.00  0.00    +0.000 OA
ATOM      2  O   UNL     1      15.601   1.569  52.323  0.00  0.00    +0.000 OA
ATOM      3  O   UNL     1      16.845   3.225  51.299  0.00  0.00    +0.000 OA
ATOM      4  C   UNL     1      17.916   1.915  52.936  0.00  0.00    +0.000 A 
ATOM      5  C   UNL     1      17.782   0.885  53.831  0.00  0.00    +0.000 A 
ATOM      6  C   UNL     1      19.254   2.364  53.061  0.00  0.00    +0.000 A 
ATOM      7  C   UNL     1      16.590   0.124  54.053  0.00  0.00    +0.000 A 
ATOM      8  C   UNL     1      19.833   1.552  54.041  0.00  0.00    +0.000 A 
ATOM      9  C   UNL     1      15.493   0.500  53.265  0.00  0.00    +0.000 A 
ATOM     10  C   UNL     1      16.795   2.315  52.117  0.00  0.00    +0.000 A 
ATOM     11  C   UNL     1      20.042   3.359  52.461  0.00  0.00    +0.000 A 
ATOM     12  C   UNL     1      16.468  -0.919  54.964  0.00  0.00    +0.000 A 
ATOM     13  C   UNL     1      21.155   1.661  54.472  0.00  0.00    +0.000 A 
ATOM     14  C   UNL     1      14.268  -0.148  53.370  0.00  0.00    +0.000 A 
ATOM     15  C   UNL     1      21.372   3.496  52.869  0.00  0.00    +0.000 A 
ATOM     16  C   UNL     1      21.904   2.663  53.851  0.00  0.00    +0.000 A 
ATOM     17  C   UNL     1      15.244  -1.578  55.079  0.00  0.00    +0.000 A 
ATOM     18  C   UNL     1      14.161  -1.189  54.286  0.00  0.00    +0.000 A 
ENDROOT
BRANCH  16  19
ATOM     19  O   UNL     1      23.214   2.853  54.203  0.00  0.00    +0.000 OA
ATOM     20  H   UNL     1      23.689   2.013  54.081  0.00  0.00    +0.000 HD
ENDBRANCH  16  19
BRANCH  18  21
ATOM     21  O   UNL     1      12.960  -1.831  54.394  0.00  0.00    +0.000 OA
ATOM     22  H   UNL     1      12.915  -2.254  55.269  0.00  0.00    +0.000 HD
ENDBRANCH  18  21
TORSDOF 2
ENDMDL
