MODEL 1
REMARK VINA RESULT:      -4.9      0.000      0.000
REMARK  Name = CP466722.pdbqt.pdb
REMARK  3 active torsions:
REMARK  status: ('A' for Active; 'I' for Inactive)
REMARK    1  A    between atoms: C_5  and  C_23
REMARK    2  A    between atoms: C_14  and  O_16
REMARK    3  A    between atoms: C_15  and  O_18
REMARK                            x       y       z     vdW  Elec       q    Type
REMARK                         _______ _______ _______ _____ _____    ______ ____
ROOT
ATOM      1  N   UNL     1      16.104   3.642  68.051  0.00  0.00    +0.000 N 
ATOM      2  N   UNL     1      16.241   4.928  67.650  0.00  0.00    +0.000 NA
ATOM      3  N   UNL     1      15.047   4.831  69.586  0.00  0.00    +0.000 NA
ATOM      4  C   UNL     1      15.382   3.614  69.246  0.00  0.00    +0.000 A 
ATOM      5  C   UNL     1      15.589   5.619  68.598  0.00  0.00    +0.000 A 
ATOM      6  C   UNL     1      16.609   2.530  67.297  0.00  0.00    +0.000 A 
ATOM      7  N   UNL     1      16.284   1.288  67.745  0.00  0.00    +0.000 NA
ATOM      8  C   UNL     1      16.737   0.254  67.029  0.00  0.00    +0.000 A 
ATOM      9  N   UNL     1      17.468   0.342  65.914  0.00  0.00    +0.000 NA
ATOM     10  C   UNL     1      17.784   1.564  65.480  0.00  0.00    +0.000 A 
ATOM     11  C   UNL     1      17.386   2.734  66.140  0.00  0.00    +0.000 A 
ATOM     12  C   UNL     1      18.535   1.668  64.317  0.00  0.00    +0.000 A 
ATOM     13  C   UNL     1      17.805   3.978  65.610  0.00  0.00    +0.000 A 
ATOM     14  C   UNL     1      18.589   4.069  64.466  0.00  0.00    +0.000 A 
ATOM     15  C   UNL     1      18.910   2.902  63.782  0.00  0.00    +0.000 A 
ATOM     16  N   UNL     1      15.086   2.497  69.940  0.00  0.00    +0.000 N 
ATOM     17  H   UNL     1      14.366   2.553  70.652  0.00  0.00    +0.000 HD
ATOM     18  H   UNL     1      15.189   1.587  69.494  0.00  0.00    +0.000 HD
ENDROOT
BRANCH   5  19
ATOM     19  C   UNL     1      15.448   7.078  68.599  0.00  0.00    +0.000 A 
ATOM     20  N   UNL     1      14.306   7.610  68.083  0.00  0.00    +0.000 NA
ATOM     21  C   UNL     1      14.200   8.957  68.095  0.00  0.00    +0.000 A 
ATOM     22  C   UNL     1      15.169   9.808  68.596  0.00  0.00    +0.000 A 
ATOM     23  C   UNL     1      16.322   9.237  69.119  0.00  0.00    +0.000 A 
ATOM     24  C   UNL     1      16.472   7.856  69.125  0.00  0.00    +0.000 A 
ENDBRANCH   5  19
BRANCH  14  25
ATOM     25  O   UNL     1      18.930   5.313  64.009  0.00  0.00    +0.000 OA
ATOM     26  C   UNL     1      19.075   6.208  65.082  0.00  0.00    +0.000 C 
ENDBRANCH  14  25
BRANCH  15  27
ATOM     27  O   UNL     1      19.663   2.938  62.640  0.00  0.00    +0.000 OA
ATOM     28  C   UNL     1      19.646   1.682  62.008  0.00  0.00    +0.000 C 
ENDBRANCH  15  27
TORSDOF 3
ENDMDL
MODEL 2
REMARK VINA RESULT:      -4.7      9.035     10.427
REMARK  Name = CP466722.pdbqt.pdb
REMARK  3 active torsions:
REMARK  status: ('A' for Active; 'I' for Inactive)
REMARK    1  A    between atoms: C_5  and  C_23
REMARK    2  A    between atoms: C_14  and  O_16
REMARK    3  A    between atoms: C_15  and  O_18
REMARK                            x       y       z     vdW  Elec       q    Type
REMARK                         _______ _______ _______ _____ _____    ______ ____
ROOT
ATOM      1  N   UNL     1      17.438  10.831  60.576  0.00  0.00    +0.000 N 
ATOM      2  N   UNL     1      16.358  11.001  59.777  0.00  0.00    +0.000 NA
ATOM      3  N   UNL     1      15.932  11.818  61.859  0.00  0.00    +0.000 NA
ATOM      4  C   UNL     1      17.155  11.353  61.840  0.00  0.00    +0.000 A 
ATOM      5  C   UNL     1      15.467  11.597  60.584  0.00  0.00    +0.000 A 
ATOM      6  C   UNL     1      18.636  10.172  60.141  0.00  0.00    +0.000 A 
ATOM      7  N   UNL     1      19.591   9.950  61.083  0.00  0.00    +0.000 NA
ATOM      8  C   UNL     1      20.697   9.315  60.681  0.00  0.00    +0.000 A 
ATOM      9  N   UNL     1      20.934   8.879  59.441  0.00  0.00    +0.000 NA
ATOM     10  C   UNL     1      19.994   9.101  58.520  0.00  0.00    +0.000 A 
ATOM     11  C   UNL     1      18.793   9.765  58.801  0.00  0.00    +0.000 A 
ATOM     12  C   UNL     1      20.225   8.644  57.230  0.00  0.00    +0.000 A 
ATOM     13  C   UNL     1      17.879   9.976  57.741  0.00  0.00    +0.000 A 
ATOM     14  C   UNL     1      18.138   9.547  56.444  0.00  0.00    +0.000 A 
ATOM     15  C   UNL     1      19.300   8.825  56.200  0.00  0.00    +0.000 A 
ATOM     16  N   UNL     1      18.018  11.377  62.874  0.00  0.00    +0.000 N 
ATOM     17  H   UNL     1      17.648  11.552  63.802  0.00  0.00    +0.000 HD
ATOM     18  H   UNL     1      18.858  10.800  62.841  0.00  0.00    +0.000 HD
ENDROOT
BRANCH   5  19
ATOM     19  C   UNL     1      14.114  11.982  60.171  0.00  0.00    +0.000 A 
ATOM     20  N   UNL     1      13.155  12.073  61.132  0.00  0.00    +0.000 NA
ATOM     21  C   UNL     1      11.916  12.428  60.726  0.00  0.00    +0.000 A 
ATOM     22  C   UNL     1      11.577  12.701  59.413  0.00  0.00    +0.000 A 
ATOM     23  C   UNL     1      12.577  12.603  58.455  0.00  0.00    +0.000 A 
ATOM     24  C   UNL     1      13.865  12.239  58.829  0.00  0.00    +0.000 A 
ENDBRANCH   5  19
BRANCH  14  25
ATOM     25  O   UNL     1      17.190   9.772  55.483  0.00  0.00    +0.000 OA
ATOM     26  C   UNL     1      17.244  11.106  55.042  0.00  0.00    +0.000 C 
ENDBRANCH  14  25
BRANCH  15  27
ATOM     27  O   UNL     1      19.593   8.362  54.945  0.00  0.00    +0.000 OA
ATOM     28  C   UNL     1      20.570   9.176  54.344  0.00  0.00    +0.000 C 
ENDBRANCH  15  27
TORSDOF 3
ENDMDL
MODEL 3
REMARK VINA RESULT:      -4.5      9.329     12.328
REMARK  Name = CP466722.pdbqt.pdb
REMARK  3 active torsions:
REMARK  status: ('A' for Active; 'I' for Inactive)
REMARK    1  A    between atoms: C_5  and  C_23
REMARK    2  A    between atoms: C_14  and  O_16
REMARK    3  A    between atoms: C_15  and  O_18
REMARK                            x       y       z     vdW  Elec       q    Type
REMARK                         _______ _______ _______ _____ _____    ______ ____
ROOT
ATOM      1  N   UNL     1      17.988  10.356  59.685  0.00  0.00    +0.000 N 
ATOM      2  N   UNL     1      17.426  10.543  58.468  0.00  0.00    +0.000 NA
ATOM      3  N   UNL     1      19.210   9.138  58.302  0.00  0.00    +0.000 NA
ATOM      4  C   UNL     1      19.069   9.480  59.556  0.00  0.00    +0.000 A 
ATOM      5  C   UNL     1      18.189   9.796  57.656  0.00  0.00    +0.000 A 
ATOM      6  C   UNL     1      17.524  11.016  60.871  0.00  0.00    +0.000 A 
ATOM      7  N   UNL     1      18.263  10.843  61.999  0.00  0.00    +0.000 NA
ATOM      8  C   UNL     1      17.841  11.477  63.098  0.00  0.00    +0.000 A 
ATOM      9  N   UNL     1      16.767  12.268  63.173  0.00  0.00    +0.000 NA
ATOM     10  C   UNL     1      16.045  12.434  62.064  0.00  0.00    +0.000 A 
ATOM     11  C   UNL     1      16.365  11.819  60.846  0.00  0.00    +0.000 A 
ATOM     12  C   UNL     1      14.932  13.261  62.128  0.00  0.00    +0.000 A 
ATOM     13  C   UNL     1      15.512  12.038  59.739  0.00  0.00    +0.000 A 
ATOM     14  C   UNL     1      14.379  12.838  59.825  0.00  0.00    +0.000 A 
ATOM     15  C   UNL     1      14.118  13.500  61.018  0.00  0.00    +0.000 A 
ATOM     16  N   UNL     1      19.839   9.052  60.576  0.00  0.00    +0.000 N 
ATOM     17  H   UNL     1      20.729   8.619  60.354  0.00  0.00    +0.000 HD
ATOM     18  H   UNL     1      19.800   9.537  61.472  0.00  0.00    +0.000 HD
ENDROOT
BRANCH   5  19
ATOM     19  C   UNL     1      17.979   9.679  56.210  0.00  0.00    +0.000 A 
ATOM     20  N   UNL     1      17.123  10.555  55.616  0.00  0.00    +0.000 NA
ATOM     21  C   UNL     1      16.946  10.427  54.282  0.00  0.00    +0.000 A 
ATOM     22  C   UNL     1      17.577   9.474  53.503  0.00  0.00    +0.000 A 
ATOM     23  C   UNL     1      18.447   8.596  54.136  0.00  0.00    +0.000 A 
ATOM     24  C   UNL     1      18.657   8.692  55.506  0.00  0.00    +0.000 A 
ENDBRANCH   5  19
BRANCH  14  25
ATOM     25  O   UNL     1      13.620  13.014  58.699  0.00  0.00    +0.000 OA
ATOM     26  C   UNL     1      14.435  13.359  57.607  0.00  0.00    +0.000 C 
ENDBRANCH  14  25
BRANCH  15  27
ATOM     27  O   UNL     1      13.026  14.315  61.149  0.00  0.00    +0.000 OA
ATOM     28  C   UNL     1      12.280  13.947  62.282  0.00  0.00    +0.000 C 
ENDBRANCH  15  27
TORSDOF 3
ENDMDL
MODEL 4
REMARK VINA RESULT:      -4.4      2.308      4.650
REMARK  Name = CP466722.pdbqt.pdb
REMARK  3 active torsions:
REMARK  status: ('A' for Active; 'I' for Inactive)
REMARK    1  A    between atoms: C_5  and  C_23
REMARK    2  A    between atoms: C_14  and  O_16
REMARK    3  A    between atoms: C_15  and  O_18
REMARK                            x       y       z     vdW  Elec       q    Type
REMARK                         _______ _______ _______ _____ _____    ______ ____
ROOT
ATOM      1  N   UNL     1      16.796   4.565  67.460  0.00  0.00    +0.000 N 
ATOM      2  N   UNL     1      16.247   3.440  67.976  0.00  0.00    +0.000 NA
ATOM      3  N   UNL     1      15.737   5.234  69.283  0.00  0.00    +0.000 NA
ATOM      4  C   UNL     1      16.456   5.650  68.272  0.00  0.00    +0.000 A 
ATOM      5  C   UNL     1      15.618   3.879  69.076  0.00  0.00    +0.000 A 
ATOM      6  C   UNL     1      17.621   4.566  66.286  0.00  0.00    +0.000 A 
ATOM      7  N   UNL     1      18.218   5.742  65.956  0.00  0.00    +0.000 NA
ATOM      8  C   UNL     1      19.005   5.735  64.875  0.00  0.00    +0.000 A 
ATOM      9  N   UNL     1      19.256   4.672  64.105  0.00  0.00    +0.000 NA
ATOM     10  C   UNL     1      18.668   3.520  64.434  0.00  0.00    +0.000 A 
ATOM     11  C   UNL     1      17.809   3.389  65.533  0.00  0.00    +0.000 A 
ATOM     12  C   UNL     1      18.929   2.407  63.647  0.00  0.00    +0.000 A 
ATOM     13  C   UNL     1      17.213   2.128  65.772  0.00  0.00    +0.000 A 
ATOM     14  C   UNL     1      17.452   1.030  64.954  0.00  0.00    +0.000 A 
ATOM     15  C   UNL     1      18.364   1.159  63.913  0.00  0.00    +0.000 A 
ATOM     16  N   UNL     1      16.812   6.928  68.038  0.00  0.00    +0.000 N 
ATOM     17  H   UNL     1      16.725   7.596  68.797  0.00  0.00    +0.000 HD
ATOM     18  H   UNL     1      17.549   7.128  67.363  0.00  0.00    +0.000 HD
ENDROOT
BRANCH   5  19
ATOM     19  C   UNL     1      14.869   3.015  69.994  0.00  0.00    +0.000 A 
ATOM     20  N   UNL     1      14.847   1.678  69.738  0.00  0.00    +0.000 NA
ATOM     21  C   UNL     1      14.150   0.903  70.597  0.00  0.00    +0.000 A 
ATOM     22  C   UNL     1      13.473   1.384  71.703  0.00  0.00    +0.000 A 
ATOM     23  C   UNL     1      13.515   2.752  71.941  0.00  0.00    +0.000 A 
ATOM     24  C   UNL     1      14.219   3.586  71.081  0.00  0.00    +0.000 A 
ENDBRANCH   5  19
BRANCH  14  25
ATOM     25  O   UNL     1      16.851  -0.159  65.270  0.00  0.00    +0.000 OA
ATOM     26  C   UNL     1      15.510  -0.158  64.849  0.00  0.00    +0.000 C 
ENDBRANCH  14  25
BRANCH  15  27
ATOM     27  O   UNL     1      18.650   0.102  63.091  0.00  0.00    +0.000 OA
ATOM     28  C   UNL     1      18.517   0.486  61.745  0.00  0.00    +0.000 C 
ENDBRANCH  15  27
TORSDOF 3
ENDMDL
MODEL 5
REMARK VINA RESULT:      -4.4      9.774     11.552
REMARK  Name = CP466722.pdbqt.pdb
REMARK  3 active torsions:
REMARK  status: ('A' for Active; 'I' for Inactive)
REMARK    1  A    between atoms: C_5  and  C_23
REMARK    2  A    between atoms: C_14  and  O_16
REMARK    3  A    between atoms: C_15  and  O_18
REMARK                            x       y       z     vdW  Elec       q    Type
REMARK                         _______ _______ _______ _____ _____    ______ ____
ROOT
ATOM      1  N   UNL     1      20.761   8.954  58.143  0.00  0.00    +0.000 N 
ATOM      2  N   UNL     1      19.484   9.299  58.431  0.00  0.00    +0.000 NA
ATOM      3  N   UNL     1      20.774   9.427  60.303  0.00  0.00    +0.000 NA
ATOM      4  C   UNL     1      21.531   9.055  59.303  0.00  0.00    +0.000 A 
ATOM      5  C   UNL     1      19.526   9.576  59.743  0.00  0.00    +0.000 A 
ATOM      6  C   UNL     1      21.179   8.522  56.840  0.00  0.00    +0.000 A 
ATOM      7  N   UNL     1      22.459   8.077  56.723  0.00  0.00    +0.000 NA
ATOM      8  C   UNL     1      22.840   7.653  55.514  0.00  0.00    +0.000 A 
ATOM      9  N   UNL     1      22.069   7.624  54.423  0.00  0.00    +0.000 NA
ATOM     10  C   UNL     1      20.814   8.063  54.543  0.00  0.00    +0.000 A 
ATOM     11  C   UNL     1      20.288   8.546  55.749  0.00  0.00    +0.000 A 
ATOM     12  C   UNL     1      20.001   8.028  53.419  0.00  0.00    +0.000 A 
ATOM     13  C   UNL     1      18.954   9.018  55.757  0.00  0.00    +0.000 A 
ATOM     14  C   UNL     1      18.161   9.014  54.615  0.00  0.00    +0.000 A 
ATOM     15  C   UNL     1      18.674   8.462  53.448  0.00  0.00    +0.000 A 
ATOM     16  N   UNL     1      22.855   8.813  59.373  0.00  0.00    +0.000 N 
ATOM     17  H   UNL     1      23.270   8.680  60.288  0.00  0.00    +0.000 HD
ATOM     18  H   UNL     1      23.315   8.318  58.609  0.00  0.00    +0.000 HD
ENDROOT
BRANCH   5  19
ATOM     19  C   UNL     1      18.364   9.995  60.531  0.00  0.00    +0.000 A 
ATOM     20  N   UNL     1      18.580  10.790  61.616  0.00  0.00    +0.000 NA
ATOM     21  C   UNL     1      17.493  11.161  62.327  0.00  0.00    +0.000 A 
ATOM     22  C   UNL     1      16.197  10.788  62.018  0.00  0.00    +0.000 A 
ATOM     23  C   UNL     1      16.007   9.979  60.905  0.00  0.00    +0.000 A 
ATOM     24  C   UNL     1      17.097   9.573  60.146  0.00  0.00    +0.000 A 
ENDBRANCH   5  19
BRANCH  14  25
ATOM     25  O   UNL     1      16.873   9.468  54.716  0.00  0.00    +0.000 OA
ATOM     26  C   UNL     1      16.850  10.761  55.266  0.00  0.00    +0.000 C 
ENDBRANCH  14  25
BRANCH  15  27
ATOM     27  O   UNL     1      17.927   8.415  52.301  0.00  0.00    +0.000 OA
ATOM     28  C   UNL     1      18.243   7.261  51.563  0.00  0.00    +0.000 C 
ENDBRANCH  15  27
TORSDOF 3
ENDMDL
MODEL 6
REMARK VINA RESULT:      -4.4     12.012     15.285
REMARK  Name = CP466722.pdbqt.pdb
REMARK  3 active torsions:
REMARK  status: ('A' for Active; 'I' for Inactive)
REMARK    1  A    between atoms: C_5  and  C_23
REMARK    2  A    between atoms: C_14  and  O_16
REMARK    3  A    between atoms: C_15  and  O_18
REMARK                            x       y       z     vdW  Elec       q    Type
REMARK                         _______ _______ _______ _____ _____    ______ ____
ROOT
ATOM      1  N   UNL     1      17.878   2.133  52.335  0.00  0.00    +0.000 N 
ATOM      2  N   UNL     1      16.587   1.826  52.065  0.00  0.00    +0.000 NA
ATOM      3  N   UNL     1      17.349   3.383  50.589  0.00  0.00    +0.000 NA
ATOM      4  C   UNL     1      18.323   3.077  51.407  0.00  0.00    +0.000 A 
ATOM      5  C   UNL     1      16.299   2.599  51.008  0.00  0.00    +0.000 A 
ATOM      6  C   UNL     1      18.601   1.571  53.440  0.00  0.00    +0.000 A 
ATOM      7  N   UNL     1      19.845   2.068  53.674  0.00  0.00    +0.000 NA
ATOM      8  C   UNL     1      20.508   1.560  54.718  0.00  0.00    +0.000 A 
ATOM      9  N   UNL     1      20.047   0.618  55.547  0.00  0.00    +0.000 NA
ATOM     10  C   UNL     1      18.827   0.134  55.311  0.00  0.00    +0.000 A 
ATOM     11  C   UNL     1      18.027   0.567  54.245  0.00  0.00    +0.000 A 
ATOM     12  C   UNL     1      18.334  -0.837  56.171  0.00  0.00    +0.000 A 
ATOM     13  C   UNL     1      16.760  -0.037  54.068  0.00  0.00    +0.000 A 
ATOM     14  C   UNL     1      16.292  -1.037  54.914  0.00  0.00    +0.000 A 
ATOM     15  C   UNL     1      17.066  -1.400  56.009  0.00  0.00    +0.000 A 
ATOM     16  N   UNL     1      19.570   3.585  51.363  0.00  0.00    +0.000 N 
ATOM     17  H   UNL     1      19.726   4.426  50.817  0.00  0.00    +0.000 HD
ATOM     18  H   UNL     1      20.190   3.463  52.163  0.00  0.00    +0.000 HD
ENDROOT
BRANCH   5  19
ATOM     19  C   UNL     1      14.991   2.631  50.346  0.00  0.00    +0.000 A 
ATOM     20  N   UNL     1      14.509   3.838  49.942  0.00  0.00    +0.000 NA
ATOM     21  C   UNL     1      13.301   3.841  49.335  0.00  0.00    +0.000 A 
ATOM     22  C   UNL     1      12.545   2.706  49.104  0.00  0.00    +0.000 A 
ATOM     23  C   UNL     1      13.064   1.488  49.525  0.00  0.00    +0.000 A 
ATOM     24  C   UNL     1      14.301   1.440  50.154  0.00  0.00    +0.000 A 
ENDBRANCH   5  19
BRANCH  14  25
ATOM     25  O   UNL     1      15.045  -1.552  54.684  0.00  0.00    +0.000 OA
ATOM     26  C   UNL     1      14.162  -0.538  54.276  0.00  0.00    +0.000 C 
ENDBRANCH  14  25
BRANCH  15  27
ATOM     27  O   UNL     1      16.643  -2.365  56.883  0.00  0.00    +0.000 OA
ATOM     28  C   UNL     1      16.325  -1.788  58.125  0.00  0.00    +0.000 C 
ENDBRANCH  15  27
TORSDOF 3
ENDMDL
MODEL 7
REMARK VINA RESULT:      -4.3     12.600     14.529
REMARK  Name = CP466722.pdbqt.pdb
REMARK  3 active torsions:
REMARK  status: ('A' for Active; 'I' for Inactive)
REMARK    1  A    between atoms: C_5  and  C_23
REMARK    2  A    between atoms: C_14  and  O_16
REMARK    3  A    between atoms: C_15  and  O_18
REMARK                            x       y       z     vdW  Elec       q    Type
REMARK                         _______ _______ _______ _____ _____    ______ ____
ROOT
ATOM      1  N   UNL     1      17.269   1.627  53.059  0.00  0.00    +0.000 N 
ATOM      2  N   UNL     1      18.128   2.517  52.510  0.00  0.00    +0.000 NA
ATOM      3  N   UNL     1      16.093   2.662  51.498  0.00  0.00    +0.000 NA
ATOM      4  C   UNL     1      16.027   1.747  52.431  0.00  0.00    +0.000 A 
ATOM      5  C   UNL     1      17.387   3.123  51.570  0.00  0.00    +0.000 A 
ATOM      6  C   UNL     1      17.651   0.706  54.091  0.00  0.00    +0.000 A 
ATOM      7  N   UNL     1      16.727  -0.223  54.457  0.00  0.00    +0.000 NA
ATOM      8  C   UNL     1      17.093  -1.095  55.402  0.00  0.00    +0.000 A 
ATOM      9  N   UNL     1      18.285  -1.132  56.005  0.00  0.00    +0.000 NA
ATOM     10  C   UNL     1      19.187  -0.218  55.642  0.00  0.00    +0.000 A 
ATOM     11  C   UNL     1      18.932   0.763  54.674  0.00  0.00    +0.000 A 
ATOM     12  C   UNL     1      20.432  -0.252  56.255  0.00  0.00    +0.000 A 
ATOM     13  C   UNL     1      19.950   1.704  54.389  0.00  0.00    +0.000 A 
ATOM     14  C   UNL     1      21.180   1.683  55.037  0.00  0.00    +0.000 A 
ATOM     15  C   UNL     1      21.442   0.659  55.939  0.00  0.00    +0.000 A 
ATOM     16  N   UNL     1      14.931   1.031  52.749  0.00  0.00    +0.000 N 
ATOM     17  H   UNL     1      14.160   1.018  52.090  0.00  0.00    +0.000 HD
ATOM     18  H   UNL     1      15.026   0.196  53.326  0.00  0.00    +0.000 HD
ENDROOT
BRANCH   5  19
ATOM     19  C   UNL     1      17.888   4.178  50.684  0.00  0.00    +0.000 A 
ATOM     20  N   UNL     1      16.977   4.987  50.075  0.00  0.00    +0.000 NA
ATOM     21  C   UNL     1      17.463   5.950  49.262  0.00  0.00    +0.000 A 
ATOM     22  C   UNL     1      18.810   6.157  49.021  0.00  0.00    +0.000 A 
ATOM     23  C   UNL     1      19.716   5.319  49.658  0.00  0.00    +0.000 A 
ATOM     24  C   UNL     1      19.258   4.314  50.501  0.00  0.00    +0.000 A 
ENDBRANCH   5  19
BRANCH  14  25
ATOM     25  O   UNL     1      22.116   2.618  54.685  0.00  0.00    +0.000 OA
ATOM     26  C   UNL     1      21.700   3.324  53.543  0.00  0.00    +0.000 C 
ENDBRANCH  14  25
BRANCH  15  27
ATOM     27  O   UNL     1      22.644   0.582  56.588  0.00  0.00    +0.000 OA
ATOM     28  C   UNL     1      23.268  -0.647  56.308  0.00  0.00    +0.000 C 
ENDBRANCH  15  27
TORSDOF 3
ENDMDL
MODEL 8
REMARK VINA RESULT:      -4.2     13.086     14.028
REMARK  Name = CP466722.pdbqt.pdb
REMARK  3 active torsions:
REMARK  status: ('A' for Active; 'I' for Inactive)
REMARK    1  A    between atoms: C_5  and  C_23
REMARK    2  A    between atoms: C_14  and  O_16
REMARK    3  A    between atoms: C_15  and  O_18
REMARK                            x       y       z     vdW  Elec       q    Type
REMARK                         _______ _______ _______ _____ _____    ______ ____
ROOT
ATOM      1  N   UNL     1       2.578   5.036  64.092  0.00  0.00    +0.000 N 
ATOM      2  N   UNL     1       2.812   6.205  64.733  0.00  0.00    +0.000 NA
ATOM      3  N   UNL     1       1.267   4.979  65.872  0.00  0.00    +0.000 NA
ATOM      4  C   UNL     1       1.639   4.299  64.818  0.00  0.00    +0.000 A 
ATOM      5  C   UNL     1       2.003   6.139  65.802  0.00  0.00    +0.000 A 
ATOM      6  C   UNL     1       3.199   4.690  62.845  0.00  0.00    +0.000 A 
ATOM      7  N   UNL     1       2.772   3.547  62.244  0.00  0.00    +0.000 NA
ATOM      8  C   UNL     1       3.335   3.238  61.071  0.00  0.00    +0.000 A 
ATOM      9  N   UNL     1       4.268   3.961  60.445  0.00  0.00    +0.000 NA
ATOM     10  C   UNL     1       4.683   5.081  61.039  0.00  0.00    +0.000 A 
ATOM     11  C   UNL     1       4.187   5.516  62.275  0.00  0.00    +0.000 A 
ATOM     12  C   UNL     1       5.645   5.844  60.392  0.00  0.00    +0.000 A 
ATOM     13  C   UNL     1       4.722   6.703  62.832  0.00  0.00    +0.000 A 
ATOM     14  C   UNL     1       5.712   7.439  62.192  0.00  0.00    +0.000 A 
ATOM     15  C   UNL     1       6.138   7.033  60.933  0.00  0.00    +0.000 A 
ATOM     16  N   UNL     1       1.196   3.072  64.482  0.00  0.00    +0.000 N 
ATOM     17  H   UNL     1       0.354   2.728  64.930  0.00  0.00    +0.000 HD
ATOM     18  H   UNL     1       1.367   2.717  63.542  0.00  0.00    +0.000 HD
ENDROOT
BRANCH   5  19
ATOM     19  C   UNL     1       1.890   7.195  66.812  0.00  0.00    +0.000 A 
ATOM     20  N   UNL     1       1.465   8.424  66.407  0.00  0.00    +0.000 NA
ATOM     21  C   UNL     1       1.370   9.380  67.357  0.00  0.00    +0.000 A 
ATOM     22  C   UNL     1       1.673   9.183  68.692  0.00  0.00    +0.000 A 
ATOM     23  C   UNL     1       2.102   7.919  69.076  0.00  0.00    +0.000 A 
ATOM     24  C   UNL     1       2.215   6.906  68.132  0.00  0.00    +0.000 A 
ENDBRANCH   5  19
BRANCH  14  25
ATOM     25  O   UNL     1       6.157   8.587  62.790  0.00  0.00    +0.000 OA
ATOM     26  C   UNL     1       5.103   9.505  62.938  0.00  0.00    +0.000 C 
ENDBRANCH  14  25
BRANCH  15  27
ATOM     27  O   UNL     1       7.097   7.734  60.253  0.00  0.00    +0.000 OA
ATOM     28  C   UNL     1       7.299   7.169  58.981  0.00  0.00    +0.000 C 
ENDBRANCH  15  27
TORSDOF 3
ENDMDL
MODEL 9
REMARK VINA RESULT:      -4.2     12.752     13.578
REMARK  Name = CP466722.pdbqt.pdb
REMARK  3 active torsions:
REMARK  status: ('A' for Active; 'I' for Inactive)
REMARK    1  A    between atoms: C_5  and  C_23
REMARK    2  A    between atoms: C_14  and  O_16
REMARK    3  A    between atoms: C_15  and  O_18
REMARK                            x       y       z     vdW  Elec       q    Type
REMARK                         _______ _______ _______ _____ _____    ______ ____
ROOT
ATOM      1  N   UNL     1       3.607   1.912  66.183  0.00  0.00    +0.000 N 
ATOM      2  N   UNL     1       3.022   3.125  66.049  0.00  0.00    +0.000 NA
ATOM      3  N   UNL     1       2.589   2.267  68.113  0.00  0.00    +0.000 NA
ATOM      4  C   UNL     1       3.338   1.416  67.461  0.00  0.00    +0.000 A 
ATOM      5  C   UNL     1       2.414   3.308  67.230  0.00  0.00    +0.000 A 
ATOM      6  C   UNL     1       4.338   1.275  65.125  0.00  0.00    +0.000 A 
ATOM      7  N   UNL     1       4.758   0.001  65.350  0.00  0.00    +0.000 NA
ATOM      8  C   UNL     1       5.419  -0.599  64.354  0.00  0.00    +0.000 A 
ATOM      9  N   UNL     1       5.690  -0.055  63.164  0.00  0.00    +0.000 NA
ATOM     10  C   UNL     1       5.276   1.195  62.949  0.00  0.00    +0.000 A 
ATOM     11  C   UNL     1       4.584   1.945  63.910  0.00  0.00    +0.000 A 
ATOM     12  C   UNL     1       5.544   1.767  61.713  0.00  0.00    +0.000 A 
ATOM     13  C   UNL     1       4.220   3.274  63.588  0.00  0.00    +0.000 A 
ATOM     14  C   UNL     1       4.528   3.849  62.361  0.00  0.00    +0.000 A 
ATOM     15  C   UNL     1       5.148   3.067  61.394  0.00  0.00    +0.000 A 
ATOM     16  N   UNL     1       3.792   0.243  67.943  0.00  0.00    +0.000 N 
ATOM     17  H   UNL     1       3.353  -0.134  68.776  0.00  0.00    +0.000 HD
ATOM     18  H   UNL     1       4.175  -0.450  67.300  0.00  0.00    +0.000 HD
ENDROOT
BRANCH   5  19
ATOM     19  C   UNL     1       1.625   4.495  67.573  0.00  0.00    +0.000 A 
ATOM     20  N   UNL     1       2.286   5.670  67.758  0.00  0.00    +0.000 NA
ATOM     21  C   UNL     1       1.537   6.749  68.074  0.00  0.00    +0.000 A 
ATOM     22  C   UNL     1       0.161   6.726  68.214  0.00  0.00    +0.000 A 
ATOM     23  C   UNL     1      -0.487   5.513  68.016  0.00  0.00    +0.000 A 
ATOM     24  C   UNL     1       0.245   4.378  67.691  0.00  0.00    +0.000 A 
ENDBRANCH   5  19
BRANCH  14  25
ATOM     25  O   UNL     1       4.119   5.134  62.124  0.00  0.00    +0.000 OA
ATOM     26  C   UNL     1       4.776   6.026  62.989  0.00  0.00    +0.000 C 
ENDBRANCH  14  25
BRANCH  15  27
ATOM     27  O   UNL     1       5.454   3.579  60.162  0.00  0.00    +0.000 OA
ATOM     28  C   UNL     1       6.526   2.868  59.594  0.00  0.00    +0.000 C 
ENDBRANCH  15  27
TORSDOF 3
ENDMDL
