MODEL 1
REMARK VINA RESULT:      -4.3      0.000      0.000
REMARK  Name = Curcumin.pdbqt.pdb
REMARK  8 active torsions:
REMARK  status: ('A' for Active; 'I' for Inactive)
REMARK    1  A    between atoms: C_2  and  C_4
REMARK    2  A    between atoms: C_5  and  C_6
REMARK    3  A    between atoms: C_8  and  O_12
REMARK    4  A    between atoms: C_9  and  O_14
REMARK    5  A    between atoms: C_16  and  C_18
REMARK    6  A    between atoms: C_19  and  C_20
REMARK    7  A    between atoms: C_22  and  O_26
REMARK    8  A    between atoms: C_23  and  O_28
REMARK                            x       y       z     vdW  Elec       q    Type
REMARK                         _______ _______ _______ _____ _____    ______ ____
ROOT
ATOM      1  C   UNL     1      15.000  11.394  60.220  0.00  0.00    +0.000 C 
ATOM      2  C   UNL     1      16.047  10.575  60.734  0.00  0.00    +0.000 C 
ATOM      3  O   UNL     1      16.037  10.248  61.911  0.00  0.00    +0.000 OA
ATOM      4  C   UNL     1      13.954  12.216  59.709  0.00  0.00    +0.000 C 
ATOM      5  O   UNL     1      14.106  12.800  58.645  0.00  0.00    +0.000 OA
ENDROOT
BRANCH   2   6
ATOM      6  C   UNL     1      17.107  10.136  59.862  0.00  0.00    +0.000 C 
ATOM      7  C   UNL     1      17.989   9.770  59.134  0.00  0.00    +0.000 C 
BRANCH   7   8
ATOM      8  C   UNL     1      19.038   9.338  58.269  0.00  0.00    +0.000 A 
ATOM      9  C   UNL     1      18.786   9.149  56.912  0.00  0.00    +0.000 A 
ATOM     10  C   UNL     1      19.803   8.725  56.049  0.00  0.00    +0.000 A 
ATOM     11  C   UNL     1      21.077   8.494  56.576  0.00  0.00    +0.000 A 
ATOM     12  C   UNL     1      21.332   8.682  57.934  0.00  0.00    +0.000 A 
ATOM     13  C   UNL     1      20.311   9.104  58.782  0.00  0.00    +0.000 A 
BRANCH  10  14
ATOM     14  O   UNL     1      19.630   8.520  54.704  0.00  0.00    +0.000 OA
ATOM     15  C   UNL     1      18.322   8.650  54.224  0.00  0.00    +0.000 C 
ENDBRANCH  10  14
BRANCH  11  16
ATOM     16  O   UNL     1      22.133   8.079  55.813  0.00  0.00    +0.000 OA
ATOM     17  H   UNL     1      22.264   7.120  55.901  0.00  0.00    +0.000 HD
ENDBRANCH  11  16
ENDBRANCH   7   8
ENDBRANCH   2   6
BRANCH   4  18
ATOM     18  C   UNL     1      12.725  12.354  60.448  0.00  0.00    +0.000 C 
ATOM     19  C   UNL     1      11.698  12.466  61.063  0.00  0.00    +0.000 C 
BRANCH  19  20
ATOM     20  C   UNL     1      10.479  12.597  61.788  0.00  0.00    +0.000 A 
ATOM     21  C   UNL     1       9.289  12.122  61.237  0.00  0.00    +0.000 A 
ATOM     22  C   UNL     1       8.084  12.243  61.936  0.00  0.00    +0.000 A 
ATOM     23  C   UNL     1       8.097  12.847  63.196  0.00  0.00    +0.000 A 
ATOM     24  C   UNL     1       9.284  13.323  63.752  0.00  0.00    +0.000 A 
ATOM     25  C   UNL     1      10.476  13.197  63.045  0.00  0.00    +0.000 A 
BRANCH  22  26
ATOM     26  O   UNL     1       6.870  11.803  61.467  0.00  0.00    +0.000 OA
ATOM     27  C   UNL     1       6.715  10.410  61.402  0.00  0.00    +0.000 C 
ENDBRANCH  22  26
BRANCH  23  28
ATOM     28  O   UNL     1       6.928  12.974  63.896  0.00  0.00    +0.000 OA
ATOM     29  H   UNL     1       6.892  12.274  64.572  0.00  0.00    +0.000 HD
ENDBRANCH  23  28
ENDBRANCH  19  20
ENDBRANCH   4  18
TORSDOF 8
ENDMDL
MODEL 2
REMARK VINA RESULT:      -4.1      4.717      8.856
REMARK  Name = Curcumin.pdbqt.pdb
REMARK  8 active torsions:
REMARK  status: ('A' for Active; 'I' for Inactive)
REMARK    1  A    between atoms: C_2  and  C_4
REMARK    2  A    between atoms: C_5  and  C_6
REMARK    3  A    between atoms: C_8  and  O_12
REMARK    4  A    between atoms: C_9  and  O_14
REMARK    5  A    between atoms: C_16  and  C_18
REMARK    6  A    between atoms: C_19  and  C_20
REMARK    7  A    between atoms: C_22  and  O_26
REMARK    8  A    between atoms: C_23  and  O_28
REMARK                            x       y       z     vdW  Elec       q    Type
REMARK                         _______ _______ _______ _____ _____    ______ ____
ROOT
ATOM      1  C   UNL     1       7.560   9.515  60.607  0.00  0.00    +0.000 C 
ATOM      2  C   UNL     1       7.839  10.895  60.822  0.00  0.00    +0.000 C 
ATOM      3  O   UNL     1       7.053  11.579  61.461  0.00  0.00    +0.000 OA
ATOM      4  C   UNL     1       7.278   8.135  60.388  0.00  0.00    +0.000 C 
ATOM      5  O   UNL     1       7.872   7.525  59.511  0.00  0.00    +0.000 OA
ENDROOT
BRANCH   2   6
ATOM      6  C   UNL     1       9.045  11.475  60.289  0.00  0.00    +0.000 C 
ATOM      7  C   UNL     1      10.052  11.958  59.846  0.00  0.00    +0.000 C 
BRANCH   7   8
ATOM      8  C   UNL     1      11.248  12.529  59.319  0.00  0.00    +0.000 A 
ATOM      9  C   UNL     1      12.463  12.321  59.968  0.00  0.00    +0.000 A 
ATOM     10  C   UNL     1      13.645  12.874  59.465  0.00  0.00    +0.000 A 
ATOM     11  C   UNL     1      13.584  13.640  58.297  0.00  0.00    +0.000 A 
ATOM     12  C   UNL     1      12.370  13.850  57.645  0.00  0.00    +0.000 A 
ATOM     13  C   UNL     1      11.200  13.294  58.157  0.00  0.00    +0.000 A 
BRANCH  10  14
ATOM     14  O   UNL     1      14.876  12.711  60.049  0.00  0.00    +0.000 OA
ATOM     15  C   UNL     1      15.208  11.407  60.435  0.00  0.00    +0.000 C 
ENDBRANCH  10  14
BRANCH  11  16
ATOM     16  O   UNL     1      14.685  14.220  57.731  0.00  0.00    +0.000 OA
ATOM     17  H   UNL     1      14.575  14.300  56.768  0.00  0.00    +0.000 HD
ENDBRANCH  11  16
ENDBRANCH   7   8
ENDBRANCH   2   6
BRANCH   4  18
ATOM     18  C   UNL     1       6.294   7.468  61.203  0.00  0.00    +0.000 C 
ATOM     19  C   UNL     1       5.475   6.915  61.887  0.00  0.00    +0.000 C 
BRANCH  19  20
ATOM     20  C   UNL     1       4.505   6.260  62.700  0.00  0.00    +0.000 A 
ATOM     21  C   UNL     1       4.466   4.867  62.749  0.00  0.00    +0.000 A 
ATOM     22  C   UNL     1       3.521   4.210  63.542  0.00  0.00    +0.000 A 
ATOM     23  C   UNL     1       2.618   4.976  64.283  0.00  0.00    +0.000 A 
ATOM     24  C   UNL     1       2.652   6.369  64.237  0.00  0.00    +0.000 A 
ATOM     25  C   UNL     1       3.598   7.011  63.444  0.00  0.00    +0.000 A 
BRANCH  22  26
ATOM     26  O   UNL     1       3.414   2.844  63.647  0.00  0.00    +0.000 OA
ATOM     27  C   UNL     1       4.509   2.196  64.240  0.00  0.00    +0.000 C 
ENDBRANCH  22  26
BRANCH  23  28
ATOM     28  O   UNL     1       1.685   4.351  65.065  0.00  0.00    +0.000 OA
ATOM     29  H   UNL     1       1.866   3.394  65.061  0.00  0.00    +0.000 HD
ENDBRANCH  23  28
ENDBRANCH  19  20
ENDBRANCH   4  18
TORSDOF 8
ENDMDL
MODEL 3
REMARK VINA RESULT:      -4.1      8.700      9.867
REMARK  Name = Curcumin.pdbqt.pdb
REMARK  8 active torsions:
REMARK  status: ('A' for Active; 'I' for Inactive)
REMARK    1  A    between atoms: C_2  and  C_4
REMARK    2  A    between atoms: C_5  and  C_6
REMARK    3  A    between atoms: C_8  and  O_12
REMARK    4  A    between atoms: C_9  and  O_14
REMARK    5  A    between atoms: C_16  and  C_18
REMARK    6  A    between atoms: C_19  and  C_20
REMARK    7  A    between atoms: C_22  and  O_26
REMARK    8  A    between atoms: C_23  and  O_28
REMARK                            x       y       z     vdW  Elec       q    Type
REMARK                         _______ _______ _______ _____ _____    ______ ____
ROOT
ATOM      1  C   UNL     1      15.699   9.244  68.164  0.00  0.00    +0.000 C 
ATOM      2  C   UNL     1      17.068   9.593  67.979  0.00  0.00    +0.000 C 
ATOM      3  O   UNL     1      17.678  10.150  68.880  0.00  0.00    +0.000 OA
ATOM      4  C   UNL     1      14.329   8.899  68.349  0.00  0.00    +0.000 C 
ATOM      5  O   UNL     1      13.632   8.637  67.378  0.00  0.00    +0.000 OA
ENDROOT
BRANCH   2   6
ATOM      6  C   UNL     1      17.725   9.285  66.734  0.00  0.00    +0.000 C 
ATOM      7  C   UNL     1      18.270   9.030  65.695  0.00  0.00    +0.000 C 
BRANCH   7   8
ATOM      8  C   UNL     1      18.920   8.727  64.461  0.00  0.00    +0.000 A 
ATOM      9  C   UNL     1      19.319   7.421  64.188  0.00  0.00    +0.000 A 
ATOM     10  C   UNL     1      19.957   7.106  62.984  0.00  0.00    +0.000 A 
ATOM     11  C   UNL     1      20.188   8.129  62.059  0.00  0.00    +0.000 A 
ATOM     12  C   UNL     1      19.789   9.437  62.330  0.00  0.00    +0.000 A 
ATOM     13  C   UNL     1      19.155   9.737  63.533  0.00  0.00    +0.000 A 
BRANCH  10  14
ATOM     14  O   UNL     1      20.377   5.844  62.647  0.00  0.00    +0.000 OA
ATOM     15  C   UNL     1      20.375   4.897  63.677  0.00  0.00    +0.000 C 
ENDBRANCH  10  14
BRANCH  11  16
ATOM     16  O   UNL     1      20.804   7.918  60.857  0.00  0.00    +0.000 OA
ATOM     17  H   UNL     1      21.445   7.191  60.922  0.00  0.00    +0.000 HD
ENDBRANCH  11  16
ENDBRANCH   7   8
ENDBRANCH   2   6
BRANCH   4  18
ATOM     18  C   UNL     1      13.773   8.861  69.678  0.00  0.00    +0.000 C 
ATOM     19  C   UNL     1      13.306   8.831  70.785  0.00  0.00    +0.000 C 
BRANCH  19  20
ATOM     20  C   UNL     1      12.749   8.797  72.096  0.00  0.00    +0.000 A 
ATOM     21  C   UNL     1      13.155   7.813  72.997  0.00  0.00    +0.000 A 
ATOM     22  C   UNL     1      12.618   7.766  74.287  0.00  0.00    +0.000 A 
ATOM     23  C   UNL     1      11.669   8.724  74.654  0.00  0.00    +0.000 A 
ATOM     24  C   UNL     1      11.260   9.709  73.758  0.00  0.00    +0.000 A 
ATOM     25  C   UNL     1      11.802   9.745  72.476  0.00  0.00    +0.000 A 
BRANCH  22  26
ATOM     26  O   UNL     1      12.962   6.832  75.235  0.00  0.00    +0.000 OA
ATOM     27  C   UNL     1      12.548   5.518  74.967  0.00  0.00    +0.000 C 
ENDBRANCH  22  26
BRANCH  23  28
ATOM     28  O   UNL     1      11.132   8.694  75.912  0.00  0.00    +0.000 OA
ATOM     29  H   UNL     1      10.989   9.610  76.212  0.00  0.00    +0.000 HD
ENDBRANCH  23  28
ENDBRANCH  19  20
ENDBRANCH   4  18
TORSDOF 8
ENDMDL
MODEL 4
REMARK VINA RESULT:      -4.0     10.392     16.779
REMARK  Name = Curcumin.pdbqt.pdb
REMARK  8 active torsions:
REMARK  status: ('A' for Active; 'I' for Inactive)
REMARK    1  A    between atoms: C_2  and  C_4
REMARK    2  A    between atoms: C_5  and  C_6
REMARK    3  A    between atoms: C_8  and  O_12
REMARK    4  A    between atoms: C_9  and  O_14
REMARK    5  A    between atoms: C_16  and  C_18
REMARK    6  A    between atoms: C_19  and  C_20
REMARK    7  A    between atoms: C_22  and  O_26
REMARK    8  A    between atoms: C_23  and  O_28
REMARK                            x       y       z     vdW  Elec       q    Type
REMARK                         _______ _______ _______ _____ _____    ______ ____
ROOT
ATOM      1  C   UNL     1       3.010   6.491  64.359  0.00  0.00    +0.000 C 
ATOM      2  C   UNL     1       2.239   5.890  65.396  0.00  0.00    +0.000 C 
ATOM      3  O   UNL     1       1.856   4.736  65.273  0.00  0.00    +0.000 OA
ATOM      4  C   UNL     1       3.778   7.093  63.320  0.00  0.00    +0.000 C 
ATOM      5  O   UNL     1       3.898   8.309  63.280  0.00  0.00    +0.000 OA
ENDROOT
BRANCH   2   6
ATOM      6  C   UNL     1       1.918   6.645  66.581  0.00  0.00    +0.000 C 
ATOM      7  C   UNL     1       1.651   7.272  67.570  0.00  0.00    +0.000 C 
BRANCH   7   8
ATOM      8  C   UNL     1       1.335   8.017  68.744  0.00  0.00    +0.000 A 
ATOM      9  C   UNL     1       2.318   8.252  69.704  0.00  0.00    +0.000 A 
ATOM     10  C   UNL     1       2.026   8.981  70.861  0.00  0.00    +0.000 A 
ATOM     11  C   UNL     1       0.728   9.470  71.037  0.00  0.00    +0.000 A 
ATOM     12  C   UNL     1      -0.257   9.237  70.078  0.00  0.00    +0.000 A 
ATOM     13  C   UNL     1       0.047   8.510  68.931  0.00  0.00    +0.000 A 
BRANCH  10  14
ATOM     14  O   UNL     1       2.941   9.252  71.847  0.00  0.00    +0.000 OA
ATOM     15  C   UNL     1       4.288   9.182  71.473  0.00  0.00    +0.000 C 
ENDBRANCH  10  14
BRANCH  11  16
ATOM     16  O   UNL     1       0.349  10.193  72.134  0.00  0.00    +0.000 OA
ATOM     17  H   UNL     1       0.784   9.855  72.935  0.00  0.00    +0.000 HD
ENDBRANCH  11  16
ENDBRANCH   7   8
ENDBRANCH   2   6
BRANCH   4  18
ATOM     18  C   UNL     1       4.407   6.263  62.324  0.00  0.00    +0.000 C 
ATOM     19  C   UNL     1       4.935   5.570  61.496  0.00  0.00    +0.000 C 
BRANCH  19  20
ATOM     20  C   UNL     1       5.564   4.748  60.517  0.00  0.00    +0.000 A 
ATOM     21  C   UNL     1       6.083   5.322  59.358  0.00  0.00    +0.000 A 
ATOM     22  C   UNL     1       6.703   4.530  58.388  0.00  0.00    +0.000 A 
ATOM     23  C   UNL     1       6.793   3.152  58.604  0.00  0.00    +0.000 A 
ATOM     24  C   UNL     1       6.276   2.572  59.761  0.00  0.00    +0.000 A 
ATOM     25  C   UNL     1       5.661   3.373  60.719  0.00  0.00    +0.000 A 
BRANCH  22  26
ATOM     26  O   UNL     1       7.240   5.014  57.219  0.00  0.00    +0.000 OA
ATOM     27  C   UNL     1       7.364   6.410  57.143  0.00  0.00    +0.000 C 
ENDBRANCH  22  26
BRANCH  23  28
ATOM     28  O   UNL     1       7.396   2.359  57.666  0.00  0.00    +0.000 OA
ATOM     29  H   UNL     1       7.418   1.444  57.999  0.00  0.00    +0.000 HD
ENDBRANCH  23  28
ENDBRANCH  19  20
ENDBRANCH   4  18
TORSDOF 8
ENDMDL
MODEL 5
REMARK VINA RESULT:      -4.0     11.388     12.338
REMARK  Name = Curcumin.pdbqt.pdb
REMARK  8 active torsions:
REMARK  status: ('A' for Active; 'I' for Inactive)
REMARK    1  A    between atoms: C_2  and  C_4
REMARK    2  A    between atoms: C_5  and  C_6
REMARK    3  A    between atoms: C_8  and  O_12
REMARK    4  A    between atoms: C_9  and  O_14
REMARK    5  A    between atoms: C_16  and  C_18
REMARK    6  A    between atoms: C_19  and  C_20
REMARK    7  A    between atoms: C_22  and  O_26
REMARK    8  A    between atoms: C_23  and  O_28
REMARK                            x       y       z     vdW  Elec       q    Type
REMARK                         _______ _______ _______ _____ _____    ______ ____
ROOT
ATOM      1  C   UNL     1      15.658   3.662  68.712  0.00  0.00    +0.000 C 
ATOM      2  C   UNL     1      16.072   4.641  67.763  0.00  0.00    +0.000 C 
ATOM      3  O   UNL     1      15.612   5.772  67.821  0.00  0.00    +0.000 OA
ATOM      4  C   UNL     1      15.240   2.682  69.659  0.00  0.00    +0.000 C 
ATOM      5  O   UNL     1      15.439   1.497  69.434  0.00  0.00    +0.000 OA
ENDROOT
BRANCH   2   6
ATOM      6  C   UNL     1      17.031   4.293  66.745  0.00  0.00    +0.000 C 
ATOM      7  C   UNL     1      17.830   4.001  65.897  0.00  0.00    +0.000 C 
BRANCH   7   8
ATOM      8  C   UNL     1      18.777   3.656  64.888  0.00  0.00    +0.000 A 
ATOM      9  C   UNL     1      18.652   2.450  64.201  0.00  0.00    +0.000 A 
ATOM     10  C   UNL     1      19.571   2.095  63.209  0.00  0.00    +0.000 A 
ATOM     11  C   UNL     1      20.620   2.974  62.920  0.00  0.00    +0.000 A 
ATOM     12  C   UNL     1      20.748   4.181  63.607  0.00  0.00    +0.000 A 
ATOM     13  C   UNL     1      19.825   4.522  64.592  0.00  0.00    +0.000 A 
BRANCH  10  14
ATOM     14  O   UNL     1      19.511   0.928  62.491  0.00  0.00    +0.000 OA
ATOM     15  C   UNL     1      18.318   0.690  61.799  0.00  0.00    +0.000 C 
ENDBRANCH  10  14
BRANCH  11  16
ATOM     16  O   UNL     1      21.567   2.714  61.968  0.00  0.00    +0.000 OA
ATOM     17  H   UNL     1      22.359   2.321  62.371  0.00  0.00    +0.000 HD
ENDBRANCH  11  16
ENDBRANCH   7   8
ENDBRANCH   2   6
BRANCH   4  18
ATOM     18  C   UNL     1      14.586   3.095  70.874  0.00  0.00    +0.000 C 
ATOM     19  C   UNL     1      14.045   3.441  71.890  0.00  0.00    +0.000 C 
BRANCH  19  20
ATOM     20  C   UNL     1      13.407   3.851  73.096  0.00  0.00    +0.000 A 
ATOM     21  C   UNL     1      13.308   5.208  73.403  0.00  0.00    +0.000 A 
ATOM     22  C   UNL     1      12.685   5.627  74.581  0.00  0.00    +0.000 A 
ATOM     23  C   UNL     1      12.163   4.660  75.445  0.00  0.00    +0.000 A 
ATOM     24  C   UNL     1      12.260   3.302  75.144  0.00  0.00    +0.000 A 
ATOM     25  C   UNL     1      12.883   2.898  73.967  0.00  0.00    +0.000 A 
BRANCH  22  26
ATOM     26  O   UNL     1      12.545   6.941  74.959  0.00  0.00    +0.000 OA
ATOM     27  C   UNL     1      13.744   7.639  75.175  0.00  0.00    +0.000 C 
ENDBRANCH  22  26
BRANCH  23  28
ATOM     28  O   UNL     1      11.550   5.050  76.604  0.00  0.00    +0.000 OA
ATOM     29  H   UNL     1      12.097   4.763  77.358  0.00  0.00    +0.000 HD
ENDBRANCH  23  28
ENDBRANCH  19  20
ENDBRANCH   4  18
TORSDOF 8
ENDMDL
MODEL 6
REMARK VINA RESULT:      -4.0     13.943     14.928
REMARK  Name = Curcumin.pdbqt.pdb
REMARK  8 active torsions:
REMARK  status: ('A' for Active; 'I' for Inactive)
REMARK    1  A    between atoms: C_2  and  C_4
REMARK    2  A    between atoms: C_5  and  C_6
REMARK    3  A    between atoms: C_8  and  O_12
REMARK    4  A    between atoms: C_9  and  O_14
REMARK    5  A    between atoms: C_16  and  C_18
REMARK    6  A    between atoms: C_19  and  C_20
REMARK    7  A    between atoms: C_22  and  O_26
REMARK    8  A    between atoms: C_23  and  O_28
REMARK                            x       y       z     vdW  Elec       q    Type
REMARK                         _______ _______ _______ _____ _____    ______ ____
ROOT
ATOM      1  C   UNL     1      11.147  -0.907  67.243  0.00  0.00    +0.000 C 
ATOM      2  C   UNL     1      12.442  -1.456  67.015  0.00  0.00    +0.000 C 
ATOM      3  O   UNL     1      13.040  -1.997  67.933  0.00  0.00    +0.000 OA
ATOM      4  C   UNL     1       9.853  -0.355  67.473  0.00  0.00    +0.000 C 
ATOM      5  O   UNL     1       9.384   0.445  66.676  0.00  0.00    +0.000 OA
ENDROOT
BRANCH   2   6
ATOM      6  C   UNL     1      13.036  -1.373  65.704  0.00  0.00    +0.000 C 
ATOM      7  C   UNL     1      13.532  -1.302  64.613  0.00  0.00    +0.000 C 
BRANCH   7   8
ATOM      8  C   UNL     1      14.122  -1.221  63.317  0.00  0.00    +0.000 A 
ATOM      9  C   UNL     1      14.995  -0.178  63.015  0.00  0.00    +0.000 A 
ATOM     10  C   UNL     1      15.583  -0.082  61.750  0.00  0.00    +0.000 A 
ATOM     11  C   UNL     1      15.277  -1.054  60.792  0.00  0.00    +0.000 A 
ATOM     12  C   UNL     1      14.403  -2.098  61.091  0.00  0.00    +0.000 A 
ATOM     13  C   UNL     1      13.825  -2.182  62.355  0.00  0.00    +0.000 A 
BRANCH  10  14
ATOM     14  O   UNL     1      16.452   0.914  61.382  0.00  0.00    +0.000 OA
ATOM     15  C   UNL     1      17.754   0.814  61.886  0.00  0.00    +0.000 C 
ENDBRANCH  10  14
BRANCH  11  16
ATOM     16  O   UNL     1      15.801  -1.044  59.530  0.00  0.00    +0.000 OA
ATOM     17  H   UNL     1      15.364  -1.708  58.970  0.00  0.00    +0.000 HD
ENDBRANCH  11  16
ENDBRANCH   7   8
ENDBRANCH   2   6
BRANCH   4  18
ATOM     18  C   UNL     1       9.107  -0.744  68.642  0.00  0.00    +0.000 C 
ATOM     19  C   UNL     1       8.481  -1.070  69.615  0.00  0.00    +0.000 C 
BRANCH  19  20
ATOM     20  C   UNL     1       7.735  -1.455  70.767  0.00  0.00    +0.000 A 
ATOM     21  C   UNL     1       6.379  -1.753  70.648  0.00  0.00    +0.000 A 
ATOM     22  C   UNL     1       5.633  -2.133  71.767  0.00  0.00    +0.000 A 
ATOM     23  C   UNL     1       6.275  -2.208  73.007  0.00  0.00    +0.000 A 
ATOM     24  C   UNL     1       7.631  -1.911  73.131  0.00  0.00    +0.000 A 
ATOM     25  C   UNL     1       8.361  -1.534  72.009  0.00  0.00    +0.000 A 
BRANCH  22  26
ATOM     26  O   UNL     1       4.295  -2.443  71.738  0.00  0.00    +0.000 OA
ATOM     27  C   UNL     1       3.781  -2.788  70.478  0.00  0.00    +0.000 C 
ENDBRANCH  22  26
BRANCH  23  28
ATOM     28  O   UNL     1       5.562  -2.578  74.114  0.00  0.00    +0.000 OA
ATOM     29  H   UNL     1       5.814  -3.487  74.359  0.00  0.00    +0.000 HD
ENDBRANCH  23  28
ENDBRANCH  19  20
ENDBRANCH   4  18
TORSDOF 8
ENDMDL
MODEL 7
REMARK VINA RESULT:      -4.0     13.716     18.541
REMARK  Name = Curcumin.pdbqt.pdb
REMARK  8 active torsions:
REMARK  status: ('A' for Active; 'I' for Inactive)
REMARK    1  A    between atoms: C_2  and  C_4
REMARK    2  A    between atoms: C_5  and  C_6
REMARK    3  A    between atoms: C_8  and  O_12
REMARK    4  A    between atoms: C_9  and  O_14
REMARK    5  A    between atoms: C_16  and  C_18
REMARK    6  A    between atoms: C_19  and  C_20
REMARK    7  A    between atoms: C_22  and  O_26
REMARK    8  A    between atoms: C_23  and  O_28
REMARK                            x       y       z     vdW  Elec       q    Type
REMARK                         _______ _______ _______ _____ _____    ______ ____
ROOT
ATOM      1  C   UNL     1      13.467   3.017  72.749  0.00  0.00    +0.000 C 
ATOM      2  C   UNL     1      13.326   3.796  73.934  0.00  0.00    +0.000 C 
ATOM      3  O   UNL     1      14.150   4.661  74.191  0.00  0.00    +0.000 OA
ATOM      4  C   UNL     1      13.612   2.237  71.565  0.00  0.00    +0.000 C 
ATOM      5  O   UNL     1      12.997   1.186  71.452  0.00  0.00    +0.000 OA
ENDROOT
BRANCH   2   6
ATOM      6  C   UNL     1      12.212   3.561  74.817  0.00  0.00    +0.000 C 
ATOM      7  C   UNL     1      11.285   3.363  75.554  0.00  0.00    +0.000 C 
BRANCH   7   8
ATOM      8  C   UNL     1      10.183   3.129  76.431  0.00  0.00    +0.000 A 
ATOM      9  C   UNL     1       9.392   4.196  76.852  0.00  0.00    +0.000 A 
ATOM     10  C   UNL     1       8.308   3.985  77.710  0.00  0.00    +0.000 A 
ATOM     11  C   UNL     1       8.035   2.683  78.139  0.00  0.00    +0.000 A 
ATOM     12  C   UNL     1       8.826   1.614  77.719  0.00  0.00    +0.000 A 
ATOM     13  C   UNL     1       9.901   1.837  76.864  0.00  0.00    +0.000 A 
BRANCH  10  14
ATOM     14  O   UNL     1       7.485   4.985  78.165  0.00  0.00    +0.000 OA
ATOM     15  C   UNL     1       6.822   5.730  77.184  0.00  0.00    +0.000 C 
ENDBRANCH  10  14
BRANCH  11  16
ATOM     16  O   UNL     1       6.999   2.379  78.978  0.00  0.00    +0.000 OA
ATOM     17  H   UNL     1       7.183   1.560  79.469  0.00  0.00    +0.000 HD
ENDBRANCH  11  16
ENDBRANCH   7   8
ENDBRANCH   2   6
BRANCH   4  18
ATOM     18  C   UNL     1      14.482   2.691  70.511  0.00  0.00    +0.000 C 
ATOM     19  C   UNL     1      15.209   3.066  69.630  0.00  0.00    +0.000 C 
BRANCH  19  20
ATOM     20  C   UNL     1      16.072   3.506  68.584  0.00  0.00    +0.000 A 
ATOM     21  C   UNL     1      16.343   4.866  68.436  0.00  0.00    +0.000 A 
ATOM     22  C   UNL     1      17.187   5.315  67.416  0.00  0.00    +0.000 A 
ATOM     23  C   UNL     1      17.753   4.374  66.551  0.00  0.00    +0.000 A 
ATOM     24  C   UNL     1      17.485   3.014  66.695  0.00  0.00    +0.000 A 
ATOM     25  C   UNL     1      16.642   2.581  67.714  0.00  0.00    +0.000 A 
BRANCH  22  26
ATOM     26  O   UNL     1      17.507   6.633  67.199  0.00  0.00    +0.000 OA
ATOM     27  C   UNL     1      17.940   7.345  68.329  0.00  0.00    +0.000 C 
ENDBRANCH  22  26
BRANCH  23  28
ATOM     28  O   UNL     1      18.581   4.794  65.546  0.00  0.00    +0.000 OA
ATOM     29  H   UNL     1      19.215   5.437  65.912  0.00  0.00    +0.000 HD
ENDBRANCH  23  28
ENDBRANCH  19  20
ENDBRANCH   4  18
TORSDOF 8
ENDMDL
MODEL 8
REMARK VINA RESULT:      -3.9      5.360      8.722
REMARK  Name = Curcumin.pdbqt.pdb
REMARK  8 active torsions:
REMARK  status: ('A' for Active; 'I' for Inactive)
REMARK    1  A    between atoms: C_2  and  C_4
REMARK    2  A    between atoms: C_5  and  C_6
REMARK    3  A    between atoms: C_8  and  O_12
REMARK    4  A    between atoms: C_9  and  O_14
REMARK    5  A    between atoms: C_16  and  C_18
REMARK    6  A    between atoms: C_19  and  C_20
REMARK    7  A    between atoms: C_22  and  O_26
REMARK    8  A    between atoms: C_23  and  O_28
REMARK                            x       y       z     vdW  Elec       q    Type
REMARK                         _______ _______ _______ _____ _____    ______ ____
ROOT
ATOM      1  C   UNL     1       7.612   9.518  60.566  0.00  0.00    +0.000 C 
ATOM      2  C   UNL     1       7.887  10.898  60.788  0.00  0.00    +0.000 C 
ATOM      3  O   UNL     1       7.105  11.574  61.440  0.00  0.00    +0.000 OA
ATOM      4  C   UNL     1       7.333   8.138  60.341  0.00  0.00    +0.000 C 
ATOM      5  O   UNL     1       7.921   7.537  59.453  0.00  0.00    +0.000 OA
ENDROOT
BRANCH   2   6
ATOM      6  C   UNL     1       9.086  11.486  60.246  0.00  0.00    +0.000 C 
ATOM      7  C   UNL     1      10.086  11.977  59.796  0.00  0.00    +0.000 C 
BRANCH   7   8
ATOM      8  C   UNL     1      11.274  12.557  59.261  0.00  0.00    +0.000 A 
ATOM      9  C   UNL     1      11.239  13.190  58.020  0.00  0.00    +0.000 A 
ATOM     10  C   UNL     1      12.394  13.765  57.479  0.00  0.00    +0.000 A 
ATOM     11  C   UNL     1      13.585  13.692  58.209  0.00  0.00    +0.000 A 
ATOM     12  C   UNL     1      13.622  13.059  59.451  0.00  0.00    +0.000 A 
ATOM     13  C   UNL     1      12.465  12.491  59.977  0.00  0.00    +0.000 A 
BRANCH  10  14
ATOM     14  O   UNL     1      12.436  14.404  56.266  0.00  0.00    +0.000 OA
ATOM     15  C   UNL     1      12.455  13.580  55.135  0.00  0.00    +0.000 C 
ENDBRANCH  10  14
BRANCH  11  16
ATOM     16  O   UNL     1      14.763  14.223  57.763  0.00  0.00    +0.000 OA
ATOM     17  H   UNL     1      14.978  13.886  56.877  0.00  0.00    +0.000 HD
ENDBRANCH  11  16
ENDBRANCH   7   8
ENDBRANCH   2   6
BRANCH   4  18
ATOM     18  C   UNL     1       6.361   7.462  61.161  0.00  0.00    +0.000 C 
ATOM     19  C   UNL     1       5.549   6.895  61.842  0.00  0.00    +0.000 C 
BRANCH  19  20
ATOM     20  C   UNL     1       4.585   6.220  62.647  0.00  0.00    +0.000 A 
ATOM     21  C   UNL     1       3.747   6.953  63.485  0.00  0.00    +0.000 A 
ATOM     22  C   UNL     1       2.796   6.307  64.281  0.00  0.00    +0.000 A 
ATOM     23  C   UNL     1       2.703   4.914  64.218  0.00  0.00    +0.000 A 
ATOM     24  C   UNL     1       3.539   4.176  63.381  0.00  0.00    +0.000 A 
ATOM     25  C   UNL     1       4.482   4.832  62.594  0.00  0.00    +0.000 A 
BRANCH  22  26
ATOM     26  O   UNL     1       1.932   6.951  65.133  0.00  0.00    +0.000 OA
ATOM     27  C   UNL     1       1.004   7.807  64.520  0.00  0.00    +0.000 C 
ENDBRANCH  22  26
BRANCH  23  28
ATOM     28  O   UNL     1       1.779   4.263  64.989  0.00  0.00    +0.000 OA
ATOM     29  H   UNL     1       2.077   3.345  65.123  0.00  0.00    +0.000 HD
ENDBRANCH  23  28
ENDBRANCH  19  20
ENDBRANCH   4  18
TORSDOF 8
ENDMDL
MODEL 9
REMARK VINA RESULT:      -3.8     17.197     20.995
REMARK  Name = Curcumin.pdbqt.pdb
REMARK  8 active torsions:
REMARK  status: ('A' for Active; 'I' for Inactive)
REMARK    1  A    between atoms: C_2  and  C_4
REMARK    2  A    between atoms: C_5  and  C_6
REMARK    3  A    between atoms: C_8  and  O_12
REMARK    4  A    between atoms: C_9  and  O_14
REMARK    5  A    between atoms: C_16  and  C_18
REMARK    6  A    between atoms: C_19  and  C_20
REMARK    7  A    between atoms: C_22  and  O_26
REMARK    8  A    between atoms: C_23  and  O_28
REMARK                            x       y       z     vdW  Elec       q    Type
REMARK                         _______ _______ _______ _____ _____    ______ ____
ROOT
ATOM      1  C   UNL     1       3.517   6.943  74.747  0.00  0.00    +0.000 C 
ATOM      2  C   UNL     1       3.637   8.219  74.124  0.00  0.00    +0.000 C 
ATOM      3  O   UNL     1       4.658   8.873  74.275  0.00  0.00    +0.000 OA
ATOM      4  C   UNL     1       3.398   5.668  75.373  0.00  0.00    +0.000 C 
ATOM      5  O   UNL     1       2.296   5.152  75.493  0.00  0.00    +0.000 OA
ENDROOT
BRANCH   2   6
ATOM      6  C   UNL     1       2.555   8.729  73.320  0.00  0.00    +0.000 C 
ATOM      7  C   UNL     1       1.655   9.153  72.648  0.00  0.00    +0.000 C 
BRANCH   7   8
ATOM      8  C   UNL     1       0.584   9.656  71.851  0.00  0.00    +0.000 A 
ATOM      9  C   UNL     1       0.628   9.522  70.465  0.00  0.00    +0.000 A 
ATOM     10  C   UNL     1      -0.413  10.008  69.667  0.00  0.00    +0.000 A 
ATOM     11  C   UNL     1      -1.499  10.633  70.288  0.00  0.00    +0.000 A 
ATOM     12  C   UNL     1      -1.546  10.768  71.675  0.00  0.00    +0.000 A 
ATOM     13  C   UNL     1      -0.502  10.279  72.457  0.00  0.00    +0.000 A 
BRANCH  10  14
ATOM     14  O   UNL     1      -0.440   9.911  68.299  0.00  0.00    +0.000 OA
ATOM     15  C   UNL     1       0.779   9.611  67.679  0.00  0.00    +0.000 C 
ENDBRANCH  10  14
BRANCH  11  16
ATOM     16  O   UNL     1      -2.562  11.139  69.593  0.00  0.00    +0.000 OA
ATOM     17  H   UNL     1      -2.310  11.952  69.125  0.00  0.00    +0.000 HD
ENDBRANCH  11  16
ENDBRANCH   7   8
ENDBRANCH   2   6
BRANCH   4  18
ATOM     18  C   UNL     1       4.576   4.996  75.859  0.00  0.00    +0.000 C 
ATOM     19  C   UNL     1       5.559   4.438  76.268  0.00  0.00    +0.000 C 
BRANCH  19  20
ATOM     20  C   UNL     1       6.724   3.779  76.756  0.00  0.00    +0.000 A 
ATOM     21  C   UNL     1       6.794   2.387  76.736  0.00  0.00    +0.000 A 
ATOM     22  C   UNL     1       7.929   1.724  77.211  0.00  0.00    +0.000 A 
ATOM     23  C   UNL     1       8.992   2.485  77.706  0.00  0.00    +0.000 A 
ATOM     24  C   UNL     1       8.927   3.878  77.729  0.00  0.00    +0.000 A 
ATOM     25  C   UNL     1       7.791   4.525  77.253  0.00  0.00    +0.000 A 
BRANCH  22  26
ATOM     26  O   UNL     1       8.079   0.359  77.227  0.00  0.00    +0.000 OA
ATOM     27  C   UNL     1       8.125  -0.260  75.967  0.00  0.00    +0.000 C 
ENDBRANCH  22  26
BRANCH  23  28
ATOM     28  O   UNL     1      10.112   1.856  78.175  0.00  0.00    +0.000 OA
ATOM     29  H   UNL     1      10.895   2.263  77.763  0.00  0.00    +0.000 HD
ENDBRANCH  23  28
ENDBRANCH  19  20
ENDBRANCH   4  18
TORSDOF 8
ENDMDL
