MODEL 1
REMARK VINA RESULT:      -7.9      0.000      0.000
REMARK  Name = Cyclosporin_A.pdbqt.pdb
REMARK  4 active torsions:
REMARK  status: ('A' for Active; 'I' for Inactive)
REMARK    1  A    between atoms: N_13  and  C_36
REMARK    2  A    between atoms: C_36  and  O_70
REMARK    3  A    between atoms: C_72  and  C_73
REMARK    4  A    between atoms: C_75  and  C_76
REMARK                            x       y       z     vdW  Elec       q    Type
REMARK                         _______ _______ _______ _____ _____    ______ ____
ROOT
ATOM      1  O   UNL     1      21.578   7.433  67.337  0.00  0.00    +0.000 OA
ATOM      2  O   UNL     1      23.313   3.044  65.326  0.00  0.00    +0.000 OA
ATOM      3  O   UNL     1      19.837   1.998  62.205  0.00  0.00    +0.000 OA
ATOM      4  O   UNL     1      16.744   8.057  67.834  0.00  0.00    +0.000 OA
ATOM      5  O   UNL     1      24.103   4.660  61.537  0.00  0.00    +0.000 OA
ATOM      6  O   UNL     1      17.865  11.970  55.641  0.00  0.00    +0.000 OA
ATOM      7  O   UNL     1      19.800  12.356  66.024  0.00  0.00    +0.000 OA
ATOM      8  O   UNL     1      14.911  11.890  59.582  0.00  0.00    +0.000 OA
ATOM      9  O   UNL     1      21.004   8.334  55.000  0.00  0.00    +0.000 OA
ATOM     10  O   UNL     1      16.497  13.114  63.168  0.00  0.00    +0.000 OA
ATOM     11  O   UNL     1      23.468   7.671  58.477  0.00  0.00    +0.000 OA
ATOM     12  N   UNL     1      22.015   4.442  65.658  0.00  0.00    +0.000 NA
ATOM     13  N   UNL     1      19.700   6.432  66.216  0.00  0.00    +0.000 NA
ATOM     14  N   UNL     1      21.452   2.274  63.325  0.00  0.00    +0.000 NA
ATOM     15  N   UNL     1      21.960   3.641  60.499  0.00  0.00    +0.000 NA
ATOM     16  N   UNL     1      18.015   9.005  65.981  0.00  0.00    +0.000 NA
ATOM     17  N   UNL     1      17.591   9.680  56.115  0.00  0.00    +0.000 N 
ATOM     18  N   UNL     1      16.899  10.858  58.901  0.00  0.00    +0.000 N 
ATOM     19  N   UNL     1      16.901  12.085  61.535  0.00  0.00    +0.000 NA
ATOM     20  N   UNL     1      19.351  11.084  64.192  0.00  0.00    +0.000 NA
ATOM     21  N   UNL     1      21.668   6.507  59.730  0.00  0.00    +0.000 NA
ATOM     22  N   UNL     1      20.267   8.621  57.282  0.00  0.00    +0.000 NA
ATOM     23  C   UNL     1      22.175   5.739  66.052  0.00  0.00    +0.000 C 
ATOM     24  C   UNL     1      21.152   3.319  64.102  0.00  0.00    +0.000 C 
ATOM     25  C   UNL     1      18.729   6.876  67.092  0.00  0.00    +0.000 C 
ATOM     26  C   UNL     1      23.312   6.207  66.685  0.00  0.00    +0.000 C 
ATOM     27  C   UNL     1      19.851   2.811  64.594  0.00  0.00    +0.000 C 
ATOM     28  C   UNL     1      21.078   6.471  66.453  0.00  0.00    +0.000 C 
ATOM     29  C   UNL     1      22.367   3.576  64.639  0.00  0.00    +0.000 C 
ATOM     30  C   UNL     1      22.059   2.674  61.370  0.00  0.00    +0.000 C 
ATOM     31  C   UNL     1      20.945   2.674  62.156  0.00  0.00    +0.000 C 
ATOM     32  C   UNL     1      17.669   7.871  66.747  0.00  0.00    +0.000 C 
ATOM     33  C   UNL     1      24.026   4.981  66.859  0.00  0.00    +0.000 C 
ATOM     34  C   UNL     1      22.897   7.115  67.601  0.00  0.00    +0.000 C 
ATOM     35  C   UNL     1      23.264   4.082  66.129  0.00  0.00    +0.000 C 
ATOM     36  C   UNL     1      20.233   1.560  63.489  0.00  0.00    +0.000 C 
ATOM     37  C   UNL     1      18.476  10.238  66.505  0.00  0.00    +0.000 C 
ATOM     38  C   UNL     1      17.192  11.554  57.757  0.00  0.00    +0.000 A 
ATOM     39  C   UNL     1      22.749   4.497  61.141  0.00  0.00    +0.000 C 
ATOM     40  C   UNL     1      18.772   9.176  55.515  0.00  0.00    +0.000 C 
ATOM     41  C   UNL     1      15.918  11.220  61.184  0.00  0.00    +0.000 C 
ATOM     42  C   UNL     1      22.585   2.755  59.483  0.00  0.00    +0.000 C 
ATOM     43  C   UNL     1      17.254  12.965  57.543  0.00  0.00    +0.000 A 
ATOM     44  C   UNL     1      18.197   9.078  53.800  0.00  0.00    +0.000 C 
ATOM     45  C   UNL     1      22.453   5.804  60.487  0.00  0.00    +0.000 C 
ATOM     46  C   UNL     1      14.710  12.095  60.982  0.00  0.00    +0.000 C 
ATOM     47  C   UNL     1      18.278  10.368  67.913  0.00  0.00    +0.000 C 
ATOM     48  C   UNL     1      17.555  10.981  56.543  0.00  0.00    +0.000 A 
ATOM     49  C   UNL     1      19.120  11.125  65.706  0.00  0.00    +0.000 C 
ATOM     50  C   UNL     1      16.024  11.245  59.802  0.00  0.00    +0.000 C 
ATOM     51  C   UNL     1      20.017   8.762  55.930  0.00  0.00    +0.000 C 
ATOM     52  C   UNL     1      18.101  11.372  63.482  0.00  0.00    +0.000 C 
ATOM     53  C   UNL     1      17.040  14.085  58.527  0.00  0.00    +0.000 C 
ATOM     54  C   UNL     1      17.671  13.170  56.253  0.00  0.00    +0.000 A 
ATOM     55  C   UNL     1      16.896  11.818  62.879  0.00  0.00    +0.000 C 
ATOM     56  C   UNL     1      21.387   8.235  57.801  0.00  0.00    +0.000 C 
ATOM     57  C   UNL     1      23.724   5.717  60.988  0.00  0.00    +0.000 C 
ATOM     58  C   UNL     1      17.353   9.501  54.796  0.00  0.00    +0.000 C 
ATOM     59  C   UNL     1      17.889   9.787  68.886  0.00  0.00    +0.000 C 
ATOM     60  C   UNL     1      22.099   7.380  58.831  0.00  0.00    +0.000 C 
ATOM     61  C   UNL     1      16.031  13.360  61.803  0.00  0.00    +0.000 C 
ATOM     62  C   UNL     1      19.876  12.125  64.811  0.00  0.00    +0.000 C 
ATOM     63  C   UNL     1      22.737   8.295  57.690  0.00  0.00    +0.000 C 
ATOM     64  H   UNL     1      18.595   8.748  65.181  0.00  0.00    +0.000 HD
ATOM     65  H   UNL     1      17.554  10.125  59.161  0.00  0.00    +0.000 HD
ATOM     66  H   UNL     1      20.703   6.197  59.648  0.00  0.00    +0.000 HD
ATOM     67  H   UNL     1      19.405   8.487  57.801  0.00  0.00    +0.000 HD
ATOM     68  C   UNL     1      18.853   6.781  68.387  0.00  0.00    +0.000 C 
ATOM     69  C   UNL     1      18.305   7.433  69.528  0.00  0.00    +0.000 C 
ATOM     70  C   UNL     1      17.357   8.469  69.072  0.00  0.00    +0.000 C 
ATOM     71  C   UNL     1      19.258   1.778  65.768  0.00  0.00    +0.000 C 
ATOM     72  C   UNL     1      18.138   1.934  66.472  0.00  0.00    +0.000 C 
ATOM     73  C   UNL     1      19.591   1.123  64.579  0.00  0.00    +0.000 C 
ATOM     74  C   UNL     1      22.576   1.677  60.422  0.00  0.00    +0.000 C 
ATOM     75  C   UNL     1      23.636   1.685  59.526  0.00  0.00    +0.000 C 
ATOM     76  C   UNL     1      23.791   0.585  58.455  0.00  0.00    +0.000 C 
ATOM     77  C   UNL     1      23.863   2.937  58.987  0.00  0.00    +0.000 C 
ATOM     78  C   UNL     1      13.510  12.828  61.746  0.00  0.00    +0.000 C 
ATOM     79  C   UNL     1      12.267  13.177  61.424  0.00  0.00    +0.000 C 
ATOM     80  C   UNL     1      14.691  13.518  62.024  0.00  0.00    +0.000 C 
ATOM     81  C   UNL     1      19.231   8.639  53.079  0.00  0.00    +0.000 C 
ATOM     82  C   UNL     1      19.138   8.421  51.605  0.00  0.00    +0.000 C 
ATOM     83  C   UNL     1      20.416   8.365  53.804  0.00  0.00    +0.000 C 
ENDROOT
BRANCH  69  84
ATOM     84  C   UNL     1      18.846   7.418  70.835  0.00  0.00    +0.000 C 
ATOM     85  C   UNL     1      19.306   7.413  71.945  0.00  0.00    +0.000 C 
BRANCH  85  86
ATOM     86  C   UNL     1      19.896   7.411  73.359  0.00  0.00    +0.000 C 
ATOM     87  C   UNL     1      20.410   7.405  74.587  0.00  0.00    +0.000 C 
ENDBRANCH  85  86
ENDBRANCH  69  84
BRANCH  13  88
ATOM     88  C   UNL     1      19.281   6.164  64.850  0.00  0.00    +0.000 C 
BRANCH  88  89
ATOM     89  O   UNL     1      18.920   5.929  63.596  0.00  0.00    +0.000 OA
ATOM     90  H   UNL     1      19.595   5.388  63.150  0.00  0.00    +0.000 HD
ENDBRANCH  88  89
ENDBRANCH  13  88
TORSDOF 4
ENDMDL
MODEL 2
REMARK VINA RESULT:      -7.3     11.094     18.494
REMARK  Name = Cyclosporin_A.pdbqt.pdb
REMARK  4 active torsions:
REMARK  status: ('A' for Active; 'I' for Inactive)
REMARK    1  A    between atoms: N_13  and  C_36
REMARK    2  A    between atoms: C_36  and  O_70
REMARK    3  A    between atoms: C_72  and  C_73
REMARK    4  A    between atoms: C_75  and  C_76
REMARK                            x       y       z     vdW  Elec       q    Type
REMARK                         _______ _______ _______ _____ _____    ______ ____
ROOT
ATOM      1  O   UNL     1       5.828  13.346  60.476  0.00  0.00    +0.000 OA
ATOM      2  O   UNL     1       1.974   9.962  60.541  0.00  0.00    +0.000 OA
ATOM      3  O   UNL     1       3.567   6.780  63.743  0.00  0.00    +0.000 OA
ATOM      4  O   UNL     1      10.404  11.731  61.153  0.00  0.00    +0.000 OA
ATOM      5  O   UNL     1       0.710  10.915  64.426  0.00  0.00    +0.000 OA
ATOM      6  O   UNL     1       7.061  13.030  73.498  0.00  0.00    +0.000 OA
ATOM      7  O   UNL     1       8.865  16.465  63.666  0.00  0.00    +0.000 OA
ATOM      8  O   UNL     1      10.842  12.417  70.399  0.00  0.00    +0.000 OA
ATOM      9  O   UNL     1       2.728  11.237  72.279  0.00  0.00    +0.000 OA
ATOM     10  O   UNL     1      11.099  14.969  67.190  0.00  0.00    +0.000 OA
ATOM     11  O   UNL     1       1.455  12.555  68.374  0.00  0.00    +0.000 OA
ATOM     12  N   UNL     1       3.747  10.627  60.949  0.00  0.00    +0.000 NA
ATOM     13  N   UNL     1       6.700  11.373  61.540  0.00  0.00    +0.000 NA
ATOM     14  N   UNL     1       2.640   8.008  62.490  0.00  0.00    +0.000 NA
ATOM     15  N   UNL     1       1.830   8.819  65.456  0.00  0.00    +0.000 NA
ATOM     16  N   UNL     1       9.084  12.745  62.935  0.00  0.00    +0.000 NA
ATOM     17  N   UNL     1       6.556  11.036  72.351  0.00  0.00    +0.000 N 
ATOM     18  N   UNL     1       8.505  12.315  70.303  0.00  0.00    +0.000 N 
ATOM     19  N   UNL     1       9.825  13.927  68.278  0.00  0.00    +0.000 NA
ATOM     20  N   UNL     1       8.170  14.775  65.022  0.00  0.00    +0.000 NA
ATOM     21  N   UNL     1       2.955  10.981  67.176  0.00  0.00    +0.000 NA
ATOM     22  N   UNL     1       4.206  11.623  70.408  0.00  0.00    +0.000 NA
ATOM     23  C   UNL     1       4.240  11.898  60.985  0.00  0.00    +0.000 C 
ATOM     24  C   UNL     1       3.555   8.930  62.178  0.00  0.00    +0.000 C 
ATOM     25  C   UNL     1       7.992  11.487  61.065  0.00  0.00    +0.000 C 
ATOM     26  C   UNL     1       3.644  12.965  60.338  0.00  0.00    +0.000 C 
ATOM     27  C   UNL     1       4.637   7.990  61.805  0.00  0.00    +0.000 C 
ATOM     28  C   UNL     1       5.602  12.100  61.069  0.00  0.00    +0.000 C 
ATOM     29  C   UNL     1       2.778   9.831  61.534  0.00  0.00    +0.000 C 
ATOM     30  C   UNL     1       1.646   8.221  64.312  0.00  0.00    +0.000 C 
ATOM     31  C   UNL     1       2.859   7.867  63.801  0.00  0.00    +0.000 C 
ATOM     32  C   UNL     1       9.186  11.773  61.917  0.00  0.00    +0.000 C 
ATOM     33  C   UNL     1       2.605  12.283  59.632  0.00  0.00    +0.000 C 
ATOM     34  C   UNL     1       4.650  13.745  59.874  0.00  0.00    +0.000 C 
ATOM     35  C   UNL     1       2.679  11.000  60.155  0.00  0.00    +0.000 C 
ATOM     36  C   UNL     1       3.465   6.861  62.336  0.00  0.00    +0.000 C 
ATOM     37  C   UNL     1       9.335  14.131  62.772  0.00  0.00    +0.000 C 
ATOM     38  C   UNL     1       8.157  12.807  71.535  0.00  0.00    +0.000 A 
ATOM     39  C   UNL     1       1.689  10.059  64.997  0.00  0.00    +0.000 C 
ATOM     40  C   UNL     1       5.147  11.027  72.511  0.00  0.00    +0.000 C 
ATOM     41  C   UNL     1      10.224  12.652  68.504  0.00  0.00    +0.000 C 
ATOM     42  C   UNL     1       0.619   8.136  65.980  0.00  0.00    +0.000 C 
ATOM     43  C   UNL     1       8.587  14.002  72.189  0.00  0.00    +0.000 A 
ATOM     44  C   UNL     1       5.058  10.312  74.173  0.00  0.00    +0.000 C 
ATOM     45  C   UNL     1       2.245  10.905  66.093  0.00  0.00    +0.000 C 
ATOM     46  C   UNL     1      11.543  12.796  69.213  0.00  0.00    +0.000 C 
ATOM     47  C   UNL     1      10.007  14.448  61.554  0.00  0.00    +0.000 C 
ATOM     48  C   UNL     1       7.232  12.227  72.395  0.00  0.00    +0.000 A 
ATOM     49  C   UNL     1       8.869  15.023  63.682  0.00  0.00    +0.000 C 
ATOM     50  C   UNL     1       9.700  12.430  69.767  0.00  0.00    +0.000 C 
ATOM     51  C   UNL     1       4.045  11.341  71.751  0.00  0.00    +0.000 C 
ATOM     52  C   UNL     1       9.134  14.289  66.013  0.00  0.00    +0.000 C 
ATOM     53  C   UNL     1       9.523  15.072  71.694  0.00  0.00    +0.000 C 
ATOM     54  C   UNL     1       7.893  14.099  73.368  0.00  0.00    +0.000 A 
ATOM     55  C   UNL     1      10.155  13.981  66.949  0.00  0.00    +0.000 C 
ATOM     56  C   UNL     1       3.255  11.925  69.585  0.00  0.00    +0.000 C 
ATOM     57  C   UNL     1       1.274  11.529  65.357  0.00  0.00    +0.000 C 
ATOM     58  C   UNL     1       6.269  10.492  73.556  0.00  0.00    +0.000 C 
ATOM     59  C   UNL     1      10.427  13.974  60.537  0.00  0.00    +0.000 C 
ATOM     60  C   UNL     1       2.636  11.741  68.213  0.00  0.00    +0.000 C 
ATOM     61  C   UNL     1      11.159  14.673  68.621  0.00  0.00    +0.000 C 
ATOM     62  C   UNL     1       8.321  16.045  64.695  0.00  0.00    +0.000 C 
ATOM     63  C   UNL     1       2.077  12.583  69.449  0.00  0.00    +0.000 C 
ATOM     64  H   UNL     1       8.227  12.626  63.477  0.00  0.00    +0.000 HD
ATOM     65  H   UNL     1       7.736  12.047  69.694  0.00  0.00    +0.000 HD
ATOM     66  H   UNL     1       3.640  10.247  67.334  0.00  0.00    +0.000 HD
ATOM     67  H   UNL     1       5.065  11.216  70.049  0.00  0.00    +0.000 HD
ATOM     68  C   UNL     1       8.263  11.737  59.813  0.00  0.00    +0.000 C 
ATOM     69  C   UNL     1       9.355  12.283  59.082  0.00  0.00    +0.000 C 
ATOM     70  C   UNL     1      10.432  12.633  60.029  0.00  0.00    +0.000 C 
ATOM     71  C   UNL     1       5.121   7.076  60.491  0.00  0.00    +0.000 C 
ATOM     72  C   UNL     1       6.374   6.836  60.108  0.00  0.00    +0.000 C 
ATOM     73  C   UNL     1       4.199   6.417  61.308  0.00  0.00    +0.000 C 
ATOM     74  C   UNL     1       0.507   7.405  64.757  0.00  0.00    +0.000 C 
ATOM     75  C   UNL     1      -0.691   7.716  65.384  0.00  0.00    +0.000 C 
ATOM     76  C   UNL     1      -1.597   6.617  65.977  0.00  0.00    +0.000 C 
ATOM     77  C   UNL     1      -0.571   8.783  66.254  0.00  0.00    +0.000 C 
ATOM     78  C   UNL     1      13.110  13.027  68.981  0.00  0.00    +0.000 C 
ATOM     79  C   UNL     1      14.216  12.679  69.633  0.00  0.00    +0.000 C 
ATOM     80  C   UNL     1      12.448  14.230  68.727  0.00  0.00    +0.000 C 
ATOM     81  C   UNL     1       3.763  10.264  74.494  0.00  0.00    +0.000 C 
ATOM     82  C   UNL     1       3.285   9.721  75.800  0.00  0.00    +0.000 C 
ATOM     83  C   UNL     1       2.864  10.735  73.506  0.00  0.00    +0.000 C 
ENDROOT
BRANCH  69  84
ATOM     84  C   UNL     1       9.300  12.800  57.766  0.00  0.00    +0.000 C 
ATOM     85  C   UNL     1       9.251  13.231  56.646  0.00  0.00    +0.000 C 
BRANCH  85  86
ATOM     86  C   UNL     1       9.187  13.777  55.216  0.00  0.00    +0.000 C 
ATOM     87  C   UNL     1       9.138  14.252  53.972  0.00  0.00    +0.000 C 
ENDBRANCH  85  86
ENDBRANCH  69  84
BRANCH  13  88
ATOM     88  C   UNL     1       6.520  10.657  62.792  0.00  0.00    +0.000 C 
BRANCH  88  89
ATOM     89  O   UNL     1       6.372  10.019  63.945  0.00  0.00    +0.000 OA
ATOM     90  H   UNL     1       7.228   9.658  64.238  0.00  0.00    +0.000 HD
ENDBRANCH  88  89
ENDBRANCH  13  88
TORSDOF 4
ENDMDL
MODEL 3
REMARK VINA RESULT:      -7.2      5.901     13.616
REMARK  Name = Cyclosporin_A.pdbqt.pdb
REMARK  4 active torsions:
REMARK  status: ('A' for Active; 'I' for Inactive)
REMARK    1  A    between atoms: N_13  and  C_36
REMARK    2  A    between atoms: C_36  and  O_70
REMARK    3  A    between atoms: C_72  and  C_73
REMARK    4  A    between atoms: C_75  and  C_76
REMARK                            x       y       z     vdW  Elec       q    Type
REMARK                         _______ _______ _______ _____ _____    ______ ____
ROOT
ATOM      1  O   UNL     1      21.341   4.659  67.801  0.00  0.00    +0.000 OA
ATOM      2  O   UNL     1      19.155   7.701  71.306  0.00  0.00    +0.000 OA
ATOM      3  O   UNL     1      14.649   7.904  69.701  0.00  0.00    +0.000 OA
ATOM      4  O   UNL     1      19.761   4.876  63.169  0.00  0.00    +0.000 OA
ATOM      5  O   UNL     1      16.779   4.681  72.988  0.00  0.00    +0.000 OA
ATOM      6  O   UNL     1      11.103  -3.487  67.680  0.00  0.00    +0.000 OA
ATOM      7  O   UNL     1      20.854  -0.132  65.365  0.00  0.00    +0.000 OA
ATOM      8  O   UNL     1      13.075  -1.548  63.604  0.00  0.00    +0.000 OA
ATOM      9  O   UNL     1      10.925  -0.788  71.701  0.00  0.00    +0.000 OA
ATOM     10  O   UNL     1      17.172  -1.504  63.314  0.00  0.00    +0.000 OA
ATOM     11  O   UNL     1      14.780   0.836  72.749  0.00  0.00    +0.000 OA
ATOM     12  N   UNL     1      19.254   6.707  69.647  0.00  0.00    +0.000 NA
ATOM     13  N   UNL     1      19.257   5.382  66.841  0.00  0.00    +0.000 NA
ATOM     14  N   UNL     1      16.404   7.877  70.629  0.00  0.00    +0.000 NA
ATOM     15  N   UNL     1      14.642   5.486  71.767  0.00  0.00    +0.000 NA
ATOM     16  N   UNL     1      19.043   3.144  64.729  0.00  0.00    +0.000 NA
ATOM     17  N   UNL     1      10.717  -1.174  67.891  0.00  0.00    +0.000 N 
ATOM     18  N   UNL     1      13.098  -1.108  65.902  0.00  0.00    +0.000 N 
ATOM     19  N   UNL     1      15.678  -1.231  64.572  0.00  0.00    +0.000 NA
ATOM     20  N   UNL     1      18.736   0.392  66.011  0.00  0.00    +0.000 NA
ATOM     21  N   UNL     1      14.690   2.603  71.007  0.00  0.00    +0.000 NA
ATOM     22  N   UNL     1      12.602  -0.092  70.109  0.00  0.00    +0.000 NA
ATOM     23  C   UNL     1      20.034   5.649  69.282  0.00  0.00    +0.000 C 
ATOM     24  C   UNL     1      17.226   7.252  69.782  0.00  0.00    +0.000 C 
ATOM     25  C   UNL     1      19.687   5.429  65.529  0.00  0.00    +0.000 C 
ATOM     26  C   UNL     1      21.217   5.319  69.919  0.00  0.00    +0.000 C 
ATOM     27  C   UNL     1      16.908   8.066  68.587  0.00  0.00    +0.000 C 
ATOM     28  C   UNL     1      20.090   5.266  67.958  0.00  0.00    +0.000 C 
ATOM     29  C   UNL     1      18.302   7.070  70.583  0.00  0.00    +0.000 C 
ATOM     30  C   UNL     1      15.142   6.691  71.793  0.00  0.00    +0.000 C 
ATOM     31  C   UNL     1      15.303   7.128  70.512  0.00  0.00    +0.000 C 
ATOM     32  C   UNL     1      19.206   4.518  64.447  0.00  0.00    +0.000 C 
ATOM     33  C   UNL     1      21.331   6.420  70.823  0.00  0.00    +0.000 C 
ATOM     34  C   UNL     1      22.066   4.887  68.955  0.00  0.00    +0.000 C 
ATOM     35  C   UNL     1      20.111   7.061  70.673  0.00  0.00    +0.000 C 
ATOM     36  C   UNL     1      15.785   8.744  69.688  0.00  0.00    +0.000 C 
ATOM     37  C   UNL     1      20.051   2.156  64.599  0.00  0.00    +0.000 C 
ATOM     38  C   UNL     1      12.466  -2.218  66.401  0.00  0.00    +0.000 A 
ATOM     39  C   UNL     1      15.787   4.848  71.986  0.00  0.00    +0.000 C 
ATOM     40  C   UNL     1      10.597  -1.086  69.301  0.00  0.00    +0.000 C 
ATOM     41  C   UNL     1      14.688  -0.450  64.074  0.00  0.00    +0.000 C 
ATOM     42  C   UNL     1      13.810   5.834  72.948  0.00  0.00    +0.000 C 
ATOM     43  C   UNL     1      12.722  -3.600  66.147  0.00  0.00    +0.000 A 
ATOM     44  C   UNL     1       8.861  -1.578  69.467  0.00  0.00    +0.000 C 
ATOM     45  C   UNL     1      15.479   3.437  71.610  0.00  0.00    +0.000 C 
ATOM     46  C   UNL     1      14.226  -1.179  62.841  0.00  0.00    +0.000 C 
ATOM     47  C   UNL     1      21.187   2.597  63.856  0.00  0.00    +0.000 C 
ATOM     48  C   UNL     1      11.438  -2.199  67.339  0.00  0.00    +0.000 A 
ATOM     49  C   UNL     1      19.923   0.959  65.224  0.00  0.00    +0.000 C 
ATOM     50  C   UNL     1      13.577  -1.012  64.682  0.00  0.00    +0.000 C 
ATOM     51  C   UNL     1      11.389  -0.704  70.359  0.00  0.00    +0.000 C 
ATOM     52  C   UNL     1      17.657   0.014  65.095  0.00  0.00    +0.000 C 
ATOM     53  C   UNL     1      13.779  -4.225  65.277  0.00  0.00    +0.000 C 
ATOM     54  C   UNL     1      11.879  -4.330  66.946  0.00  0.00    +0.000 A 
ATOM     55  C   UNL     1      16.733  -0.474  64.134  0.00  0.00    +0.000 C 
ATOM     56  C   UNL     1      13.434   0.320  71.010  0.00  0.00    +0.000 C 
ATOM     57  C   UNL     1      16.451   3.550  72.568  0.00  0.00    +0.000 C 
ATOM     58  C   UNL     1       9.444  -1.482  68.229  0.00  0.00    +0.000 C 
ATOM     59  C   UNL     1      21.666   3.548  63.306  0.00  0.00    +0.000 C 
ATOM     60  C   UNL     1      14.377   1.408  71.486  0.00  0.00    +0.000 C 
ATOM     61  C   UNL     1      15.881  -2.189  63.349  0.00  0.00    +0.000 C 
ATOM     62  C   UNL     1      19.797  -0.391  65.954  0.00  0.00    +0.000 C 
ATOM     63  C   UNL     1      13.966   0.056  72.228  0.00  0.00    +0.000 C 
ATOM     64  H   UNL     1      18.555   3.004  65.615  0.00  0.00    +0.000 HD
ATOM     65  H   UNL     1      13.401  -0.419  66.587  0.00  0.00    +0.000 HD
ATOM     66  H   UNL     1      14.096   2.976  70.271  0.00  0.00    +0.000 HD
ATOM     67  H   UNL     1      12.614   0.335  69.188  0.00  0.00    +0.000 HD
ATOM     68  C   UNL     1      20.810   5.994  65.176  0.00  0.00    +0.000 C 
ATOM     69  C   UNL     1      21.714   5.898  64.082  0.00  0.00    +0.000 C 
ATOM     70  C   UNL     1      21.201   4.892  63.130  0.00  0.00    +0.000 C 
ATOM     71  C   UNL     1      17.334   9.533  67.905  0.00  0.00    +0.000 C 
ATOM     72  C   UNL     1      17.468   9.797  66.607  0.00  0.00    +0.000 C 
ATOM     73  C   UNL     1      16.290   9.639  68.829  0.00  0.00    +0.000 C 
ATOM     74  C   UNL     1      14.286   7.180  72.883  0.00  0.00    +0.000 C 
ATOM     75  C   UNL     1      14.010   6.700  74.156  0.00  0.00    +0.000 C 
ATOM     76  C   UNL     1      12.857   7.283  75.001  0.00  0.00    +0.000 C 
ATOM     77  C   UNL     1      14.019   5.320  74.214  0.00  0.00    +0.000 C 
ATOM     78  C   UNL     1      14.542  -1.411  61.290  0.00  0.00    +0.000 C 
ATOM     79  C   UNL     1      13.811  -1.699  60.216  0.00  0.00    +0.000 C 
ATOM     80  C   UNL     1      15.509  -2.084  62.038  0.00  0.00    +0.000 C 
ATOM     81  C   UNL     1       8.591  -1.578  70.774  0.00  0.00    +0.000 C 
ATOM     82  C   UNL     1       7.242  -1.927  71.309  0.00  0.00    +0.000 C 
ATOM     83  C   UNL     1       9.659  -1.198  71.624  0.00  0.00    +0.000 C 
ENDROOT
BRANCH  69  84
ATOM     84  C   UNL     1      23.058   6.342  64.070  0.00  0.00    +0.000 C 
ATOM     85  C   UNL     1      24.201   6.711  64.061  0.00  0.00    +0.000 C 
BRANCH  85  86
ATOM     86  C   UNL     1      25.660   7.177  64.052  0.00  0.00    +0.000 C 
ATOM     87  C   UNL     1      26.930   7.578  64.047  0.00  0.00    +0.000 C 
ENDBRANCH  85  86
ENDBRANCH  69  84
BRANCH  13  88
ATOM     88  C   UNL     1      17.837   5.161  67.060  0.00  0.00    +0.000 C 
BRANCH  88  89
ATOM     89  O   UNL     1      16.541   4.944  67.241  0.00  0.00    +0.000 OA
ATOM     90  H   UNL     1      16.065   5.052  66.399  0.00  0.00    +0.000 HD
ENDBRANCH  88  89
ENDBRANCH  13  88
TORSDOF 4
ENDMDL
MODEL 4
REMARK VINA RESULT:      -7.1      5.562     13.379
REMARK  Name = Cyclosporin_A.pdbqt.pdb
REMARK  4 active torsions:
REMARK  status: ('A' for Active; 'I' for Inactive)
REMARK    1  A    between atoms: N_13  and  C_36
REMARK    2  A    between atoms: C_36  and  O_70
REMARK    3  A    between atoms: C_72  and  C_73
REMARK    4  A    between atoms: C_75  and  C_76
REMARK                            x       y       z     vdW  Elec       q    Type
REMARK                         _______ _______ _______ _____ _____    ______ ____
ROOT
ATOM      1  O   UNL     1      22.342   2.771  65.379  0.00  0.00    +0.000 OA
ATOM      2  O   UNL     1      21.123   6.392  68.801  0.00  0.00    +0.000 OA
ATOM      3  O   UNL     1      16.537   7.220  67.706  0.00  0.00    +0.000 OA
ATOM      4  O   UNL     1      20.237   2.893  60.956  0.00  0.00    +0.000 OA
ATOM      5  O   UNL     1      18.540   3.947  71.024  0.00  0.00    +0.000 OA
ATOM      6  O   UNL     1      11.029  -3.542  67.204  0.00  0.00    +0.000 OA
ATOM      7  O   UNL     1      20.807  -2.044  63.484  0.00  0.00    +0.000 OA
ATOM      8  O   UNL     1      12.743  -2.276  62.762  0.00  0.00    +0.000 OA
ATOM      9  O   UNL     1      11.789  -0.553  70.941  0.00  0.00    +0.000 OA
ATOM     10  O   UNL     1      16.725  -2.936  62.006  0.00  0.00    +0.000 OA
ATOM     11  O   UNL     1      15.952   0.482  71.384  0.00  0.00    +0.000 OA
ATOM     12  N   UNL     1      20.854   5.272  67.244  0.00  0.00    +0.000 NA
ATOM     13  N   UNL     1      20.292   3.755  64.596  0.00  0.00    +0.000 NA
ATOM     14  N   UNL     1      18.370   6.972  68.427  0.00  0.00    +0.000 NA
ATOM     15  N   UNL     1      16.417   5.002  69.982  0.00  0.00    +0.000 NA
ATOM     16  N   UNL     1      19.464   1.430  62.747  0.00  0.00    +0.000 NA
ATOM     17  N   UNL     1      11.038  -1.188  67.234  0.00  0.00    +0.000 N 
ATOM     18  N   UNL     1      13.127  -1.672  64.991  0.00  0.00    +0.000 N 
ATOM     19  N   UNL     1      15.465  -2.323  63.393  0.00  0.00    +0.000 NA
ATOM     20  N   UNL     1      18.898  -1.127  64.313  0.00  0.00    +0.000 NA
ATOM     21  N   UNL     1      15.917   2.101  69.502  0.00  0.00    +0.000 NA
ATOM     22  N   UNL     1      13.337  -0.269  69.109  0.00  0.00    +0.000 NA
ATOM     23  C   UNL     1      21.406   4.074  66.897  0.00  0.00    +0.000 C 
ATOM     24  C   UNL     1      18.970   6.155  67.556  0.00  0.00    +0.000 C 
ATOM     25  C   UNL     1      20.553   3.629  63.246  0.00  0.00    +0.000 C 
ATOM     26  C   UNL     1      22.595   3.602  67.424  0.00  0.00    +0.000 C 
ATOM     27  C   UNL     1      18.632   6.918  66.332  0.00  0.00    +0.000 C 
ATOM     28  C   UNL     1      21.232   3.587  65.617  0.00  0.00    +0.000 C 
ATOM     29  C   UNL     1      20.098   5.859  68.243  0.00  0.00    +0.000 C 
ATOM     30  C   UNL     1      17.098   6.104  69.835  0.00  0.00    +0.000 C 
ATOM     31  C   UNL     1      17.160   6.409  68.508  0.00  0.00    +0.000 C 
ATOM     32  C   UNL     1      19.802   2.731  62.318  0.00  0.00    +0.000 C 
ATOM     33  C   UNL     1      22.994   4.734  68.198  0.00  0.00    +0.000 C 
ATOM     34  C   UNL     1      23.235   2.962  66.415  0.00  0.00    +0.000 C 
ATOM     35  C   UNL     1      21.879   5.555  68.127  0.00  0.00    +0.000 C 
ATOM     36  C   UNL     1      17.779   7.855  67.483  0.00  0.00    +0.000 C 
ATOM     37  C   UNL     1      20.280   0.280  62.598  0.00  0.00    +0.000 C 
ATOM     38  C   UNL     1      12.398  -2.619  65.662  0.00  0.00    +0.000 A 
ATOM     39  C   UNL     1      17.466   4.200  70.129  0.00  0.00    +0.000 C 
ATOM     40  C   UNL     1      11.115  -0.975  68.634  0.00  0.00    +0.000 C 
ATOM     41  C   UNL     1      14.554  -1.429  62.939  0.00  0.00    +0.000 C 
ATOM     42  C   UNL     1      15.807   5.572  71.211  0.00  0.00    +0.000 C 
ATOM     43  C   UNL     1      12.401  -4.040  65.514  0.00  0.00    +0.000 A 
ATOM     44  C   UNL     1       9.359  -1.156  69.042  0.00  0.00    +0.000 C 
ATOM     45  C   UNL     1      16.897   2.836  69.928  0.00  0.00    +0.000 C 
ATOM     46  C   UNL     1      13.830  -2.162  61.842  0.00  0.00    +0.000 C 
ATOM     47  C   UNL     1      21.367   0.468  61.693  0.00  0.00    +0.000 C 
ATOM     48  C   UNL     1      11.515  -2.358  66.704  0.00  0.00    +0.000 A 
ATOM     49  C   UNL     1      20.048  -0.827  63.346  0.00  0.00    +0.000 C 
ATOM     50  C   UNL     1      13.455  -1.750  63.721  0.00  0.00    +0.000 C 
ATOM     51  C   UNL     1      12.085  -0.650  69.553  0.00  0.00    +0.000 C 
ATOM     52  C   UNL     1      17.665  -1.390  63.566  0.00  0.00    +0.000 C 
ATOM     53  C   UNL     1      13.228  -4.897  64.594  0.00  0.00    +0.000 C 
ATOM     54  C   UNL     1      11.564  -4.556  66.470  0.00  0.00    +0.000 A 
ATOM     55  C   UNL     1      16.561  -1.789  62.768  0.00  0.00    +0.000 C 
ATOM     56  C   UNL     1      14.331   0.066  69.866  0.00  0.00    +0.000 C 
ATOM     57  C   UNL     1      17.988   2.858  70.754  0.00  0.00    +0.000 C 
ATOM     58  C   UNL     1       9.787  -1.253  67.742  0.00  0.00    +0.000 C 
ATOM     59  C   UNL     1      21.914   1.282  61.003  0.00  0.00    +0.000 C 
ATOM     60  C   UNL     1      15.485   1.015  70.126  0.00  0.00    +0.000 C 
ATOM     61  C   UNL     1      15.359  -3.393  62.254  0.00  0.00    +0.000 C 
ATOM     62  C   UNL     1      19.807  -2.078  64.212  0.00  0.00    +0.000 C 
ATOM     63  C   UNL     1      14.967  -0.189  71.035  0.00  0.00    +0.000 C 
ATOM     64  H   UNL     1      19.077   1.440  63.691  0.00  0.00    +0.000 HD
ATOM     65  H   UNL     1      13.619  -0.993  65.567  0.00  0.00    +0.000 HD
ATOM     66  H   UNL     1      15.299   2.510  68.806  0.00  0.00    +0.000 HD
ATOM     67  H   UNL     1      13.297   0.079  68.156  0.00  0.00    +0.000 HD
ATOM     68  C   UNL     1      21.695   3.971  62.715  0.00  0.00    +0.000 C 
ATOM     69  C   UNL     1      22.427   3.642  61.539  0.00  0.00    +0.000 C 
ATOM     70  C   UNL     1      21.646   2.667  60.752  0.00  0.00    +0.000 C 
ATOM     71  C   UNL     1      19.191   8.237  65.469  0.00  0.00    +0.000 C 
ATOM     72  C   UNL     1      19.198   8.375  64.144  0.00  0.00    +0.000 C 
ATOM     73  C   UNL     1      18.303   8.586  66.490  0.00  0.00    +0.000 C 
ATOM     74  C   UNL     1      16.475   6.811  70.963  0.00  0.00    +0.000 C 
ATOM     75  C   UNL     1      16.292   6.483  72.299  0.00  0.00    +0.000 C 
ATOM     76  C   UNL     1      15.361   7.311  73.210  0.00  0.00    +0.000 C 
ATOM     77  C   UNL     1      16.093   5.128  72.488  0.00  0.00    +0.000 C 
ATOM     78  C   UNL     1      13.905  -2.562  60.294  0.00  0.00    +0.000 C 
ATOM     79  C   UNL     1      13.007  -2.805  59.343  0.00  0.00    +0.000 C 
ATOM     80  C   UNL     1      14.843  -3.327  60.989  0.00  0.00    +0.000 C 
ATOM     81  C   UNL     1       9.262  -1.012  70.365  0.00  0.00    +0.000 C 
ATOM     82  C   UNL     1       7.954  -1.089  71.081  0.00  0.00    +0.000 C 
ATOM     83  C   UNL     1      10.475  -0.751  71.048  0.00  0.00    +0.000 C 
ENDROOT
BRANCH  69  84
ATOM     84  C   UNL     1      23.810   3.854  61.333  0.00  0.00    +0.000 C 
ATOM     85  C   UNL     1      24.983   4.037  61.150  0.00  0.00    +0.000 C 
BRANCH  85  86
ATOM     86  C   UNL     1      26.479   4.269  60.911  0.00  0.00    +0.000 C 
ATOM     87  C   UNL     1      27.778   4.470  60.699  0.00  0.00    +0.000 C 
ENDBRANCH  85  86
ENDBRANCH  69  84
BRANCH  13  88
ATOM     88  C   UNL     1      18.895   3.791  64.996  0.00  0.00    +0.000 C 
BRANCH  88  89
ATOM     89  O   UNL     1      17.616   3.802  65.347  0.00  0.00    +0.000 OA
ATOM     90  H   UNL     1      17.380   2.959  65.773  0.00  0.00    +0.000 HD
ENDBRANCH  88  89
ENDBRANCH  13  88
TORSDOF 4
ENDMDL
MODEL 5
REMARK VINA RESULT:      -6.9     13.755     19.035
REMARK  Name = Cyclosporin_A.pdbqt.pdb
REMARK  4 active torsions:
REMARK  status: ('A' for Active; 'I' for Inactive)
REMARK    1  A    between atoms: N_13  and  C_36
REMARK    2  A    between atoms: C_36  and  O_70
REMARK    3  A    between atoms: C_72  and  C_73
REMARK    4  A    between atoms: C_75  and  C_76
REMARK                            x       y       z     vdW  Elec       q    Type
REMARK                         _______ _______ _______ _____ _____    ______ ____
ROOT
ATOM      1  O   UNL     1       1.499  14.014  72.339  0.00  0.00    +0.000 OA
ATOM      2  O   UNL     1       5.903  16.426  71.291  0.00  0.00    +0.000 OA
ATOM      3  O   UNL     1       8.711  12.759  70.031  0.00  0.00    +0.000 OA
ATOM      4  O   UNL     1       1.670   9.507  74.252  0.00  0.00    +0.000 OA
ATOM      5  O   UNL     1       5.746  15.708  67.161  0.00  0.00    +0.000 OA
ATOM      6  O   UNL     1       2.596   6.279  61.844  0.00  0.00    +0.000 OA
ATOM      7  O   UNL     1      -2.104  10.561  70.286  0.00  0.00    +0.000 OA
ATOM      8  O   UNL     1       1.723   4.582  66.385  0.00  0.00    +0.000 OA
ATOM      9  O   UNL     1       5.526  10.100  61.301  0.00  0.00    +0.000 OA
ATOM     10  O   UNL     1      -1.062   6.575  68.653  0.00  0.00    +0.000 OA
ATOM     11  O   UNL     1       4.320  13.443  63.746  0.00  0.00    +0.000 OA
ATOM     12  N   UNL     1       4.762  14.894  71.607  0.00  0.00    +0.000 NA
ATOM     13  N   UNL     1       3.193  12.306  72.293  0.00  0.00    +0.000 NA
ATOM     14  N   UNL     1       7.723  14.443  70.388  0.00  0.00    +0.000 NA
ATOM     15  N   UNL     1       7.475  13.785  67.286  0.00  0.00    +0.000 NA
ATOM     16  N   UNL     1       1.281   9.921  71.881  0.00  0.00    +0.000 NA
ATOM     17  N   UNL     1       4.536   6.838  63.056  0.00  0.00    +0.000 N 
ATOM     18  N   UNL     1       2.535   6.549  65.411  0.00  0.00    +0.000 N 
ATOM     19  N   UNL     1       0.417   6.845  67.377  0.00  0.00    +0.000 NA
ATOM     20  N   UNL     1      -0.167  10.070  69.199  0.00  0.00    +0.000 NA
ATOM     21  N   UNL     1       5.236  12.456  65.831  0.00  0.00    +0.000 NA
ATOM     22  N   UNL     1       4.533   9.912  63.495  0.00  0.00    +0.000 NA
ATOM     23  C   UNL     1       3.409  14.750  71.507  0.00  0.00    +0.000 C 
ATOM     24  C   UNL     1       6.538  14.048  70.863  0.00  0.00    +0.000 C 
ATOM     25  C   UNL     1       2.642  11.501  73.270  0.00  0.00    +0.000 C 
ATOM     26  C   UNL     1       2.525  15.814  71.536  0.00  0.00    +0.000 C 
ATOM     27  C   UNL     1       7.058  13.129  71.901  0.00  0.00    +0.000 C 
ATOM     28  C   UNL     1       2.803  13.621  72.018  0.00  0.00    +0.000 C 
ATOM     29  C   UNL     1       5.868  15.223  70.844  0.00  0.00    +0.000 C 
ATOM     30  C   UNL     1       7.995  14.387  68.320  0.00  0.00    +0.000 C 
ATOM     31  C   UNL     1       7.907  13.561  69.401  0.00  0.00    +0.000 C 
ATOM     32  C   UNL     1       2.078  10.139  73.025  0.00  0.00    +0.000 C 
ATOM     33  C   UNL     1       3.429  16.884  71.819  0.00  0.00    +0.000 C 
ATOM     34  C   UNL     1       1.433  15.389  72.217  0.00  0.00    +0.000 C 
ATOM     35  C   UNL     1       4.667  16.270  71.705  0.00  0.00    +0.000 C 
ATOM     36  C   UNL     1       8.538  13.579  71.169  0.00  0.00    +0.000 C 
ATOM     37  C   UNL     1      -0.123  10.106  71.813  0.00  0.00    +0.000 C 
ATOM     38  C   UNL     1       2.289   6.320  64.081  0.00  0.00    +0.000 A 
ATOM     39  C   UNL     1       6.304  14.413  67.325  0.00  0.00    +0.000 C 
ATOM     40  C   UNL     1       4.995   7.925  62.270  0.00  0.00    +0.000 C 
ATOM     41  C   UNL     1       1.521   6.114  67.666  0.00  0.00    +0.000 C 
ATOM     42  C   UNL     1       8.545  14.370  66.439  0.00  0.00    +0.000 C 
ATOM     43  C   UNL     1       1.084   5.897  63.441  0.00  0.00    +0.000 A 
ATOM     44  C   UNL     1       5.851   6.992  60.974  0.00  0.00    +0.000 C 
ATOM     45  C   UNL     1       5.430  13.582  66.447  0.00  0.00    +0.000 C 
ATOM     46  C   UNL     1       1.039   4.689  67.635  0.00  0.00    +0.000 C 
ATOM     47  C   UNL     1      -0.742  10.239  73.092  0.00  0.00    +0.000 C 
ATOM     48  C   UNL     1       3.204   6.520  63.053  0.00  0.00    +0.000 A 
ATOM     49  C   UNL     1      -0.741  10.228  70.611  0.00  0.00    +0.000 C 
ATOM     50  C   UNL     1       2.008   5.855  66.394  0.00  0.00    +0.000 C 
ATOM     51  C   UNL     1       4.971   9.299  62.337  0.00  0.00    +0.000 C 
ATOM     52  C   UNL     1       0.084   8.655  68.911  0.00  0.00    +0.000 C 
ATOM     53  C   UNL     1      -0.263   5.610  64.048  0.00  0.00    +0.000 C 
ATOM     54  C   UNL     1       1.314   5.893  62.089  0.00  0.00    +0.000 A 
ATOM     55  C   UNL     1       0.144   7.261  68.654  0.00  0.00    +0.000 C 
ATOM     56  C   UNL     1       4.468  11.190  63.688  0.00  0.00    +0.000 C 
ATOM     57  C   UNL     1       5.073  14.902  66.483  0.00  0.00    +0.000 C 
ATOM     58  C   UNL     1       5.249   6.341  62.020  0.00  0.00    +0.000 C 
ATOM     59  C   UNL     1      -0.515  10.303  74.267  0.00  0.00    +0.000 C 
ATOM     60  C   UNL     1       4.710  12.362  64.619  0.00  0.00    +0.000 C 
ATOM     61  C   UNL     1      -0.671   5.728  67.526  0.00  0.00    +0.000 C 
ATOM     62  C   UNL     1      -1.445  10.395  69.252  0.00  0.00    +0.000 C 
ATOM     63  C   UNL     1       4.198  12.384  63.107  0.00  0.00    +0.000 C 
ATOM     64  H   UNL     1       1.709  10.330  71.049  0.00  0.00    +0.000 HD
ATOM     65  H   UNL     1       2.972   7.439  65.639  0.00  0.00    +0.000 HD
ATOM     66  H   UNL     1       5.732  11.642  66.185  0.00  0.00    +0.000 HD
ATOM     67  H   UNL     1       4.619   9.291  64.294  0.00  0.00    +0.000 HD
ATOM     68  C   UNL     1       2.207  11.970  74.407  0.00  0.00    +0.000 C 
ATOM     69  C   UNL     1       1.286  11.558  75.410  0.00  0.00    +0.000 C 
ATOM     70  C   UNL     1       0.706  10.258  75.016  0.00  0.00    +0.000 C 
ATOM     71  C   UNL     1       7.654  13.193  73.463  0.00  0.00    +0.000 C 
ATOM     72  C   UNL     1       7.458  12.294  74.426  0.00  0.00    +0.000 C 
ATOM     73  C   UNL     1       8.638  13.396  72.491  0.00  0.00    +0.000 C 
ATOM     74  C   UNL     1       9.160  14.924  67.603  0.00  0.00    +0.000 C 
ATOM     75  C   UNL     1       9.294  15.670  66.440  0.00  0.00    +0.000 C 
ATOM     76  C   UNL     1      10.669  15.874  65.771  0.00  0.00    +0.000 C 
ATOM     77  C   UNL     1       8.326  15.364  65.503  0.00  0.00    +0.000 C 
ATOM     78  C   UNL     1       0.314   3.557  68.504  0.00  0.00    +0.000 C 
ATOM     79  C   UNL     1       0.360   2.228  68.539  0.00  0.00    +0.000 C 
ATOM     80  C   UNL     1      -0.642   4.505  68.135  0.00  0.00    +0.000 C 
ATOM     81  C   UNL     1       6.327   7.894  60.112  0.00  0.00    +0.000 C 
ATOM     82  C   UNL     1       7.107   7.503  58.901  0.00  0.00    +0.000 C 
ATOM     83  C   UNL     1       6.070   9.249  60.432  0.00  0.00    +0.000 C 
ENDROOT
BRANCH  69  84
ATOM     84  C   UNL     1       0.694  12.389  76.390  0.00  0.00    +0.000 C 
ATOM     85  C   UNL     1       0.189  13.100  77.216  0.00  0.00    +0.000 C 
BRANCH  85  86
ATOM     86  C   UNL     1      -0.455  14.010  78.267  0.00  0.00    +0.000 C 
ATOM     87  C   UNL     1      -1.019  14.803  79.177  0.00  0.00    +0.000 C 
ENDBRANCH  85  86
ENDBRANCH  69  84
BRANCH  13  88
ATOM     88  C   UNL     1       4.040  11.658  71.305  0.00  0.00    +0.000 C 
BRANCH  88  89
ATOM     89  O   UNL     1       4.798  11.045  70.406  0.00  0.00    +0.000 OA
ATOM     90  H   UNL     1       4.270  10.829  69.617  0.00  0.00    +0.000 HD
ENDBRANCH  88  89
ENDBRANCH  13  88
TORSDOF 4
ENDMDL
MODEL 6
REMARK VINA RESULT:      -6.8     12.191     19.806
REMARK  Name = Cyclosporin_A.pdbqt.pdb
REMARK  4 active torsions:
REMARK  status: ('A' for Active; 'I' for Inactive)
REMARK    1  A    between atoms: N_13  and  C_36
REMARK    2  A    between atoms: C_36  and  O_70
REMARK    3  A    between atoms: C_72  and  C_73
REMARK    4  A    between atoms: C_75  and  C_76
REMARK                            x       y       z     vdW  Elec       q    Type
REMARK                         _______ _______ _______ _____ _____    ______ ____
ROOT
ATOM      1  O   UNL     1       6.550  14.647  73.646  0.00  0.00    +0.000 OA
ATOM      2  O   UNL     1       2.137  12.169  74.482  0.00  0.00    +0.000 OA
ATOM      3  O   UNL     1       2.983   7.981  72.323  0.00  0.00    +0.000 OA
ATOM      4  O   UNL     1       8.983  13.800  69.478  0.00  0.00    +0.000 OA
ATOM      5  O   UNL     1       3.781   9.368  77.136  0.00  0.00    +0.000 OA
ATOM      6  O   UNL     1      13.674   4.016  76.371  0.00  0.00    +0.000 OA
ATOM      7  O   UNL     1      11.899  14.209  74.213  0.00  0.00    +0.000 OA
ATOM      8  O   UNL     1      14.269   6.706  72.287  0.00  0.00    +0.000 OA
ATOM      9  O   UNL     1       9.205   3.418  78.145  0.00  0.00    +0.000 OA
ATOM     10  O   UNL     1      14.280  10.794  72.692  0.00  0.00    +0.000 OA
ATOM     11  O   UNL     1       7.166   7.173  78.735  0.00  0.00    +0.000 OA
ATOM     12  N   UNL     1       3.881  12.449  73.688  0.00  0.00    +0.000 NA
ATOM     13  N   UNL     1       6.539  12.785  72.122  0.00  0.00    +0.000 NA
ATOM     14  N   UNL     1       2.442   9.570  73.383  0.00  0.00    +0.000 NA
ATOM     15  N   UNL     1       3.847   7.499  75.345  0.00  0.00    +0.000 NA
ATOM     16  N   UNL     1       9.577  12.740  71.593  0.00  0.00    +0.000 NA
ATOM     17  N   UNL     1      11.644   3.760  75.206  0.00  0.00    +0.000 N 
ATOM     18  N   UNL     1      12.627   6.413  73.930  0.00  0.00    +0.000 N 
ATOM     19  N   UNL     1      13.396   9.149  73.328  0.00  0.00    +0.000 NA
ATOM     20  N   UNL     1      11.164  12.059  74.109  0.00  0.00    +0.000 NA
ATOM     21  N   UNL     1       6.665   7.465  76.321  0.00  0.00    +0.000 NA
ATOM     22  N   UNL     1       9.462   5.360  76.731  0.00  0.00    +0.000 NA
ATOM     23  C   UNL     1       4.942  13.202  74.100  0.00  0.00    +0.000 C 
ATOM     24  C   UNL     1       3.409  10.466  73.168  0.00  0.00    +0.000 C 
ATOM     25  C   UNL     1       7.216  13.410  71.093  0.00  0.00    +0.000 C 
ATOM     26  C   UNL     1       4.830  14.251  74.995  0.00  0.00    +0.000 C 
ATOM     27  C   UNL     1       3.404  10.387  71.690  0.00  0.00    +0.000 C 
ATOM     28  C   UNL     1       5.993  13.431  73.236  0.00  0.00    +0.000 C 
ATOM     29  C   UNL     1       3.087  11.395  74.099  0.00  0.00    +0.000 C 
ATOM     30  C   UNL     1       2.818   8.070  74.784  0.00  0.00    +0.000 C 
ATOM     31  C   UNL     1       3.161   8.451  73.521  0.00  0.00    +0.000 C 
ATOM     32  C   UNL     1       8.587  13.037  70.632  0.00  0.00    +0.000 C 
ATOM     33  C   UNL     1       3.410  14.302  75.146  0.00  0.00    +0.000 C 
ATOM     34  C   UNL     1       5.701  15.204  74.582  0.00  0.00    +0.000 C 
ATOM     35  C   UNL     1       2.994  13.164  74.472  0.00  0.00    +0.000 C 
ATOM     36  C   UNL     1       2.260   9.160  72.034  0.00  0.00    +0.000 C 
ATOM     37  C   UNL     1      10.444  13.688  72.195  0.00  0.00    +0.000 C 
ATOM     38  C   UNL     1      13.291   5.639  74.847  0.00  0.00    +0.000 A 
ATOM     39  C   UNL     1       4.226   8.552  76.062  0.00  0.00    +0.000 C 
ATOM     40  C   UNL     1      10.793   3.436  76.292  0.00  0.00    +0.000 C 
ATOM     41  C   UNL     1      13.050   8.301  72.330  0.00  0.00    +0.000 C 
ATOM     42  C   UNL     1       2.926   6.524  75.984  0.00  0.00    +0.000 C 
ATOM     43  C   UNL     1      14.574   5.836  75.442  0.00  0.00    +0.000 A 
ATOM     44  C   UNL     1      11.158   1.666  76.416  0.00  0.00    +0.000 C 
ATOM     45  C   UNL     1       5.615   8.210  76.483  0.00  0.00    +0.000 C 
ATOM     46  C   UNL     1      14.353   7.981  71.647  0.00  0.00    +0.000 C 
ATOM     47  C   UNL     1      10.458  14.950  71.529  0.00  0.00    +0.000 C 
ATOM     48  C   UNL     1      12.783   4.486  75.436  0.00  0.00    +0.000 A 
ATOM     49  C   UNL     1      11.096  13.386  73.346  0.00  0.00    +0.000 C 
ATOM     50  C   UNL     1      13.210   7.075  72.956  0.00  0.00    +0.000 C 
ATOM     51  C   UNL     1       9.867   4.084  77.076  0.00  0.00    +0.000 C 
ATOM     52  C   UNL     1      12.016  11.107  73.392  0.00  0.00    +0.000 C 
ATOM     53  C   UNL     1      15.547   6.968  75.247  0.00  0.00    +0.000 C 
ATOM     54  C   UNL     1      14.761   4.836  76.361  0.00  0.00    +0.000 A 
ATOM     55  C   UNL     1      12.981  10.307  72.725  0.00  0.00    +0.000 C 
ATOM     56  C   UNL     1       8.597   6.072  77.377  0.00  0.00    +0.000 C 
ATOM     57  C   UNL     1       4.963   9.031  77.362  0.00  0.00    +0.000 C 
ATOM     58  C   UNL     1      11.749   2.433  75.445  0.00  0.00    +0.000 C 
ATOM     59  C   UNL     1       9.959  15.569  70.632  0.00  0.00    +0.000 C 
ATOM     60  C   UNL     1       7.402   7.004  77.321  0.00  0.00    +0.000 C 
ATOM     61  C   UNL     1      14.866   9.469  72.889  0.00  0.00    +0.000 C 
ATOM     62  C   UNL     1      11.817  13.061  74.666  0.00  0.00    +0.000 C 
ATOM     63  C   UNL     1       8.127   6.396  78.606  0.00  0.00    +0.000 C 
ATOM     64  H   UNL     1       9.217  12.117  72.316  0.00  0.00    +0.000 HD
ATOM     65  H   UNL     1      11.666   6.655  74.159  0.00  0.00    +0.000 HD
ATOM     66  H   UNL     1       6.780   7.016  75.416  0.00  0.00    +0.000 HD
ATOM     67  H   UNL     1       9.618   5.538  75.744  0.00  0.00    +0.000 HD
ATOM     68  C   UNL     1       6.911  14.608  70.675  0.00  0.00    +0.000 C 
ATOM     69  C   UNL     1       7.573  15.659  69.980  0.00  0.00    +0.000 C 
ATOM     70  C   UNL     1       8.951  15.228  69.671  0.00  0.00    +0.000 C 
ATOM     71  C   UNL     1       2.550  11.009  70.392  0.00  0.00    +0.000 C 
ATOM     72  C   UNL     1       3.047  11.355  69.206  0.00  0.00    +0.000 C 
ATOM     73  C   UNL     1       1.978   9.848  70.920  0.00  0.00    +0.000 C 
ATOM     74  C   UNL     1       1.830   7.095  75.267  0.00  0.00    +0.000 C 
ATOM     75  C   UNL     1       1.530   6.598  76.528  0.00  0.00    +0.000 C 
ATOM     76  C   UNL     1       0.609   5.373  76.711  0.00  0.00    +0.000 C 
ATOM     77  C   UNL     1       2.646   6.505  77.338  0.00  0.00    +0.000 C 
ATOM     78  C   UNL     1      15.398   8.511  70.557  0.00  0.00    +0.000 C 
ATOM     79  C   UNL     1      16.253   7.931  69.718  0.00  0.00    +0.000 C 
ATOM     80  C   UNL     1      15.516   9.306  71.698  0.00  0.00    +0.000 C 
ATOM     81  C   UNL     1      10.440   1.203  77.442  0.00  0.00    +0.000 C 
ATOM     82  C   UNL     1      10.471  -0.232  77.853  0.00  0.00    +0.000 C 
ATOM     83  C   UNL     1       9.623   2.153  78.102  0.00  0.00    +0.000 C 
ENDROOT
BRANCH  69  84
ATOM     84  C   UNL     1       7.173  17.016  69.945  0.00  0.00    +0.000 C 
ATOM     85  C   UNL     1       6.830  18.166  69.922  0.00  0.00    +0.000 C 
BRANCH  85  86
ATOM     86  C   UNL     1       6.389  19.634  69.896  0.00  0.00    +0.000 C 
ATOM     87  C   UNL     1       6.005  20.909  69.879  0.00  0.00    +0.000 C 
ENDBRANCH  85  86
ENDBRANCH  69  84
BRANCH  13  88
ATOM     88  C   UNL     1       6.641  11.337  72.193  0.00  0.00    +0.000 C 
BRANCH  88  89
ATOM     89  O   UNL     1       6.745  10.015  72.235  0.00  0.00    +0.000 OA
ATOM     90  H   UNL     1       6.270   9.619  71.484  0.00  0.00    +0.000 HD
ENDBRANCH  88  89
ENDBRANCH  13  88
TORSDOF 4
ENDMDL
MODEL 7
REMARK VINA RESULT:      -6.5     10.494     17.662
REMARK  Name = Cyclosporin_A.pdbqt.pdb
REMARK  4 active torsions:
REMARK  status: ('A' for Active; 'I' for Inactive)
REMARK    1  A    between atoms: N_13  and  C_36
REMARK    2  A    between atoms: C_36  and  O_70
REMARK    3  A    between atoms: C_72  and  C_73
REMARK    4  A    between atoms: C_75  and  C_76
REMARK                            x       y       z     vdW  Elec       q    Type
REMARK                         _______ _______ _______ _____ _____    ______ ____
ROOT
ATOM      1  O   UNL     1      14.661  -1.045  47.420  0.00  0.00    +0.000 OA
ATOM      2  O   UNL     1      18.895   1.758  48.140  0.00  0.00    +0.000 OA
ATOM      3  O   UNL     1      17.614   4.463  51.876  0.00  0.00    +0.000 OA
ATOM      4  O   UNL     1      10.299   0.976  48.369  0.00  0.00    +0.000 OA
ATOM      5  O   UNL     1      19.924  -0.051  51.781  0.00  0.00    +0.000 OA
ATOM      6  O   UNL     1      13.111  -3.007  60.263  0.00  0.00    +0.000 OA
ATOM      7  O   UNL     1      11.178  -4.298  49.953  0.00  0.00    +0.000 OA
ATOM      8  O   UNL     1       9.522  -1.360  57.318  0.00  0.00    +0.000 OA
ATOM      9  O   UNL     1      17.663  -1.576  59.423  0.00  0.00    +0.000 OA
ATOM     10  O   UNL     1       9.046  -3.217  53.685  0.00  0.00    +0.000 OA
ATOM     11  O   UNL     1      18.875  -2.292  55.346  0.00  0.00    +0.000 OA
ATOM     12  N   UNL     1      17.044   1.257  48.407  0.00  0.00    +0.000 NA
ATOM     13  N   UNL     1      14.006   0.789  48.833  0.00  0.00    +0.000 NA
ATOM     14  N   UNL     1      18.419   3.383  50.418  0.00  0.00    +0.000 NA
ATOM     15  N   UNL     1      19.040   1.939  53.182  0.00  0.00    +0.000 NA
ATOM     16  N   UNL     1      11.435  -0.510  49.934  0.00  0.00    +0.000 NA
ATOM     17  N   UNL     1      13.887  -0.914  59.515  0.00  0.00    +0.000 N 
ATOM     18  N   UNL     1      11.855  -1.535  57.253  0.00  0.00    +0.000 N 
ATOM     19  N   UNL     1      10.406  -2.564  54.956  0.00  0.00    +0.000 NA
ATOM     20  N   UNL     1      12.036  -2.991  51.605  0.00  0.00    +0.000 NA
ATOM     21  N   UNL     1      17.612  -0.347  54.459  0.00  0.00    +0.000 NA
ATOM     22  N   UNL     1      16.202  -1.419  57.507  0.00  0.00    +0.000 NA
ATOM     23  C   UNL     1      16.399   0.073  48.201  0.00  0.00    +0.000 C 
ATOM     24  C   UNL     1      17.407   2.658  49.934  0.00  0.00    +0.000 C 
ATOM     25  C   UNL     1      12.724   0.928  48.339  0.00  0.00    +0.000 C 
ATOM     26  C   UNL     1      16.878  -0.921  47.367  0.00  0.00    +0.000 C 
ATOM     27  C   UNL     1      16.459   3.778  49.740  0.00  0.00    +0.000 C 
ATOM     28  C   UNL     1      15.020   0.031  48.239  0.00  0.00    +0.000 C 
ATOM     29  C   UNL     1      18.086   1.802  49.135  0.00  0.00    +0.000 C 
ATOM     30  C   UNL     1      19.328   2.712  52.172  0.00  0.00    +0.000 C 
ATOM     31  C   UNL     1      18.182   3.304  51.731  0.00  0.00    +0.000 C 
ATOM     32  C   UNL     1      11.481   0.640  49.117  0.00  0.00    +0.000 C 
ATOM     33  C   UNL     1      18.012  -0.255  46.807  0.00  0.00    +0.000 C 
ATOM     34  C   UNL     1      15.797  -1.469  46.759  0.00  0.00    +0.000 C 
ATOM     35  C   UNL     1      18.080   0.907  47.561  0.00  0.00    +0.000 C 
ATOM     36  C   UNL     1      17.744   4.633  50.479  0.00  0.00    +0.000 C 
ATOM     37  C   UNL     1      11.021  -1.799  49.512  0.00  0.00    +0.000 C 
ATOM     38  C   UNL     1      12.106  -2.288  58.372  0.00  0.00    +0.000 A 
ATOM     39  C   UNL     1      19.042   0.799  52.499  0.00  0.00    +0.000 C 
ATOM     40  C   UNL     1      15.282  -1.112  59.680  0.00  0.00    +0.000 C 
ATOM     41  C   UNL     1      10.159  -1.314  55.415  0.00  0.00    +0.000 C 
ATOM     42  C   UNL     1      20.310   2.356  53.831  0.00  0.00    +0.000 C 
ATOM     43  C   UNL     1      11.516  -3.520  58.788  0.00  0.00    +0.000 A 
ATOM     44  C   UNL     1      15.412  -0.735  61.447  0.00  0.00    +0.000 C 
ATOM     45  C   UNL     1      18.357  -0.160  53.413  0.00  0.00    +0.000 C 
ATOM     46  C   UNL     1       8.813  -1.421  56.079  0.00  0.00    +0.000 C 
ATOM     47  C   UNL     1      10.350  -1.797  48.253  0.00  0.00    +0.000 C 
ATOM     48  C   UNL     1      13.071  -1.998  59.331  0.00  0.00    +0.000 A 
ATOM     49  C   UNL     1      11.349  -2.896  50.239  0.00  0.00    +0.000 C 
ATOM     50  C   UNL     1      10.671  -1.398  56.700  0.00  0.00    +0.000 C 
ATOM     51  C   UNL     1      16.359  -1.414  58.880  0.00  0.00    +0.000 C 
ATOM     52  C   UNL     1      11.111  -2.581  52.666  0.00  0.00    +0.000 C 
ATOM     53  C   UNL     1      10.470  -4.354  58.096  0.00  0.00    +0.000 C 
ATOM     54  C   UNL     1      12.159  -3.921  59.931  0.00  0.00    +0.000 A 
ATOM     55  C   UNL     1      10.109  -2.328  53.639  0.00  0.00    +0.000 C 
ATOM     56  C   UNL     1      17.132  -1.679  56.646  0.00  0.00    +0.000 C 
ATOM     57  C   UNL     1      19.263  -0.753  52.577  0.00  0.00    +0.000 C 
ATOM     58  C   UNL     1      14.205  -0.644  60.802  0.00  0.00    +0.000 C 
ATOM     59  C   UNL     1      10.019  -1.092  47.341  0.00  0.00    +0.000 C 
ATOM     60  C   UNL     1      17.807  -1.321  55.336  0.00  0.00    +0.000 C 
ATOM     61  C   UNL     1       8.981  -3.188  55.146  0.00  0.00    +0.000 C 
ATOM     62  C   UNL     1      11.740  -4.148  51.045  0.00  0.00    +0.000 C 
ATOM     63  C   UNL     1      18.224  -2.441  56.394  0.00  0.00    +0.000 C 
ATOM     64  H   UNL     1      12.284  -0.602  50.492  0.00  0.00    +0.000 HD
ATOM     65  H   UNL     1      12.668  -1.257  56.709  0.00  0.00    +0.000 HD
ATOM     66  H   UNL     1      17.017   0.424  54.749  0.00  0.00    +0.000 HD
ATOM     67  H   UNL     1      15.410  -0.848  57.227  0.00  0.00    +0.000 HD
ATOM     68  C   UNL     1      12.460   0.951  47.061  0.00  0.00    +0.000 C 
ATOM     69  C   UNL     1      11.331   0.692  46.235  0.00  0.00    +0.000 C 
ATOM     70  C   UNL     1      10.193   0.309  47.095  0.00  0.00    +0.000 C 
ATOM     71  C   UNL     1      16.126   4.974  48.619  0.00  0.00    +0.000 C 
ATOM     72  C   UNL     1      14.923   5.436  48.282  0.00  0.00    +0.000 C 
ATOM     73  C   UNL     1      17.100   5.349  49.549  0.00  0.00    +0.000 C 
ATOM     74  C   UNL     1      20.544   3.282  52.768  0.00  0.00    +0.000 C 
ATOM     75  C   UNL     1      21.678   2.712  53.330  0.00  0.00    +0.000 C 
ATOM     76  C   UNL     1      22.695   3.559  54.124  0.00  0.00    +0.000 C 
ATOM     77  C   UNL     1      21.404   1.525  53.984  0.00  0.00    +0.000 C 
ATOM     78  C   UNL     1       7.237  -1.407  55.801  0.00  0.00    +0.000 C 
ATOM     79  C   UNL     1       6.164  -1.050  56.501  0.00  0.00    +0.000 C 
ATOM     80  C   UNL     1       7.753  -2.614  55.328  0.00  0.00    +0.000 C 
ATOM     81  C   UNL     1      16.693  -0.911  61.777  0.00  0.00    +0.000 C 
ATOM     82  C   UNL     1      17.196  -0.684  63.165  0.00  0.00    +0.000 C 
ATOM     83  C   UNL     1      17.555  -1.298  60.722  0.00  0.00    +0.000 C 
ENDROOT
BRANCH  69  84
ATOM     84  C   UNL     1      11.358   0.427  44.846  0.00  0.00    +0.000 C 
ATOM     85  C   UNL     1      11.389   0.199  43.667  0.00  0.00    +0.000 C 
BRANCH  85  86
ATOM     86  C   UNL     1      11.434  -0.091  42.163  0.00  0.00    +0.000 C 
ATOM     87  C   UNL     1      11.467  -0.345  40.856  0.00  0.00    +0.000 C 
ENDBRANCH  85  86
ENDBRANCH  69  84
BRANCH  13  88
ATOM     88  C   UNL     1      14.237   1.231  50.198  0.00  0.00    +0.000 C 
BRANCH  88  89
ATOM     89  O   UNL     1      14.450   1.610  51.451  0.00  0.00    +0.000 OA
ATOM     90  H   UNL     1      15.100   2.334  51.474  0.00  0.00    +0.000 HD
ENDBRANCH  88  89
ENDBRANCH  13  88
TORSDOF 4
ENDMDL
MODEL 8
REMARK VINA RESULT:      -6.5     12.081     17.945
REMARK  Name = Cyclosporin_A.pdbqt.pdb
REMARK  4 active torsions:
REMARK  status: ('A' for Active; 'I' for Inactive)
REMARK    1  A    between atoms: N_13  and  C_36
REMARK    2  A    between atoms: C_36  and  O_70
REMARK    3  A    between atoms: C_72  and  C_73
REMARK    4  A    between atoms: C_75  and  C_76
REMARK                            x       y       z     vdW  Elec       q    Type
REMARK                         _______ _______ _______ _____ _____    ______ ____
ROOT
ATOM      1  O   UNL     1       1.977  14.946  64.655  0.00  0.00    +0.000 OA
ATOM      2  O   UNL     1       6.578  16.277  62.820  0.00  0.00    +0.000 OA
ATOM      3  O   UNL     1       9.245  12.532  64.151  0.00  0.00    +0.000 OA
ATOM      4  O   UNL     1       1.747  12.363  68.812  0.00  0.00    +0.000 OA
ATOM      5  O   UNL     1       6.667  13.312  59.854  0.00  0.00    +0.000 OA
ATOM      6  O   UNL     1       3.344   2.568  60.641  0.00  0.00    +0.000 OA
ATOM      7  O   UNL     1      -1.672  10.970  64.634  0.00  0.00    +0.000 OA
ATOM      8  O   UNL     1       2.057   3.805  65.233  0.00  0.00    +0.000 OA
ATOM      9  O   UNL     1       6.525   5.355  58.276  0.00  0.00    +0.000 OA
ATOM     10  O   UNL     1      -0.756   6.763  65.684  0.00  0.00    +0.000 OA
ATOM     11  O   UNL     1       5.351   9.505  58.241  0.00  0.00    +0.000 OA
ATOM     12  N   UNL     1       5.329  15.216  63.851  0.00  0.00    +0.000 NA
ATOM     13  N   UNL     1       3.566  13.510  65.750  0.00  0.00    +0.000 NA
ATOM     14  N   UNL     1       8.336  14.121  63.387  0.00  0.00    +0.000 NA
ATOM     15  N   UNL     1       8.266  11.798  61.216  0.00  0.00    +0.000 NA
ATOM     16  N   UNL     1       1.550  11.338  66.608  0.00  0.00    +0.000 NA
ATOM     17  N   UNL     1       5.224   3.707  61.485  0.00  0.00    +0.000 N 
ATOM     18  N   UNL     1       3.051   4.844  63.386  0.00  0.00    +0.000 N 
ATOM     19  N   UNL     1       0.822   6.236  64.624  0.00  0.00    +0.000 NA
ATOM     20  N   UNL     1       0.303   9.927  64.207  0.00  0.00    +0.000 NA
ATOM     21  N   UNL     1       6.060   9.892  60.588  0.00  0.00    +0.000 NA
ATOM     22  N   UNL     1       5.372   6.473  60.080  0.00  0.00    +0.000 NA
ATOM     23  C   UNL     1       3.980  15.052  63.729  0.00  0.00    +0.000 C 
ATOM     24  C   UNL     1       7.100  14.081  63.892  0.00  0.00    +0.000 C 
ATOM     25  C   UNL     1       2.901  13.418  66.957  0.00  0.00    +0.000 C 
ATOM     26  C   UNL     1       3.161  15.946  63.063  0.00  0.00    +0.000 C 
ATOM     27  C   UNL     1       7.491  13.925  65.312  0.00  0.00    +0.000 C 
ATOM     28  C   UNL     1       3.274  14.429  64.737  0.00  0.00    +0.000 C 
ATOM     29  C   UNL     1       6.503  15.037  63.142  0.00  0.00    +0.000 C 
ATOM     30  C   UNL     1       8.748  12.882  61.760  0.00  0.00    +0.000 C 
ATOM     31  C   UNL     1       8.536  12.830  63.105  0.00  0.00    +0.000 C 
ATOM     32  C   UNL     1       2.276  12.169  67.488  0.00  0.00    +0.000 C 
ATOM     33  C   UNL     1       4.105  16.976  62.762  0.00  0.00    +0.000 C 
ATOM     34  C   UNL     1       2.001  15.999  63.761  0.00  0.00    +0.000 C 
ATOM     35  C   UNL     1       5.309  16.398  63.134  0.00  0.00    +0.000 C 
ATOM     36  C   UNL     1       9.043  13.859  64.592  0.00  0.00    +0.000 C 
ATOM     37  C   UNL     1       0.168  11.461  66.319  0.00  0.00    +0.000 C 
ATOM     38  C   UNL     1       2.885   3.893  62.412  0.00  0.00    +0.000 A 
ATOM     39  C   UNL     1       7.135  12.343  60.780  0.00  0.00    +0.000 C 
ATOM     40  C   UNL     1       5.801   4.139  60.264  0.00  0.00    +0.000 C 
ATOM     41  C   UNL     1       1.857   5.796  65.379  0.00  0.00    +0.000 C 
ATOM     42  C   UNL     1       9.426  11.780  60.287  0.00  0.00    +0.000 C 
ATOM     43  C   UNL     1       1.705   3.188  62.024  0.00  0.00    +0.000 A 
ATOM     44  C   UNL     1       6.688   2.623  59.821  0.00  0.00    +0.000 C 
ATOM     45  C   UNL     1       6.277  11.165  60.463  0.00  0.00    +0.000 C 
ATOM     46  C   UNL     1       1.296   4.618  66.127  0.00  0.00    +0.000 C 
ATOM     47  C   UNL     1      -0.530  12.312  67.228  0.00  0.00    +0.000 C 
ATOM     48  C   UNL     1       3.879   3.457  61.543  0.00  0.00    +0.000 A 
ATOM     49  C   UNL     1      -0.357  10.874  65.214  0.00  0.00    +0.000 C 
ATOM     50  C   UNL     1       2.416   4.848  64.537  0.00  0.00    +0.000 C 
ATOM     51  C   UNL     1       5.854   5.300  59.529  0.00  0.00    +0.000 C 
ATOM     52  C   UNL     1       0.490   8.602  64.806  0.00  0.00    +0.000 C 
ATOM     53  C   UNL     1       0.303   3.315  62.559  0.00  0.00    +0.000 C 
ATOM     54  C   UNL     1       2.028   2.404  60.946  0.00  0.00    +0.000 A 
ATOM     55  C   UNL     1       0.485   7.314  65.401  0.00  0.00    +0.000 C 
ATOM     56  C   UNL     1       5.370   7.629  59.499  0.00  0.00    +0.000 C 
ATOM     57  C   UNL     1       5.997  12.268  59.702  0.00  0.00    +0.000 C 
ATOM     58  C   UNL     1       5.977   2.698  60.991  0.00  0.00    +0.000 C 
ATOM     59  C   UNL     1      -0.383  13.040  68.168  0.00  0.00    +0.000 C 
ATOM     60  C   UNL     1       5.615   9.121  59.607  0.00  0.00    +0.000 C 
ATOM     61  C   UNL     1      -0.339   5.419  65.287  0.00  0.00    +0.000 C 
ATOM     62  C   UNL     1      -0.954  10.233  63.947  0.00  0.00    +0.000 C 
ATOM     63  C   UNL     1       5.212   8.273  58.317  0.00  0.00    +0.000 C 
ATOM     64  H   UNL     1       2.058  11.190  65.735  0.00  0.00    +0.000 HD
ATOM     65  H   UNL     1       3.523   5.699  63.102  0.00  0.00    +0.000 HD
ATOM     66  H   UNL     1       6.481   9.427  61.388  0.00  0.00    +0.000 HD
ATOM     67  H   UNL     1       5.366   6.424  61.094  0.00  0.00    +0.000 HD
ATOM     68  C   UNL     1       2.417  14.461  67.575  0.00  0.00    +0.000 C 
ATOM     69  C   UNL     1       1.405  14.709  68.544  0.00  0.00    +0.000 C 
ATOM     70  C   UNL     1       0.778  13.425  68.915  0.00  0.00    +0.000 C 
ATOM     71  C   UNL     1       7.979  14.872  66.601  0.00  0.00    +0.000 C 
ATOM     72  C   UNL     1       7.663  14.694  67.883  0.00  0.00    +0.000 C 
ATOM     73  C   UNL     1       9.039  14.470  65.783  0.00  0.00    +0.000 C 
ATOM     74  C   UNL     1       9.990  12.898  60.975  0.00  0.00    +0.000 C 
ATOM     75  C   UNL     1      10.248  12.837  59.612  0.00  0.00    +0.000 C 
ATOM     76  C   UNL     1      11.677  12.606  59.075  0.00  0.00    +0.000 C 
ATOM     77  C   UNL     1       9.332  12.054  58.935  0.00  0.00    +0.000 C 
ATOM     78  C   UNL     1       0.446   4.199  67.418  0.00  0.00    +0.000 C 
ATOM     79  C   UNL     1       0.411   3.133  68.212  0.00  0.00    +0.000 C 
ATOM     80  C   UNL     1      -0.424   4.769  66.487  0.00  0.00    +0.000 C 
ATOM     81  C   UNL     1       7.275   2.859  58.645  0.00  0.00    +0.000 C 
ATOM     82  C   UNL     1       8.114   1.835  57.954  0.00  0.00    +0.000 C 
ATOM     83  C   UNL     1       7.077   4.153  58.106  0.00  0.00    +0.000 C 
ENDROOT
BRANCH  69  84
ATOM     84  C   UNL     1       0.797  15.959  68.812  0.00  0.00    +0.000 C 
ATOM     85  C   UNL     1       0.273  17.016  69.036  0.00  0.00    +0.000 C 
BRANCH  85  86
ATOM     86  C   UNL     1      -0.398  18.364  69.319  0.00  0.00    +0.000 C 
ATOM     87  C   UNL     1      -0.985  19.535  69.561  0.00  0.00    +0.000 C 
ENDBRANCH  85  86
ENDBRANCH  69  84
BRANCH  13  88
ATOM     88  C   UNL     1       4.439  12.403  65.395  0.00  0.00    +0.000 C 
BRANCH  88  89
ATOM     89  O   UNL     1       5.221  11.388  65.052  0.00  0.00    +0.000 OA
ATOM     90  H   UNL     1       4.921  10.573  65.495  0.00  0.00    +0.000 HD
ENDBRANCH  88  89
ENDBRANCH  13  88
TORSDOF 4
ENDMDL
MODEL 9
REMARK VINA RESULT:      -6.4     13.765     18.361
REMARK  Name = Cyclosporin_A.pdbqt.pdb
REMARK  4 active torsions:
REMARK  status: ('A' for Active; 'I' for Inactive)
REMARK    1  A    between atoms: N_13  and  C_36
REMARK    2  A    between atoms: C_36  and  O_70
REMARK    3  A    between atoms: C_72  and  C_73
REMARK    4  A    between atoms: C_75  and  C_76
REMARK                            x       y       z     vdW  Elec       q    Type
REMARK                         _______ _______ _______ _____ _____    ______ ____
ROOT
ATOM      1  O   UNL     1       3.454  12.637  74.857  0.00  0.00    +0.000 OA
ATOM      2  O   UNL     1       8.093  14.667  74.039  0.00  0.00    +0.000 OA
ATOM      3  O   UNL     1      10.031  11.435  71.087  0.00  0.00    +0.000 OA
ATOM      4  O   UNL     1       2.992   7.760  74.947  0.00  0.00    +0.000 OA
ATOM      5  O   UNL     1       7.376  15.623  70.018  0.00  0.00    +0.000 OA
ATOM      6  O   UNL     1       2.009   9.470  62.245  0.00  0.00    +0.000 OA
ATOM      7  O   UNL     1      -0.917  10.745  72.320  0.00  0.00    +0.000 OA
ATOM      8  O   UNL     1       1.316   6.284  65.938  0.00  0.00    +0.000 OA
ATOM      9  O   UNL     1       5.519  12.786  62.647  0.00  0.00    +0.000 OA
ATOM     10  O   UNL     1      -0.803   7.595  69.203  0.00  0.00    +0.000 OA
ATOM     11  O   UNL     1       5.210  15.056  66.302  0.00  0.00    +0.000 OA
ATOM     12  N   UNL     1       6.728  13.296  73.963  0.00  0.00    +0.000 NA
ATOM     13  N   UNL     1       4.790  10.873  73.913  0.00  0.00    +0.000 NA
ATOM     14  N   UNL     1       9.412  12.965  72.189  0.00  0.00    +0.000 NA
ATOM     15  N   UNL     1       8.725  13.591  69.148  0.00  0.00    +0.000 NA
ATOM     16  N   UNL     1       2.440   9.103  72.988  0.00  0.00    +0.000 NA
ATOM     17  N   UNL     1       4.134   9.259  63.237  0.00  0.00    +0.000 N 
ATOM     18  N   UNL     1       2.371   8.350  65.624  0.00  0.00    +0.000 N 
ATOM     19  N   UNL     1       0.560   8.141  67.886  0.00  0.00    +0.000 NA
ATOM     20  N   UNL     1       0.772  10.461  70.824  0.00  0.00    +0.000 NA
ATOM     21  N   UNL     1       6.141  13.231  67.704  0.00  0.00    +0.000 NA
ATOM     22  N   UNL     1       4.742  11.899  64.755  0.00  0.00    +0.000 NA
ATOM     23  C   UNL     1       5.369  13.379  74.044  0.00  0.00    +0.000 C 
ATOM     24  C   UNL     1       8.231  12.576  72.678  0.00  0.00    +0.000 C 
ATOM     25  C   UNL     1       4.205   9.832  74.609  0.00  0.00    +0.000 C 
ATOM     26  C   UNL     1       4.704  14.456  74.603  0.00  0.00    +0.000 C 
ATOM     27  C   UNL     1       8.679  11.269  73.211  0.00  0.00    +0.000 C 
ATOM     28  C   UNL     1       4.622  12.230  74.203  0.00  0.00    +0.000 C 
ATOM     29  C   UNL     1       7.790  13.745  73.199  0.00  0.00    +0.000 C 
ATOM     30  C   UNL     1       9.452  13.675  70.228  0.00  0.00    +0.000 C 
ATOM     31  C   UNL     1       9.327  12.516  70.934  0.00  0.00    +0.000 C 
ATOM     32  C   UNL     1       3.378   8.756  73.984  0.00  0.00    +0.000 C 
ATOM     33  C   UNL     1       5.814  15.206  75.100  0.00  0.00    +0.000 C 
ATOM     34  C   UNL     1       3.629  13.948  75.254  0.00  0.00    +0.000 C 
ATOM     35  C   UNL     1       6.899  14.527  74.568  0.00  0.00    +0.000 C 
ATOM     36  C   UNL     1      10.132  11.769  72.457  0.00  0.00    +0.000 C 
ATOM     37  C   UNL     1       1.095   9.481  73.226  0.00  0.00    +0.000 C 
ATOM     38  C   UNL     1       1.949   8.685  64.362  0.00  0.00    +0.000 A 
ATOM     39  C   UNL     1       7.700  14.303  69.606  0.00  0.00    +0.000 C 
ATOM     40  C   UNL     1       4.701  10.495  62.835  0.00  0.00    +0.000 C 
ATOM     41  C   UNL     1       1.534   7.217  67.702  0.00  0.00    +0.000 C 
ATOM     42  C   UNL     1       9.790  14.313  68.405  0.00  0.00    +0.000 C 
ATOM     43  C   UNL     1       0.627   8.703  63.822  0.00  0.00    +0.000 A 
ATOM     44  C   UNL     1       5.231  10.030  61.165  0.00  0.00    +0.000 C 
ATOM     45  C   UNL     1       6.602  13.996  68.645  0.00  0.00    +0.000 C 
ATOM     46  C   UNL     1       0.798   5.990  67.237  0.00  0.00    +0.000 C 
ATOM     47  C   UNL     1       0.648   9.191  74.550  0.00  0.00    +0.000 C 
ATOM     48  C   UNL     1       2.773   9.145  63.340  0.00  0.00    +0.000 A 
ATOM     49  C   UNL     1       0.388  10.136  72.271  0.00  0.00    +0.000 C 
ATOM     50  C   UNL     1       1.830   7.407  66.361  0.00  0.00    +0.000 C 
ATOM     51  C   UNL     1       4.937  11.727  63.398  0.00  0.00    +0.000 C 
ATOM     52  C   UNL     1       0.727   9.247  70.004  0.00  0.00    +0.000 C 
ATOM     53  C   UNL     1      -0.679   8.384  64.498  0.00  0.00    +0.000 C 
ATOM     54  C   UNL     1       0.710   9.190  62.543  0.00  0.00    +0.000 A 
ATOM     55  C   UNL     1       0.502   8.064  69.253  0.00  0.00    +0.000 C 
ATOM     56  C   UNL     1       4.934  13.000  65.407  0.00  0.00    +0.000 C 
ATOM     57  C   UNL     1       6.500  15.236  69.215  0.00  0.00    +0.000 C 
ATOM     58  C   UNL     1       4.631   9.111  61.988  0.00  0.00    +0.000 C 
ATOM     59  C   UNL     1       1.003   8.767  75.613  0.00  0.00    +0.000 C 
ATOM     60  C   UNL     1       5.483  13.681  66.645  0.00  0.00    +0.000 C 
ATOM     61  C   UNL     1      -0.694   7.205  67.798  0.00  0.00    +0.000 C 
ATOM     62  C   UNL     1      -0.411  10.905  71.202  0.00  0.00    +0.000 C 
ATOM     63  C   UNL     1       4.829  14.350  65.352  0.00  0.00    +0.000 C 
ATOM     64  H   UNL     1       2.847   9.741  72.303  0.00  0.00    +0.000 HD
ATOM     65  H   UNL     1       2.986   9.018  66.083  0.00  0.00    +0.000 HD
ATOM     66  H   UNL     1       6.513  12.286  67.650  0.00  0.00    +0.000 HD
ATOM     67  H   UNL     1       4.796  11.012  65.248  0.00  0.00    +0.000 HD
ATOM     68  C   UNL     1       3.985   9.880  75.894  0.00  0.00    +0.000 C 
ATOM     69  C   UNL     1       3.113   9.238  76.817  0.00  0.00    +0.000 C 
ATOM     70  C   UNL     1       2.267   8.278  76.080  0.00  0.00    +0.000 C 
ATOM     71  C   UNL     1       9.436  10.648  74.567  0.00  0.00    +0.000 C 
ATOM     72  C   UNL     1       9.179   9.481  75.156  0.00  0.00    +0.000 C 
ATOM     73  C   UNL     1      10.334  11.079  73.586  0.00  0.00    +0.000 C 
ATOM     74  C   UNL     1      10.615  14.289  69.572  0.00  0.00    +0.000 C 
ATOM     75  C   UNL     1      10.762  15.401  68.754  0.00  0.00    +0.000 C 
ATOM     76  C   UNL     1      12.074  15.665  67.985  0.00  0.00    +0.000 C 
ATOM     77  C   UNL     1       9.662  15.610  67.944  0.00  0.00    +0.000 C 
ATOM     78  C   UNL     1      -0.028   4.716  67.743  0.00  0.00    +0.000 C 
ATOM     79  C   UNL     1      -0.224   3.482  67.285  0.00  0.00    +0.000 C 
ATOM     80  C   UNL     1      -0.827   5.849  67.907  0.00  0.00    +0.000 C 
ATOM     81  C   UNL     1       5.771  11.123  60.623  0.00  0.00    +0.000 C 
ATOM     82  C   UNL     1       6.336  11.131  59.241  0.00  0.00    +0.000 C 
ATOM     83  C   UNL     1       5.803  12.272  61.450  0.00  0.00    +0.000 C 
ENDROOT
BRANCH  69  84
ATOM     84  C   UNL     1       2.791   9.697  78.116  0.00  0.00    +0.000 C 
ATOM     85  C   UNL     1       2.519  10.095  79.216  0.00  0.00    +0.000 C 
BRANCH  85  86
ATOM     86  C   UNL     1       2.175  10.606  80.619  0.00  0.00    +0.000 C 
ATOM     87  C   UNL     1       1.881  11.049  81.840  0.00  0.00    +0.000 C 
ENDBRANCH  85  86
ENDBRANCH  69  84
BRANCH  13  88
ATOM     88  C   UNL     1       5.396  10.550  72.632  0.00  0.00    +0.000 C 
BRANCH  88  89
ATOM     89  O   UNL     1       5.927  10.243  71.456  0.00  0.00    +0.000 OA
ATOM     90  H   UNL     1       6.250   9.324  71.466  0.00  0.00    +0.000 HD
ENDBRANCH  88  89
ENDBRANCH  13  88
TORSDOF 4
ENDMDL
