MODEL 1
REMARK VINA RESULT:      -4.5      0.000      0.000
REMARK  Name = Danazol.pdbqt.pdb
REMARK  2 active torsions:
REMARK  status: ('A' for Active; 'I' for Inactive)
REMARK    1  A    between atoms: C_9  and  O_23
REMARK    2  A    between atoms: C_9  and  C_25
REMARK                            x       y       z     vdW  Elec       q    Type
REMARK                         _______ _______ _______ _____ _____    ______ ____
ROOT
ATOM      1  O   UNL     1      18.207   2.354  62.767  0.00  0.00    +0.000 OA
ATOM      2  N   UNL     1      19.555   2.686  62.514  0.00  0.00    +0.000 NA
ATOM      3  C   UNL     1      15.629  -1.968  57.056  0.00  0.00    +0.000 C 
ATOM      4  C   UNL     1      16.718  -2.531  56.001  0.00  0.00    +0.000 C 
ATOM      5  C   UNL     1      15.969  -1.627  58.451  0.00  0.00    +0.000 C 
ATOM      6  C   UNL     1      17.350  -1.599  59.048  0.00  0.00    +0.000 C 
ATOM      7  C   UNL     1      17.638  -1.369  60.551  0.00  0.00    +0.000 C 
ATOM      8  C   UNL     1      18.019  -2.337  56.659  0.00  0.00    +0.000 C 
ATOM      9  C   UNL     1      16.454  -1.639  54.659  0.00  0.00    +0.000 C 
ATOM     10  C   UNL     1      18.334  -1.923  58.075  0.00  0.00    +0.000 C 
ATOM     11  C   UNL     1      14.610  -1.270  56.348  0.00  0.00    +0.000 C 
ATOM     12  C   UNL     1      14.985  -1.159  59.352  0.00  0.00    +0.000 C 
ATOM     13  C   UNL     1      15.102  -1.112  54.940  0.00  0.00    +0.000 C 
ATOM     14  C   UNL     1      16.421  -0.611  61.387  0.00  0.00    +0.000 C 
ATOM     15  C   UNL     1      16.401  -4.061  55.833  0.00  0.00    +0.000 C 
ATOM     16  C   UNL     1      15.153  -0.663  60.757  0.00  0.00    +0.000 C 
ATOM     17  C   UNL     1      18.815  -0.442  60.713  0.00  0.00    +0.000 C 
ATOM     18  C   UNL     1      17.887  -2.737  61.245  0.00  0.00    +0.000 C 
ATOM     19  C   UNL     1      16.747   0.485  62.037  0.00  0.00    +0.000 C 
ATOM     20  C   UNL     1      19.054   0.766  61.430  0.00  0.00    +0.000 A 
ATOM     21  C   UNL     1      17.956   1.214  62.114  0.00  0.00    +0.000 A 
ATOM     22  C   UNL     1      20.036   1.710  61.714  0.00  0.00    +0.000 A 
ENDROOT
BRANCH   9  23
ATOM     23  O   UNL     1      16.422  -2.387  53.434  0.00  0.00    +0.000 OA
ATOM     24  H   UNL     1      17.100  -2.014  52.844  0.00  0.00    +0.000 HD
ENDBRANCH   9  23
BRANCH   9  25
ATOM     25  C   UNL     1      17.444  -0.541  54.540  0.00  0.00    +0.000 C 
ATOM     26  C   UNL     1      18.245   0.344  54.471  0.00  0.00    +0.000 C 
ENDBRANCH   9  25
TORSDOF 2
ENDMDL
MODEL 2
REMARK VINA RESULT:      -4.3      7.836     11.330
REMARK  Name = Danazol.pdbqt.pdb
REMARK  2 active torsions:
REMARK  status: ('A' for Active; 'I' for Inactive)
REMARK    1  A    between atoms: C_9  and  O_23
REMARK    2  A    between atoms: C_9  and  C_25
REMARK                            x       y       z     vdW  Elec       q    Type
REMARK                         _______ _______ _______ _____ _____    ______ ____
ROOT
ATOM      1  O   UNL     1      20.064   1.380  53.129  0.00  0.00    +0.000 OA
ATOM      2  N   UNL     1      21.060   1.031  54.066  0.00  0.00    +0.000 NA
ATOM      3  C   UNL     1      18.995   8.912  53.371  0.00  0.00    +0.000 C 
ATOM      4  C   UNL     1      20.063   9.787  54.214  0.00  0.00    +0.000 C 
ATOM      5  C   UNL     1      19.330   7.610  52.764  0.00  0.00    +0.000 C 
ATOM      6  C   UNL     1      20.612   6.844  52.951  0.00  0.00    +0.000 C 
ATOM      7  C   UNL     1      20.967   5.549  52.183  0.00  0.00    +0.000 C 
ATOM      8  C   UNL     1      21.207   8.887  54.426  0.00  0.00    +0.000 C 
ATOM      9  C   UNL     1      19.237  10.223  55.552  0.00  0.00    +0.000 C 
ATOM     10  C   UNL     1      21.489   7.527  53.837  0.00  0.00    +0.000 C 
ATOM     11  C   UNL     1      17.682   9.196  53.844  0.00  0.00    +0.000 C 
ATOM     12  C   UNL     1      18.376   6.884  52.014  0.00  0.00    +0.000 C 
ATOM     13  C   UNL     1      17.847   9.987  55.108  0.00  0.00    +0.000 C 
ATOM     14  C   UNL     1      19.666   4.733  51.553  0.00  0.00    +0.000 C 
ATOM     15  C   UNL     1      20.464  10.988  53.282  0.00  0.00    +0.000 C 
ATOM     16  C   UNL     1      18.491   5.511  51.420  0.00  0.00    +0.000 C 
ATOM     17  C   UNL     1      21.597   4.552  53.119  0.00  0.00    +0.000 C 
ATOM     18  C   UNL     1      21.910   5.895  50.996  0.00  0.00    +0.000 C 
ATOM     19  C   UNL     1      19.540   3.470  51.899  0.00  0.00    +0.000 C 
ATOM     20  C   UNL     1      21.351   3.187  53.450  0.00  0.00    +0.000 A 
ATOM     21  C   UNL     1      20.277   2.656  52.790  0.00  0.00    +0.000 A 
ATOM     22  C   UNL     1      21.819   2.135  54.232  0.00  0.00    +0.000 A 
ENDROOT
BRANCH   9  23
ATOM     23  O   UNL     1      19.383  11.600  55.930  0.00  0.00    +0.000 OA
ATOM     24  H   UNL     1      20.283  11.879  55.687  0.00  0.00    +0.000 HD
ENDBRANCH   9  23
BRANCH   9  25
ATOM     25  C   UNL     1      19.585   9.356  56.705  0.00  0.00    +0.000 C 
ATOM     26  C   UNL     1      19.845   8.670  57.649  0.00  0.00    +0.000 C 
ENDBRANCH   9  25
TORSDOF 2
ENDMDL
MODEL 3
REMARK VINA RESULT:      -4.2     12.796     14.874
REMARK  Name = Danazol.pdbqt.pdb
REMARK  2 active torsions:
REMARK  status: ('A' for Active; 'I' for Inactive)
REMARK    1  A    between atoms: C_9  and  O_23
REMARK    2  A    between atoms: C_9  and  C_25
REMARK                            x       y       z     vdW  Elec       q    Type
REMARK                         _______ _______ _______ _____ _____    ______ ____
ROOT
ATOM      1  O   UNL     1      17.909   8.657  55.352  0.00  0.00    +0.000 OA
ATOM      2  N   UNL     1      18.883   8.692  56.372  0.00  0.00    +0.000 NA
ATOM      3  C   UNL     1      12.338  13.537  57.110  0.00  0.00    +0.000 C 
ATOM      4  C   UNL     1      12.601  14.552  58.341  0.00  0.00    +0.000 C 
ATOM      5  C   UNL     1      13.429  12.960  56.302  0.00  0.00    +0.000 C 
ATOM      6  C   UNL     1      14.903  13.091  56.574  0.00  0.00    +0.000 C 
ATOM      7  C   UNL     1      16.008  12.583  55.619  0.00  0.00    +0.000 C 
ATOM      8  C   UNL     1      14.052  14.494  58.576  0.00  0.00    +0.000 C 
ATOM      9  C   UNL     1      11.658  13.965  59.537  0.00  0.00    +0.000 C 
ATOM     10  C   UNL     1      15.138  13.839  57.761  0.00  0.00    +0.000 C 
ATOM     11  C   UNL     1      11.129  12.822  57.345  0.00  0.00    +0.000 C 
ATOM     12  C   UNL     1      13.159  12.093  55.218  0.00  0.00    +0.000 C 
ATOM     13  C   UNL     1      10.734  13.108  58.764  0.00  0.00    +0.000 C 
ATOM     14  C   UNL     1      15.524  11.406  54.553  0.00  0.00    +0.000 C 
ATOM     15  C   UNL     1      12.177  15.974  57.822  0.00  0.00    +0.000 C 
ATOM     16  C   UNL     1      14.123  11.330  54.359  0.00  0.00    +0.000 C 
ATOM     17  C   UNL     1      17.107  11.920  56.409  0.00  0.00    +0.000 C 
ATOM     18  C   UNL     1      16.548  13.772  54.774  0.00  0.00    +0.000 C 
ATOM     19  C   UNL     1      16.212  10.286  54.561  0.00  0.00    +0.000 C 
ATOM     20  C   UNL     1      17.767  10.658  56.353  0.00  0.00    +0.000 A 
ATOM     21  C   UNL     1      17.279   9.837  55.373  0.00  0.00    +0.000 A 
ATOM     22  C   UNL     1      18.776   9.908  56.949  0.00  0.00    +0.000 A 
ENDROOT
BRANCH   9  23
ATOM     23  O   UNL     1      10.897  14.954  60.248  0.00  0.00    +0.000 OA
ATOM     24  H   UNL     1      10.321  15.401  59.604  0.00  0.00    +0.000 HD
ENDBRANCH   9  23
BRANCH   9  25
ATOM     25  C   UNL     1      12.450  13.164  60.503  0.00  0.00    +0.000 C 
ATOM     26  C   UNL     1      13.109  12.521  61.264  0.00  0.00    +0.000 C 
ENDBRANCH   9  25
TORSDOF 2
ENDMDL
MODEL 4
REMARK VINA RESULT:      -4.1     18.031     20.277
REMARK  Name = Danazol.pdbqt.pdb
REMARK  2 active torsions:
REMARK  status: ('A' for Active; 'I' for Inactive)
REMARK    1  A    between atoms: C_9  and  O_23
REMARK    2  A    between atoms: C_9  and  C_25
REMARK                            x       y       z     vdW  Elec       q    Type
REMARK                         _______ _______ _______ _____ _____    ______ ____
ROOT
ATOM      1  O   UNL     1       4.860   9.849  71.988  0.00  0.00    +0.000 OA
ATOM      2  N   UNL     1       4.445   8.575  72.431  0.00  0.00    +0.000 NA
ATOM      3  C   UNL     1       2.427  10.881  64.850  0.00  0.00    +0.000 C 
ATOM      4  C   UNL     1       1.370   9.807  64.263  0.00  0.00    +0.000 C 
ATOM      5  C   UNL     1       2.560  11.168  66.291  0.00  0.00    +0.000 C 
ATOM      6  C   UNL     1       1.876  10.431  67.411  0.00  0.00    +0.000 C 
ATOM      7  C   UNL     1       1.942  10.859  68.896  0.00  0.00    +0.000 C 
ATOM      8  C   UNL     1       0.871   9.084  65.443  0.00  0.00    +0.000 C 
ATOM      9  C   UNL     1       2.253   8.932  63.206  0.00  0.00    +0.000 C 
ATOM     10  C   UNL     1       1.079   9.366  66.909  0.00  0.00    +0.000 C 
ATOM     11  C   UNL     1       3.543  10.967  63.969  0.00  0.00    +0.000 C 
ATOM     12  C   UNL     1       3.479  12.131  66.766  0.00  0.00    +0.000 C 
ATOM     13  C   UNL     1       3.407   9.832  62.998  0.00  0.00    +0.000 C 
ATOM     14  C   UNL     1       3.230  11.830  69.286  0.00  0.00    +0.000 C 
ATOM     15  C   UNL     1       0.222  10.654  63.601  0.00  0.00    +0.000 C 
ATOM     16  C   UNL     1       3.834  12.479  68.181  0.00  0.00    +0.000 C 
ATOM     17  C   UNL     1       2.129   9.648  69.773  0.00  0.00    +0.000 C 
ATOM     18  C   UNL     1       0.650  11.640  69.266  0.00  0.00    +0.000 C 
ATOM     19  C   UNL     1       4.007  11.415  70.262  0.00  0.00    +0.000 C 
ATOM     20  C   UNL     1       3.048   9.279  70.798  0.00  0.00    +0.000 A 
ATOM     21  C   UNL     1       4.007  10.227  71.030  0.00  0.00    +0.000 A 
ATOM     22  C   UNL     1       3.351   8.265  71.701  0.00  0.00    +0.000 A 
ENDROOT
BRANCH   9  23
ATOM     23  O   UNL     1       1.615   8.686  61.943  0.00  0.00    +0.000 OA
ATOM     24  H   UNL     1       2.310   8.651  61.264  0.00  0.00    +0.000 HD
ENDBRANCH   9  23
BRANCH   9  25
ATOM     25  C   UNL     1       2.680   7.642  63.801  0.00  0.00    +0.000 C 
ATOM     26  C   UNL     1       3.046   6.614  64.289  0.00  0.00    +0.000 C 
ENDBRANCH   9  25
TORSDOF 2
ENDMDL
MODEL 5
REMARK VINA RESULT:      -3.8     14.004     16.300
REMARK  Name = Danazol.pdbqt.pdb
REMARK  2 active torsions:
REMARK  status: ('A' for Active; 'I' for Inactive)
REMARK    1  A    between atoms: C_9  and  O_23
REMARK    2  A    between atoms: C_9  and  C_25
REMARK                            x       y       z     vdW  Elec       q    Type
REMARK                         _______ _______ _______ _____ _____    ______ ____
ROOT
ATOM      1  O   UNL     1       6.486   8.901  61.913  0.00  0.00    +0.000 OA
ATOM      2  N   UNL     1       6.882   7.853  61.055  0.00  0.00    +0.000 NA
ATOM      3  C   UNL     1      11.637  14.490  61.504  0.00  0.00    +0.000 C 
ATOM      4  C   UNL     1      12.747  14.393  60.331  0.00  0.00    +0.000 C 
ATOM      5  C   UNL     1      10.305  13.865  61.398  0.00  0.00    +0.000 C 
ATOM      6  C   UNL     1       9.839  12.946  60.302  0.00  0.00    +0.000 C 
ATOM      7  C   UNL     1       8.388  12.426  60.166  0.00  0.00    +0.000 C 
ATOM      8  C   UNL     1      12.224  13.384  59.398  0.00  0.00    +0.000 C 
ATOM      9  C   UNL     1      14.116  13.993  61.126  0.00  0.00    +0.000 C 
ATOM     10  C   UNL     1      10.874  12.713  59.355  0.00  0.00    +0.000 C 
ATOM     11  C   UNL     1      12.295  14.630  62.759  0.00  0.00    +0.000 C 
ATOM     12  C   UNL     1       9.352  13.991  62.434  0.00  0.00    +0.000 C 
ATOM     13  C   UNL     1      13.750  14.361  62.510  0.00  0.00    +0.000 C 
ATOM     14  C   UNL     1       7.497  12.471  61.566  0.00  0.00    +0.000 C 
ATOM     15  C   UNL     1      12.783  15.812  59.656  0.00  0.00    +0.000 C 
ATOM     16  C   UNL     1       8.004  13.345  62.559  0.00  0.00    +0.000 C 
ATOM     17  C   UNL     1       8.396  10.967  59.793  0.00  0.00    +0.000 C 
ATOM     18  C   UNL     1       7.629  13.283  59.113  0.00  0.00    +0.000 C 
ATOM     19  C   UNL     1       6.954  11.338  61.954  0.00  0.00    +0.000 C 
ATOM     20  C   UNL     1       7.786   9.790  60.317  0.00  0.00    +0.000 A 
ATOM     21  C   UNL     1       7.037  10.024  61.438  0.00  0.00    +0.000 A 
ATOM     22  C   UNL     1       7.656   8.421  60.105  0.00  0.00    +0.000 A 
ENDROOT
BRANCH   9  23
ATOM     23  O   UNL     1      15.281  14.736  60.734  0.00  0.00    +0.000 OA
ATOM     24  H   UNL     1      15.256  15.589  61.202  0.00  0.00    +0.000 HD
ENDBRANCH   9  23
BRANCH   9  25
ATOM     25  C   UNL     1      14.398  12.541  61.014  0.00  0.00    +0.000 C 
ATOM     26  C   UNL     1      14.652  11.376  60.923  0.00  0.00    +0.000 C 
ENDBRANCH   9  25
TORSDOF 2
ENDMDL
MODEL 6
REMARK VINA RESULT:      -3.7     20.257     23.387
REMARK  Name = Danazol.pdbqt.pdb
REMARK  2 active torsions:
REMARK  status: ('A' for Active; 'I' for Inactive)
REMARK    1  A    between atoms: C_9  and  O_23
REMARK    2  A    between atoms: C_9  and  C_25
REMARK                            x       y       z     vdW  Elec       q    Type
REMARK                         _______ _______ _______ _____ _____    ______ ____
ROOT
ATOM      1  O   UNL     1       1.515   6.928  78.468  0.00  0.00    +0.000 OA
ATOM      2  N   UNL     1       0.876   5.794  79.014  0.00  0.00    +0.000 NA
ATOM      3  C   UNL     1       8.866   5.303  77.344  0.00  0.00    +0.000 C 
ATOM      4  C   UNL     1       9.316   3.757  77.495  0.00  0.00    +0.000 C 
ATOM      5  C   UNL     1       7.495   5.705  76.975  0.00  0.00    +0.000 C 
ATOM      6  C   UNL     1       6.307   4.791  76.837  0.00  0.00    +0.000 C 
ATOM      7  C   UNL     1       4.923   5.243  76.314  0.00  0.00    +0.000 C 
ATOM      8  C   UNL     1       8.060   2.992  77.462  0.00  0.00    +0.000 C 
ATOM      9  C   UNL     1      10.136   3.728  78.905  0.00  0.00    +0.000 C 
ATOM     10  C   UNL     1       6.658   3.448  77.142  0.00  0.00    +0.000 C 
ATOM     11  C   UNL     1       9.672   6.109  78.197  0.00  0.00    +0.000 C 
ATOM     12  C   UNL     1       7.144   7.066  76.830  0.00  0.00    +0.000 C 
ATOM     13  C   UNL     1      10.428   5.166  79.085  0.00  0.00    +0.000 C 
ATOM     14  C   UNL     1       4.633   6.874  76.428  0.00  0.00    +0.000 C 
ATOM     15  C   UNL     1      10.194   3.441  76.229  0.00  0.00    +0.000 C 
ATOM     16  C   UNL     1       5.795   7.670  76.572  0.00  0.00    +0.000 C 
ATOM     17  C   UNL     1       3.831   4.625  77.147  0.00  0.00    +0.000 C 
ATOM     18  C   UNL     1       4.787   4.858  74.814  0.00  0.00    +0.000 C 
ATOM     19  C   UNL     1       3.548   7.234  77.079  0.00  0.00    +0.000 C 
ATOM     20  C   UNL     1       2.698   5.126  77.853  0.00  0.00    +0.000 A 
ATOM     21  C   UNL     1       2.580   6.487  77.788  0.00  0.00    +0.000 A 
ATOM     22  C   UNL     1       1.607   4.729  78.621  0.00  0.00    +0.000 A 
ENDROOT
BRANCH   9  23
ATOM     23  O   UNL     1      11.373   2.998  78.870  0.00  0.00    +0.000 OA
ATOM     24  H   UNL     1      11.512   2.613  79.753  0.00  0.00    +0.000 HD
ENDBRANCH   9  23
BRANCH   9  25
ATOM     25  C   UNL     1       9.290   3.210  80.009  0.00  0.00    +0.000 C 
ATOM     26  C   UNL     1       8.587   2.805  80.886  0.00  0.00    +0.000 C 
ENDBRANCH   9  25
TORSDOF 2
ENDMDL
MODEL 7
REMARK VINA RESULT:      -3.7     19.482     21.886
REMARK  Name = Danazol.pdbqt.pdb
REMARK  2 active torsions:
REMARK  status: ('A' for Active; 'I' for Inactive)
REMARK    1  A    between atoms: C_9  and  O_23
REMARK    2  A    between atoms: C_9  and  C_25
REMARK                            x       y       z     vdW  Elec       q    Type
REMARK                         _______ _______ _______ _____ _____    ______ ____
ROOT
ATOM      1  O   UNL     1       2.092   7.897  64.481  0.00  0.00    +0.000 OA
ATOM      2  N   UNL     1       2.146   8.986  63.585  0.00  0.00    +0.000 NA
ATOM      3  C   UNL     1       3.738  10.390  71.482  0.00  0.00    +0.000 C 
ATOM      4  C   UNL     1       3.800  11.991  71.704  0.00  0.00    +0.000 C 
ATOM      5  C   UNL     1       2.924   9.761  70.424  0.00  0.00    +0.000 C 
ATOM      6  C   UNL     1       2.178  10.477  69.331  0.00  0.00    +0.000 C 
ATOM      7  C   UNL     1       1.229   9.779  68.329  0.00  0.00    +0.000 C 
ATOM      8  C   UNL     1       3.146  12.564  70.518  0.00  0.00    +0.000 C 
ATOM      9  C   UNL     1       5.396  12.298  71.861  0.00  0.00    +0.000 C 
ATOM     10  C   UNL     1       2.374  11.883  69.416  0.00  0.00    +0.000 C 
ATOM     11  C   UNL     1       4.960   9.809  71.924  0.00  0.00    +0.000 C 
ATOM     12  C   UNL     1       2.876   8.356  70.274  0.00  0.00    +0.000 C 
ATOM     13  C   UNL     1       5.909  10.946  72.166  0.00  0.00    +0.000 C 
ATOM     14  C   UNL     1       1.482   8.148  68.148  0.00  0.00    +0.000 C 
ATOM     15  C   UNL     1       2.956  12.277  72.999  0.00  0.00    +0.000 C 
ATOM     16  C   UNL     1       2.205   7.544  69.206  0.00  0.00    +0.000 C 
ATOM     17  C   UNL     1       1.446  10.331  66.944  0.00  0.00    +0.000 C 
ATOM     18  C   UNL     1      -0.243   9.965  68.795  0.00  0.00    +0.000 C 
ATOM     19  C   UNL     1       1.697   7.718  66.924  0.00  0.00    +0.000 C 
ATOM     20  C   UNL     1       1.714   9.762  65.664  0.00  0.00    +0.000 A 
ATOM     21  C   UNL     1       1.830   8.400  65.692  0.00  0.00    +0.000 A 
ATOM     22  C   UNL     1       1.908  10.090  64.326  0.00  0.00    +0.000 A 
ENDROOT
BRANCH   9  23
ATOM     23  O   UNL     1       5.737  13.184  72.938  0.00  0.00    +0.000 OA
ATOM     24  H   UNL     1       6.479  13.739  72.639  0.00  0.00    +0.000 HD
ENDBRANCH   9  23
BRANCH   9  25
ATOM     25  C   UNL     1       5.971  12.817  70.596  0.00  0.00    +0.000 C 
ATOM     26  C   UNL     1       6.410  13.231  69.564  0.00  0.00    +0.000 C 
ENDBRANCH   9  25
TORSDOF 2
ENDMDL
MODEL 8
REMARK VINA RESULT:      -3.7     14.758     17.120
REMARK  Name = Danazol.pdbqt.pdb
REMARK  2 active torsions:
REMARK  status: ('A' for Active; 'I' for Inactive)
REMARK    1  A    between atoms: C_9  and  O_23
REMARK    2  A    between atoms: C_9  and  C_25
REMARK                            x       y       z     vdW  Elec       q    Type
REMARK                         _______ _______ _______ _____ _____    ______ ____
ROOT
ATOM      1  O   UNL     1       6.243  10.723  63.524  0.00  0.00    +0.000 OA
ATOM      2  N   UNL     1       5.460  11.587  64.319  0.00  0.00    +0.000 NA
ATOM      3  C   UNL     1       3.039   3.818  63.516  0.00  0.00    +0.000 C 
ATOM      4  C   UNL     1       1.553   3.689  64.141  0.00  0.00    +0.000 C 
ATOM      5  C   UNL     1       3.557   5.073  62.937  0.00  0.00    +0.000 C 
ATOM      6  C   UNL     1       2.877   6.415  62.971  0.00  0.00    +0.000 C 
ATOM      7  C   UNL     1       3.399   7.668  62.230  0.00  0.00    +0.000 C 
ATOM      8  C   UNL     1       1.056   5.071  64.227  0.00  0.00    +0.000 C 
ATOM      9  C   UNL     1       1.795   2.924  65.562  0.00  0.00    +0.000 C 
ATOM     10  C   UNL     1       1.645   6.346  63.677  0.00  0.00    +0.000 C 
ATOM     11  C   UNL     1       3.900   2.888  64.164  0.00  0.00    +0.000 C 
ATOM     12  C   UNL     1       4.854   5.142  62.379  0.00  0.00    +0.000 C 
ATOM     13  C   UNL     1       3.142   2.357  65.344  0.00  0.00    +0.000 C 
ATOM     14  C   UNL     1       5.013   7.631  61.846  0.00  0.00    +0.000 C 
ATOM     15  C   UNL     1       0.719   2.861  63.095  0.00  0.00    +0.000 C 
ATOM     16  C   UNL     1       5.589   6.337  61.850  0.00  0.00    +0.000 C 
ATOM     17  C   UNL     1       3.268   8.881  63.113  0.00  0.00    +0.000 C 
ATOM     18  C   UNL     1       2.616   7.844  60.897  0.00  0.00    +0.000 C 
ATOM     19  C   UNL     1       5.744   8.637  62.275  0.00  0.00    +0.000 C 
ATOM     20  C   UNL     1       4.154   9.908  63.551  0.00  0.00    +0.000 A 
ATOM     21  C   UNL     1       5.432   9.752  63.088  0.00  0.00    +0.000 A 
ATOM     22  C   UNL     1       4.211  11.074  64.309  0.00  0.00    +0.000 A 
ENDROOT
BRANCH   9  23
ATOM     23  O   UNL     1       0.874   1.858  65.839  0.00  0.00    +0.000 OA
ATOM     24  H   UNL     1       0.245   1.812  65.098  0.00  0.00    +0.000 HD
ENDBRANCH   9  23
BRANCH   9  25
ATOM     25  C   UNL     1       1.794   3.882  66.695  0.00  0.00    +0.000 C 
ATOM     26  C   UNL     1       1.769   4.664  67.598  0.00  0.00    +0.000 C 
ENDBRANCH   9  25
TORSDOF 2
ENDMDL
MODEL 9
REMARK VINA RESULT:      -3.7     18.076     20.601
REMARK  Name = Danazol.pdbqt.pdb
REMARK  2 active torsions:
REMARK  status: ('A' for Active; 'I' for Inactive)
REMARK    1  A    between atoms: C_9  and  O_23
REMARK    2  A    between atoms: C_9  and  C_25
REMARK                            x       y       z     vdW  Elec       q    Type
REMARK                         _______ _______ _______ _____ _____    ______ ____
ROOT
ATOM      1  O   UNL     1       5.106   9.362  72.387  0.00  0.00    +0.000 OA
ATOM      2  N   UNL     1       4.175   8.357  72.052  0.00  0.00    +0.000 NA
ATOM      3  C   UNL     1       5.988  13.985  66.404  0.00  0.00    +0.000 C 
ATOM      4  C   UNL     1       4.946  13.820  65.179  0.00  0.00    +0.000 C 
ATOM      5  C   UNL     1       5.654  13.614  67.793  0.00  0.00    +0.000 C 
ATOM      6  C   UNL     1       4.406  12.910  68.250  0.00  0.00    +0.000 C 
ATOM      7  C   UNL     1       4.043  12.667  69.734  0.00  0.00    +0.000 C 
ATOM      8  C   UNL     1       3.840  13.020  65.727  0.00  0.00    +0.000 C 
ATOM      9  C   UNL     1       5.834  13.108  64.009  0.00  0.00    +0.000 C 
ATOM     10  C   UNL     1       3.561  12.602  67.149  0.00  0.00    +0.000 C 
ATOM     11  C   UNL     1       7.317  13.877  65.905  0.00  0.00    +0.000 C 
ATOM     12  C   UNL     1       6.583  13.794  68.843  0.00  0.00    +0.000 C 
ATOM     13  C   UNL     1       7.202  13.387  64.492  0.00  0.00    +0.000 C 
ATOM     14  C   UNL     1       5.327  12.719  70.785  0.00  0.00    +0.000 C 
ATOM     15  C   UNL     1       4.462  15.274  64.829  0.00  0.00    +0.000 C 
ATOM     16  C   UNL     1       6.473  13.383  70.281  0.00  0.00    +0.000 C 
ATOM     17  C   UNL     1       3.492  11.276  69.909  0.00  0.00    +0.000 C 
ATOM     18  C   UNL     1       3.026  13.748  70.201  0.00  0.00    +0.000 C 
ATOM     19  C   UNL     1       5.506  11.663  71.548  0.00  0.00    +0.000 C 
ATOM     20  C   UNL     1       3.792  10.175  70.763  0.00  0.00    +0.000 A 
ATOM     21  C   UNL     1       4.842  10.416  71.607  0.00  0.00    +0.000 A 
ATOM     22  C   UNL     1       3.397   8.879  71.080  0.00  0.00    +0.000 A 
ENDROOT
BRANCH   9  23
ATOM     23  O   UNL     1       5.672  13.674  62.699  0.00  0.00    +0.000 OA
ATOM     24  H   UNL     1       5.127  13.060  62.177  0.00  0.00    +0.000 HD
ENDBRANCH   9  23
BRANCH   9  25
ATOM     25  C   UNL     1       5.573  11.648  63.949  0.00  0.00    +0.000 C 
ATOM     26  C   UNL     1       5.390  10.468  63.900  0.00  0.00    +0.000 C 
ENDBRANCH   9  25
TORSDOF 2
ENDMDL
