MODEL 1
REMARK VINA RESULT:      -4.6      0.000      0.000
REMARK  Name = Dasatinib.pdbqt.pdb
REMARK  5 active torsions:
REMARK  status: ('A' for Active; 'I' for Inactive)
REMARK    1  A    between atoms: N_1  and  C_3
REMARK    2  A    between atoms: N_13  and  C_16
REMARK    3  A    between atoms: C_17  and  O_18
REMARK    4  A    between atoms: C_22  and  C_25
REMARK    5  A    between atoms: N_27  and  C_29
REMARK                            x       y       z     vdW  Elec       q    Type
REMARK                         _______ _______ _______ _____ _____    ______ ____
ROOT
ATOM      1  N   UNL     1      12.025  13.279  62.410  0.00  0.00    +0.000 N 
ATOM      2  H   UNL     1      11.926  13.877  63.221  0.00  0.00    +0.000 HD
ATOM      3  C   UNL     1      10.895  12.684  61.962  0.00  0.00    +0.000 A 
ATOM      4  S   UNL     1       9.437  12.864  62.875  0.00  0.00    +0.000 S 
ATOM      5  C   UNL     1       8.598  11.888  61.743  0.00  0.00    +0.000 A 
ATOM      6  C   UNL     1       9.481  11.490  60.768  0.00  0.00    +0.000 A 
ATOM      7  N   UNL     1      10.779  11.912  60.905  0.00  0.00    +0.000 NA
ENDROOT
BRANCH   1   8
ATOM      8  C   UNL     1      13.120  13.637  61.593  0.00  0.00    +0.000 A 
ATOM      9  N   UNL     1      13.174  14.819  60.968  0.00  0.00    +0.000 NA
ATOM     10  C   UNL     1      14.224  15.042  60.171  0.00  0.00    +0.000 A 
ATOM     11  N   UNL     1      15.234  14.190  59.960  0.00  0.00    +0.000 NA
ATOM     12  C   UNL     1      14.301  16.374  59.483  0.00  0.00    +0.000 C 
ATOM     13  C   UNL     1      15.182  13.011  60.603  0.00  0.00    +0.000 A 
ATOM     14  C   UNL     1      14.117  12.692  61.430  0.00  0.00    +0.000 A 
ATOM     15  N   UNL     1      16.198  12.039  60.395  0.00  0.00    +0.000 N 
ATOM     16  C   UNL     1      16.580  11.165  61.536  0.00  0.00    +0.000 C 
ATOM     17  C   UNL     1      18.003  10.868  62.079  0.00  0.00    +0.000 C 
ATOM     18  N   UNL     1      19.359  11.330  61.671  0.00  0.00    +0.000 N 
ATOM     19  C   UNL     1      18.916  12.189  60.537  0.00  0.00    +0.000 C 
ATOM     20  C   UNL     1      17.525  12.530  59.941  0.00  0.00    +0.000 C 
BRANCH  18  21
ATOM     21  C   UNL     1      20.035  10.180  61.086  0.00  0.00    +0.000 C 
ATOM     22  C   UNL     1      20.745   8.968  60.469  0.00  0.00    +0.000 C 
BRANCH  22  23
ATOM     23  O   UNL     1      21.357   7.918  59.935  0.00  0.00    +0.000 OA
ATOM     24  H   UNL     1      21.319   7.159  60.541  0.00  0.00    +0.000 HD
ENDBRANCH  22  23
ENDBRANCH  18  21
ENDBRANCH   1   8
BRANCH   5  25
ATOM     25  C   UNL     1       7.187  11.615  61.892  0.00  0.00    +0.000 C 
ATOM     26  O   UNL     1       6.336  12.024  61.106  0.00  0.00    +0.000 OA
ATOM     27  N   UNL     1       6.858  10.918  63.049  0.00  0.00    +0.000 N 
ATOM     28  H   UNL     1       7.465  11.085  63.850  0.00  0.00    +0.000 HD
BRANCH  27  29
ATOM     29  C   UNL     1       5.527  10.529  63.391  0.00  0.00    +0.000 A 
ATOM     30  C   UNL     1       4.784  11.385  64.231  0.00  0.00    +0.000 A 
ATOM     31  C   UNL     1       3.468  11.095  64.586  0.00  0.00    +0.000 A 
ATOM     32  C   UNL     1       5.397  12.666  64.758  0.00  0.00    +0.000 C 
ATOM     33  C   UNL     1       2.870   9.928  64.126  0.00  0.00    +0.000 A 
ATOM     34  C   UNL     1       3.607   9.037  63.354  0.00  0.00    +0.000 A 
ATOM     35  C   UNL     1       4.927   9.322  62.994  0.00  0.00    +0.000 A 
ATOM     36 CL   UNL     1       5.797   8.013  62.274  0.00  0.00    +0.000 Cl
ENDBRANCH  27  29
ENDBRANCH   5  25
TORSDOF 5
ENDMDL
MODEL 2
REMARK VINA RESULT:      -4.4      9.645     12.270
REMARK  Name = Dasatinib.pdbqt.pdb
REMARK  5 active torsions:
REMARK  status: ('A' for Active; 'I' for Inactive)
REMARK    1  A    between atoms: N_1  and  C_3
REMARK    2  A    between atoms: N_13  and  C_16
REMARK    3  A    between atoms: C_17  and  O_18
REMARK    4  A    between atoms: C_22  and  C_25
REMARK    5  A    between atoms: N_27  and  C_29
REMARK                            x       y       z     vdW  Elec       q    Type
REMARK                         _______ _______ _______ _____ _____    ______ ____
ROOT
ATOM      1  N   UNL     1       3.444   4.923  63.972  0.00  0.00    +0.000 N 
ATOM      2  H   UNL     1       3.896   4.131  64.414  0.00  0.00    +0.000 HD
ATOM      3  C   UNL     1       2.481   5.542  64.693  0.00  0.00    +0.000 A 
ATOM      4  S   UNL     1       2.002   4.860  66.209  0.00  0.00    +0.000 S 
ATOM      5  C   UNL     1       0.853   6.113  66.420  0.00  0.00    +0.000 A 
ATOM      6  C   UNL     1       0.907   6.946  65.328  0.00  0.00    +0.000 A 
ATOM      7  N   UNL     1       1.801   6.611  64.343  0.00  0.00    +0.000 NA
ENDROOT
BRANCH   1   8
ATOM      8  C   UNL     1       4.264   5.561  63.016  0.00  0.00    +0.000 A 
ATOM      9  N   UNL     1       4.748   6.793  63.215  0.00  0.00    +0.000 NA
ATOM     10  C   UNL     1       5.467   7.335  62.226  0.00  0.00    +0.000 A 
ATOM     11  N   UNL     1       5.758   6.742  61.062  0.00  0.00    +0.000 NA
ATOM     12  C   UNL     1       6.029   8.708  62.451  0.00  0.00    +0.000 C 
ATOM     13  C   UNL     1       5.282   5.500  60.874  0.00  0.00    +0.000 A 
ATOM     14  C   UNL     1       4.509   4.875  61.841  0.00  0.00    +0.000 A 
ATOM     15  N   UNL     1       5.514   4.824  59.646  0.00  0.00    +0.000 N 
ATOM     16  C   UNL     1       5.692   3.348  59.677  0.00  0.00    +0.000 C 
ATOM     17  C   UNL     1       6.828   2.507  59.035  0.00  0.00    +0.000 C 
ATOM     18  N   UNL     1       8.031   2.873  58.237  0.00  0.00    +0.000 N 
ATOM     19  C   UNL     1       7.798   4.345  58.237  0.00  0.00    +0.000 C 
ATOM     20  C   UNL     1       6.696   5.248  58.851  0.00  0.00    +0.000 C 
BRANCH  18  21
ATOM     21  C   UNL     1       7.788   2.411  56.877  0.00  0.00    +0.000 C 
ATOM     22  C   UNL     1       7.529   1.924  55.445  0.00  0.00    +0.000 C 
BRANCH  22  23
ATOM     23  O   UNL     1       7.304   1.502  54.207  0.00  0.00    +0.000 OA
ATOM     24  H   UNL     1       6.349   1.456  54.033  0.00  0.00    +0.000 HD
ENDBRANCH  22  23
ENDBRANCH  18  21
ENDBRANCH   1   8
BRANCH   5  25
ATOM     25  C   UNL     1       0.031   6.182  67.607  0.00  0.00    +0.000 C 
ATOM     26  O   UNL     1       0.248   6.962  68.531  0.00  0.00    +0.000 OA
ATOM     27  N   UNL     1      -0.983   5.233  67.657  0.00  0.00    +0.000 N 
ATOM     28  H   UNL     1      -0.783   4.351  67.187  0.00  0.00    +0.000 HD
BRANCH  27  29
ATOM     29  C   UNL     1      -1.922   5.128  68.727  0.00  0.00    +0.000 A 
ATOM     30  C   UNL     1      -1.836   4.001  69.572  0.00  0.00    +0.000 A 
ATOM     31  C   UNL     1      -2.694   3.840  70.658  0.00  0.00    +0.000 A 
ATOM     32  C   UNL     1      -0.786   2.936  69.329  0.00  0.00    +0.000 C 
ATOM     33  C   UNL     1      -3.672   4.791  70.914  0.00  0.00    +0.000 A 
ATOM     34  C   UNL     1      -3.819   5.874  70.054  0.00  0.00    +0.000 A 
ATOM     35  C   UNL     1      -2.962   6.043  68.962  0.00  0.00    +0.000 A 
ATOM     36 CL   UNL     1      -3.430   7.268  67.836  0.00  0.00    +0.000 Cl
ENDBRANCH  27  29
ENDBRANCH   5  25
TORSDOF 5
ENDMDL
MODEL 3
REMARK VINA RESULT:      -4.3     12.897     17.071
REMARK  Name = Dasatinib.pdbqt.pdb
REMARK  5 active torsions:
REMARK  status: ('A' for Active; 'I' for Inactive)
REMARK    1  A    between atoms: N_1  and  C_3
REMARK    2  A    between atoms: N_13  and  C_16
REMARK    3  A    between atoms: C_17  and  O_18
REMARK    4  A    between atoms: C_22  and  C_25
REMARK    5  A    between atoms: N_27  and  C_29
REMARK                            x       y       z     vdW  Elec       q    Type
REMARK                         _______ _______ _______ _____ _____    ______ ____
ROOT
ATOM      1  N   UNL     1      16.735   4.780  49.216  0.00  0.00    +0.000 N 
ATOM      2  H   UNL     1      17.196   5.537  49.707  0.00  0.00    +0.000 HD
ATOM      3  C   UNL     1      16.865   3.547  49.759  0.00  0.00    +0.000 A 
ATOM      4  S   UNL     1      17.906   3.340  51.125  0.00  0.00    +0.000 S 
ATOM      5  C   UNL     1      17.547   1.665  51.156  0.00  0.00    +0.000 A 
ATOM      6  C   UNL     1      16.678   1.384  50.129  0.00  0.00    +0.000 A 
ATOM      7  N   UNL     1      16.316   2.435  49.325  0.00  0.00    +0.000 NA
ENDROOT
BRANCH   1   8
ATOM      8  C   UNL     1      15.620   5.210  48.464  0.00  0.00    +0.000 A 
ATOM      9  N   UNL     1      15.646   5.242  47.126  0.00  0.00    +0.000 NA
ATOM     10  C   UNL     1      14.561   5.719  46.505  0.00  0.00    +0.000 A 
ATOM     11  N   UNL     1      13.447   6.150  47.108  0.00  0.00    +0.000 NA
ATOM     12  C   UNL     1      14.575   5.740  45.004  0.00  0.00    +0.000 C 
ATOM     13  C   UNL     1      13.422   6.100  48.451  0.00  0.00    +0.000 A 
ATOM     14  C   UNL     1      14.513   5.640  49.171  0.00  0.00    +0.000 A 
ATOM     15  N   UNL     1      12.289   6.580  49.162  0.00  0.00    +0.000 N 
ATOM     16  C   UNL     1      11.913   5.898  50.429  0.00  0.00    +0.000 C 
ATOM     17  C   UNL     1      10.518   5.361  50.849  0.00  0.00    +0.000 C 
ATOM     18  N   UNL     1       9.192   5.348  50.169  0.00  0.00    +0.000 N 
ATOM     19  C   UNL     1       9.628   6.039  48.924  0.00  0.00    +0.000 C 
ATOM     20  C   UNL     1      10.991   6.599  48.438  0.00  0.00    +0.000 C 
BRANCH  18  21
ATOM     21  C   UNL     1       8.342   6.285  50.892  0.00  0.00    +0.000 C 
ATOM     22  C   UNL     1       7.446   7.271  51.653  0.00  0.00    +0.000 C 
BRANCH  22  23
ATOM     23  O   UNL     1       6.669   8.122  52.311  0.00  0.00    +0.000 OA
ATOM     24  H   UNL     1       6.332   7.714  53.126  0.00  0.00    +0.000 HD
ENDBRANCH  22  23
ENDBRANCH  18  21
ENDBRANCH   1   8
BRANCH   5  25
ATOM     25  C   UNL     1      18.116   0.796  52.161  0.00  0.00    +0.000 C 
ATOM     26  O   UNL     1      18.584  -0.311  51.906  0.00  0.00    +0.000 OA
ATOM     27  N   UNL     1      18.016   1.281  53.460  0.00  0.00    +0.000 N 
ATOM     28  H   UNL     1      17.205   1.869  53.648  0.00  0.00    +0.000 HD
BRANCH  27  29
ATOM     29  C   UNL     1      18.523   0.596  54.606  0.00  0.00    +0.000 A 
ATOM     30  C   UNL     1      19.816   0.935  55.058  0.00  0.00    +0.000 A 
ATOM     31  C   UNL     1      20.371   0.337  56.188  0.00  0.00    +0.000 A 
ATOM     32  C   UNL     1      20.635   1.982  54.331  0.00  0.00    +0.000 C 
ATOM     33  C   UNL     1      19.655  -0.630  56.881  0.00  0.00    +0.000 A 
ATOM     34  C   UNL     1      18.408  -1.028  56.413  0.00  0.00    +0.000 A 
ATOM     35  C   UNL     1      17.844  -0.432  55.280  0.00  0.00    +0.000 A 
ATOM     36 CL   UNL     1      16.430  -1.210  54.662  0.00  0.00    +0.000 Cl
ENDBRANCH  27  29
ENDBRANCH   5  25
TORSDOF 5
ENDMDL
MODEL 4
REMARK VINA RESULT:      -4.2     10.306     13.006
REMARK  Name = Dasatinib.pdbqt.pdb
REMARK  5 active torsions:
REMARK  status: ('A' for Active; 'I' for Inactive)
REMARK    1  A    between atoms: N_1  and  C_3
REMARK    2  A    between atoms: N_13  and  C_16
REMARK    3  A    between atoms: C_17  and  O_18
REMARK    4  A    between atoms: C_22  and  C_25
REMARK    5  A    between atoms: N_27  and  C_29
REMARK                            x       y       z     vdW  Elec       q    Type
REMARK                         _______ _______ _______ _____ _____    ______ ____
ROOT
ATOM      1  N   UNL     1       3.954   3.466  64.012  0.00  0.00    +0.000 N 
ATOM      2  H   UNL     1       4.609   3.239  64.750  0.00  0.00    +0.000 HD
ATOM      3  C   UNL     1       2.647   3.503  64.361  0.00  0.00    +0.000 A 
ATOM      4  S   UNL     1       2.195   3.023  65.960  0.00  0.00    +0.000 S 
ATOM      5  C   UNL     1       0.547   3.317  65.591  0.00  0.00    +0.000 A 
ATOM      6  C   UNL     1       0.459   3.744  64.288  0.00  0.00    +0.000 A 
ATOM      7  N   UNL     1       1.635   3.822  63.586  0.00  0.00    +0.000 NA
ENDROOT
BRANCH   1   8
ATOM      8  C   UNL     1       4.531   4.244  62.984  0.00  0.00    +0.000 A 
ATOM      9  N   UNL     1       4.701   5.565  63.114  0.00  0.00    +0.000 NA
ATOM     10  C   UNL     1       5.203   6.224  62.064  0.00  0.00    +0.000 A 
ATOM     11  N   UNL     1       5.566   5.670  60.901  0.00  0.00    +0.000 NA
ATOM     12  C   UNL     1       5.414   7.702  62.209  0.00  0.00    +0.000 C 
ATOM     13  C   UNL     1       5.407   4.340  60.782  0.00  0.00    +0.000 A 
ATOM     14  C   UNL     1       4.873   3.588  61.817  0.00  0.00    +0.000 A 
ATOM     15  N   UNL     1       5.731   3.689  59.562  0.00  0.00    +0.000 N 
ATOM     16  C   UNL     1       6.276   2.306  59.626  0.00  0.00    +0.000 C 
ATOM     17  C   UNL     1       7.547   1.746  58.934  0.00  0.00    +0.000 C 
ATOM     18  N   UNL     1       8.572   2.363  58.046  0.00  0.00    +0.000 N 
ATOM     19  C   UNL     1       7.977   3.729  58.019  0.00  0.00    +0.000 C 
ATOM     20  C   UNL     1       6.722   4.357  58.678  0.00  0.00    +0.000 C 
BRANCH  18  21
ATOM     21  C   UNL     1       8.375   1.794  56.720  0.00  0.00    +0.000 C 
ATOM     22  C   UNL     1       8.168   1.192  55.324  0.00  0.00    +0.000 C 
BRANCH  22  23
ATOM     23  O   UNL     1       7.989   0.670  54.117  0.00  0.00    +0.000 OA
ATOM     24  H   UNL     1       7.052   0.457  53.975  0.00  0.00    +0.000 HD
ENDBRANCH  22  23
ENDBRANCH  18  21
ENDBRANCH   1   8
BRANCH   5  25
ATOM     25  C   UNL     1      -0.487   3.124  66.583  0.00  0.00    +0.000 C 
ATOM     26  O   UNL     1      -1.680   3.042  66.302  0.00  0.00    +0.000 OA
ATOM     27  N   UNL     1      -0.030   3.123  67.895  0.00  0.00    +0.000 N 
ATOM     28  H   UNL     1       0.793   3.697  68.074  0.00  0.00    +0.000 HD
BRANCH  27  29
ATOM     29  C   UNL     1      -0.874   2.934  69.031  0.00  0.00    +0.000 A 
ATOM     30  C   UNL     1      -0.980   1.632  69.565  0.00  0.00    +0.000 A 
ATOM     31  C   UNL     1      -1.756   1.369  70.692  0.00  0.00    +0.000 A 
ATOM     32  C   UNL     1      -0.230   0.478  68.931  0.00  0.00    +0.000 C 
ATOM     33  C   UNL     1      -2.462   2.399  71.301  0.00  0.00    +0.000 A 
ATOM     34  C   UNL     1      -2.425   3.675  70.751  0.00  0.00    +0.000 A 
ATOM     35  C   UNL     1      -1.649   3.947  69.620  0.00  0.00    +0.000 A 
ATOM     36 CL   UNL     1      -1.914   5.492  68.894  0.00  0.00    +0.000 Cl
ENDBRANCH  27  29
ENDBRANCH   5  25
TORSDOF 5
ENDMDL
MODEL 5
REMARK VINA RESULT:      -4.0      3.654      4.748
REMARK  Name = Dasatinib.pdbqt.pdb
REMARK  5 active torsions:
REMARK  status: ('A' for Active; 'I' for Inactive)
REMARK    1  A    between atoms: N_1  and  C_3
REMARK    2  A    between atoms: N_13  and  C_16
REMARK    3  A    between atoms: C_17  and  O_18
REMARK    4  A    between atoms: C_22  and  C_25
REMARK    5  A    between atoms: N_27  and  C_29
REMARK                            x       y       z     vdW  Elec       q    Type
REMARK                         _______ _______ _______ _____ _____    ______ ____
ROOT
ATOM      1  N   UNL     1      12.334  12.575  60.409  0.00  0.00    +0.000 N 
ATOM      2  H   UNL     1      12.267  12.235  59.457  0.00  0.00    +0.000 HD
ATOM      3  C   UNL     1      11.200  12.519  61.146  0.00  0.00    +0.000 A 
ATOM      4  S   UNL     1       9.729  12.029  60.381  0.00  0.00    +0.000 S 
ATOM      5  C   UNL     1       8.883  12.235  61.857  0.00  0.00    +0.000 A 
ATOM      6  C   UNL     1       9.769  12.669  62.814  0.00  0.00    +0.000 A 
ATOM      7  N   UNL     1      11.066  12.857  62.409  0.00  0.00    +0.000 NA
ENDROOT
BRANCH   1   8
ATOM      8  C   UNL     1      13.639  12.476  60.938  0.00  0.00    +0.000 A 
ATOM      9  N   UNL     1      14.405  11.400  60.724  0.00  0.00    +0.000 NA
ATOM     10  C   UNL     1      15.604  11.375  61.315  0.00  0.00    +0.000 A 
ATOM     11  N   UNL     1      16.110  12.343  62.088  0.00  0.00    +0.000 NA
ATOM     12  C   UNL     1      16.476  10.179  61.063  0.00  0.00    +0.000 C 
ATOM     13  C   UNL     1      15.342  13.428  62.287  0.00  0.00    +0.000 A 
ATOM     14  C   UNL     1      14.077  13.523  61.728  0.00  0.00    +0.000 A 
ATOM     15  N   UNL     1      15.795  14.478  63.130  0.00  0.00    +0.000 N 
ATOM     16  C   UNL     1      15.406  15.872  62.789  0.00  0.00    +0.000 C 
ATOM     17  C   UNL     1      16.322  17.119  62.668  0.00  0.00    +0.000 C 
ATOM     18  N   UNL     1      17.789  17.317  62.834  0.00  0.00    +0.000 N 
ATOM     19  C   UNL     1      18.117  15.904  63.173  0.00  0.00    +0.000 C 
ATOM     20  C   UNL     1      17.264  14.617  63.313  0.00  0.00    +0.000 C 
BRANCH  18  21
ATOM     21  C   UNL     1      17.971  18.093  64.053  0.00  0.00    +0.000 C 
ATOM     22  C   UNL     1      18.161  18.910  65.337  0.00  0.00    +0.000 C 
BRANCH  22  23
ATOM     23  O   UNL     1      18.322  19.617  66.449  0.00  0.00    +0.000 OA
ATOM     24  H   UNL     1      18.393  19.028  67.219  0.00  0.00    +0.000 HD
ENDBRANCH  22  23
ENDBRANCH  18  21
ENDBRANCH   1   8
BRANCH   5  25
ATOM     25  C   UNL     1       7.469  11.950  61.956  0.00  0.00    +0.000 C 
ATOM     26  O   UNL     1       6.641  12.365  61.148  0.00  0.00    +0.000 OA
ATOM     27  N   UNL     1       7.107  11.233  63.089  0.00  0.00    +0.000 N 
ATOM     28  H   UNL     1       7.687  11.391  63.913  0.00  0.00    +0.000 HD
BRANCH  27  29
ATOM     29  C   UNL     1       5.769  10.829  63.382  0.00  0.00    +0.000 A 
ATOM     30  C   UNL     1       5.310   9.616  62.827  0.00  0.00    +0.000 A 
ATOM     31  C   UNL     1       4.029   9.135  63.090  0.00  0.00    +0.000 A 
ATOM     32  C   UNL     1       6.213   8.787  61.936  0.00  0.00    +0.000 C 
ATOM     33  C   UNL     1       3.168   9.865  63.899  0.00  0.00    +0.000 A 
ATOM     34  C   UNL     1       3.577  11.096  64.401  0.00  0.00    +0.000 A 
ATOM     35  C   UNL     1       4.860  11.586  64.141  0.00  0.00    +0.000 A 
ATOM     36 CL   UNL     1       5.130  13.232  64.592  0.00  0.00    +0.000 Cl
ENDBRANCH  27  29
ENDBRANCH   5  25
TORSDOF 5
ENDMDL
MODEL 6
REMARK VINA RESULT:      -3.9      7.118      9.206
REMARK  Name = Dasatinib.pdbqt.pdb
REMARK  5 active torsions:
REMARK  status: ('A' for Active; 'I' for Inactive)
REMARK    1  A    between atoms: N_1  and  C_3
REMARK    2  A    between atoms: N_13  and  C_16
REMARK    3  A    between atoms: C_17  and  O_18
REMARK    4  A    between atoms: C_22  and  C_25
REMARK    5  A    between atoms: N_27  and  C_29
REMARK                            x       y       z     vdW  Elec       q    Type
REMARK                         _______ _______ _______ _____ _____    ______ ____
ROOT
ATOM      1  N   UNL     1       8.879  11.583  61.440  0.00  0.00    +0.000 N 
ATOM      2  H   UNL     1       9.849  11.816  61.268  0.00  0.00    +0.000 HD
ATOM      3  C   UNL     1       8.326  12.106  62.559  0.00  0.00    +0.000 A 
ATOM      4  S   UNL     1       9.334  12.981  63.659  0.00  0.00    +0.000 S 
ATOM      5  C   UNL     1       7.992  13.244  64.692  0.00  0.00    +0.000 A 
ATOM      6  C   UNL     1       6.887  12.644  64.138  0.00  0.00    +0.000 A 
ATOM      7  N   UNL     1       7.079  11.979  62.953  0.00  0.00    +0.000 NA
ENDROOT
BRANCH   1   8
ATOM      8  C   UNL     1       8.166  11.289  60.257  0.00  0.00    +0.000 A 
ATOM      9  N   UNL     1       7.817  12.246  59.389  0.00  0.00    +0.000 NA
ATOM     10  C   UNL     1       7.094  11.875  58.327  0.00  0.00    +0.000 A 
ATOM     11  N   UNL     1       6.705  10.625  58.050  0.00  0.00    +0.000 NA
ATOM     12  C   UNL     1       6.717  12.941  57.340  0.00  0.00    +0.000 C 
ATOM     13  C   UNL     1       7.071   9.666  58.918  0.00  0.00    +0.000 A 
ATOM     14  C   UNL     1       7.803   9.970  60.055  0.00  0.00    +0.000 A 
ATOM     15  N   UNL     1       6.658   8.322  58.712  0.00  0.00    +0.000 N 
ATOM     16  C   UNL     1       7.580   7.231  59.127  0.00  0.00    +0.000 C 
ATOM     17  C   UNL     1       8.051   6.007  58.296  0.00  0.00    +0.000 C 
ATOM     18  N   UNL     1       7.761   5.556  56.906  0.00  0.00    +0.000 N 
ATOM     19  C   UNL     1       6.842   6.673  56.549  0.00  0.00    +0.000 C 
ATOM     20  C   UNL     1       6.330   7.918  57.320  0.00  0.00    +0.000 C 
BRANCH  18  21
ATOM     21  C   UNL     1       6.939   4.358  57.018  0.00  0.00    +0.000 C 
ATOM     22  C   UNL     1       6.073   3.098  57.136  0.00  0.00    +0.000 C 
BRANCH  22  23
ATOM     23  O   UNL     1       5.321   2.009  57.239  0.00  0.00    +0.000 OA
ATOM     24  H   UNL     1       5.327   1.512  56.403  0.00  0.00    +0.000 HD
ENDBRANCH  22  23
ENDBRANCH  18  21
ENDBRANCH   1   8
BRANCH   5  25
ATOM     25  C   UNL     1       8.127  14.005  65.914  0.00  0.00    +0.000 C 
ATOM     26  O   UNL     1       8.235  15.229  65.935  0.00  0.00    +0.000 OA
ATOM     27  N   UNL     1       8.208  13.231  67.064  0.00  0.00    +0.000 N 
ATOM     28  H   UNL     1       8.636  12.313  66.948  0.00  0.00    +0.000 HD
BRANCH  27  29
ATOM     29  C   UNL     1       8.328  13.772  68.381  0.00  0.00    +0.000 A 
ATOM     30  C   UNL     1       7.146  13.958  69.128  0.00  0.00    +0.000 A 
ATOM     31  C   UNL     1       7.180  14.449  70.432  0.00  0.00    +0.000 A 
ATOM     32  C   UNL     1       5.797  13.606  68.535  0.00  0.00    +0.000 C 
ATOM     33  C   UNL     1       8.395  14.787  71.012  0.00  0.00    +0.000 A 
ATOM     34  C   UNL     1       9.566  14.677  70.269  0.00  0.00    +0.000 A 
ATOM     35  C   UNL     1       9.540  14.184  68.961  0.00  0.00    +0.000 A 
ATOM     36 CL   UNL     1      11.013  14.359  68.074  0.00  0.00    +0.000 Cl
ENDBRANCH  27  29
ENDBRANCH   5  25
TORSDOF 5
ENDMDL
MODEL 7
REMARK VINA RESULT:      -3.7      4.673      5.896
REMARK  Name = Dasatinib.pdbqt.pdb
REMARK  5 active torsions:
REMARK  status: ('A' for Active; 'I' for Inactive)
REMARK    1  A    between atoms: N_1  and  C_3
REMARK    2  A    between atoms: N_13  and  C_16
REMARK    3  A    between atoms: C_17  and  O_18
REMARK    4  A    between atoms: C_22  and  C_25
REMARK    5  A    between atoms: N_27  and  C_29
REMARK                            x       y       z     vdW  Elec       q    Type
REMARK                         _______ _______ _______ _____ _____    ______ ____
ROOT
ATOM      1  N   UNL     1      10.908  12.351  60.300  0.00  0.00    +0.000 N 
ATOM      2  H   UNL     1      10.349  11.596  59.922  0.00  0.00    +0.000 HD
ATOM      3  C   UNL     1      10.444  12.929  61.433  0.00  0.00    +0.000 A 
ATOM      4  S   UNL     1       8.900  12.449  62.045  0.00  0.00    +0.000 S 
ATOM      5  C   UNL     1       9.058  13.561  63.340  0.00  0.00    +0.000 A 
ATOM      6  C   UNL     1      10.257  14.219  63.209  0.00  0.00    +0.000 A 
ATOM      7  N   UNL     1      11.025  13.886  62.122  0.00  0.00    +0.000 NA
ENDROOT
BRANCH   1   8
ATOM      8  C   UNL     1      12.272  12.257  59.950  0.00  0.00    +0.000 A 
ATOM      9  N   UNL     1      13.207  11.926  60.848  0.00  0.00    +0.000 NA
ATOM     10  C   UNL     1      14.479  11.919  60.433  0.00  0.00    +0.000 A 
ATOM     11  N   UNL     1      14.892  12.197  59.191  0.00  0.00    +0.000 NA
ATOM     12  C   UNL     1      15.531  11.529  61.430  0.00  0.00    +0.000 C 
ATOM     13  C   UNL     1      13.947  12.514  58.289  0.00  0.00    +0.000 A 
ATOM     14  C   UNL     1      12.608  12.566  58.644  0.00  0.00    +0.000 A 
ATOM     15  N   UNL     1      14.314  12.863  56.963  0.00  0.00    +0.000 N 
ATOM     16  C   UNL     1      13.397  12.482  55.855  0.00  0.00    +0.000 C 
ATOM     17  C   UNL     1      13.746  11.742  54.535  0.00  0.00    +0.000 C 
ATOM     18  N   UNL     1      15.020  11.203  53.984  0.00  0.00    +0.000 N 
ATOM     19  C   UNL     1      15.889  11.613  55.122  0.00  0.00    +0.000 C 
ATOM     20  C   UNL     1      15.615  12.348  56.460  0.00  0.00    +0.000 C 
BRANCH  18  21
ATOM     21  C   UNL     1      15.380  12.052  52.856  0.00  0.00    +0.000 C 
ATOM     22  C   UNL     1      15.757  12.945  51.667  0.00  0.00    +0.000 C 
BRANCH  22  23
ATOM     23  O   UNL     1      16.082  13.716  50.637  0.00  0.00    +0.000 OA
ATOM     24  H   UNL     1      16.795  13.308  50.118  0.00  0.00    +0.000 HD
ENDBRANCH  22  23
ENDBRANCH  18  21
ENDBRANCH   1   8
BRANCH   5  25
ATOM     25  C   UNL     1       8.033  13.681  64.352  0.00  0.00    +0.000 C 
ATOM     26  O   UNL     1       7.041  12.956  64.395  0.00  0.00    +0.000 OA
ATOM     27  N   UNL     1       8.217  14.743  65.229  0.00  0.00    +0.000 N 
ATOM     28  H   UNL     1       8.694  15.556  64.842  0.00  0.00    +0.000 HD
BRANCH  27  29
ATOM     29  C   UNL     1       7.336  15.040  66.314  0.00  0.00    +0.000 A 
ATOM     30  C   UNL     1       6.372  16.052  66.122  0.00  0.00    +0.000 A 
ATOM     31  C   UNL     1       5.455  16.380  67.118  0.00  0.00    +0.000 A 
ATOM     32  C   UNL     1       6.295  16.802  64.808  0.00  0.00    +0.000 C 
ATOM     33  C   UNL     1       5.494  15.719  68.339  0.00  0.00    +0.000 A 
ATOM     34  C   UNL     1       6.479  14.767  68.574  0.00  0.00    +0.000 A 
ATOM     35  C   UNL     1       7.403  14.432  67.579  0.00  0.00    +0.000 A 
ATOM     36 CL   UNL     1       8.724  13.445  68.097  0.00  0.00    +0.000 Cl
ENDBRANCH  27  29
ENDBRANCH   5  25
TORSDOF 5
ENDMDL
MODEL 8
REMARK VINA RESULT:      -3.6      7.489     11.486
REMARK  Name = Dasatinib.pdbqt.pdb
REMARK  5 active torsions:
REMARK  status: ('A' for Active; 'I' for Inactive)
REMARK    1  A    between atoms: N_1  and  C_3
REMARK    2  A    between atoms: N_13  and  C_16
REMARK    3  A    between atoms: C_17  and  O_18
REMARK    4  A    between atoms: C_22  and  C_25
REMARK    5  A    between atoms: N_27  and  C_29
REMARK                            x       y       z     vdW  Elec       q    Type
REMARK                         _______ _______ _______ _____ _____    ______ ____
ROOT
ATOM      1  N   UNL     1       7.656  11.411  61.950  0.00  0.00    +0.000 N 
ATOM      2  H   UNL     1       8.433  10.984  62.439  0.00  0.00    +0.000 HD
ATOM      3  C   UNL     1       7.115  10.691  60.940  0.00  0.00    +0.000 A 
ATOM      4  S   UNL     1       7.868   9.206  60.475  0.00  0.00    +0.000 S 
ATOM      5  C   UNL     1       6.690   8.980  59.252  0.00  0.00    +0.000 A 
ATOM      6  C   UNL     1       5.823  10.046  59.277  0.00  0.00    +0.000 A 
ATOM      7  N   UNL     1       6.076  11.023  60.206  0.00  0.00    +0.000 NA
ENDROOT
BRANCH   1   8
ATOM      8  C   UNL     1       6.943  12.333  62.748  0.00  0.00    +0.000 A 
ATOM      9  N   UNL     1       7.164  13.650  62.668  0.00  0.00    +0.000 NA
ATOM     10  C   UNL     1       6.479  14.437  63.505  0.00  0.00    +0.000 A 
ATOM     11  N   UNL     1       5.580  14.019  64.404  0.00  0.00    +0.000 NA
ATOM     12  C   UNL     1       6.708  15.917  63.408  0.00  0.00    +0.000 C 
ATOM     13  C   UNL     1       5.351  12.696  64.468  0.00  0.00    +0.000 A 
ATOM     14  C   UNL     1       6.035  11.810  63.651  0.00  0.00    +0.000 A 
ATOM     15  N   UNL     1       4.441  12.176  65.427  0.00  0.00    +0.000 N 
ATOM     16  C   UNL     1       3.640  10.978  65.058  0.00  0.00    +0.000 C 
ATOM     17  C   UNL     1       2.105  10.776  65.183  0.00  0.00    +0.000 C 
ATOM     18  N   UNL     1       1.006  11.655  65.672  0.00  0.00    +0.000 N 
ATOM     19  C   UNL     1       1.861  12.822  66.025  0.00  0.00    +0.000 C 
ATOM     20  C   UNL     1       3.385  13.094  65.930  0.00  0.00    +0.000 C 
BRANCH  18  21
ATOM     21  C   UNL     1       0.541  11.082  66.928  0.00  0.00    +0.000 C 
ATOM     22  C   UNL     1       0.049  10.479  68.250  0.00  0.00    +0.000 C 
BRANCH  22  23
ATOM     23  O   UNL     1      -0.379   9.957  69.394  0.00  0.00    +0.000 OA
ATOM     24  H   UNL     1      -0.428  10.642  70.081  0.00  0.00    +0.000 HD
ENDBRANCH  22  23
ENDBRANCH  18  21
ENDBRANCH   1   8
BRANCH   5  25
ATOM     25  C   UNL     1       6.704   7.808  58.406  0.00  0.00    +0.000 C 
ATOM     26  O   UNL     1       6.633   7.863  57.180  0.00  0.00    +0.000 OA
ATOM     27  N   UNL     1       6.719   6.604  59.097  0.00  0.00    +0.000 N 
ATOM     28  H   UNL     1       6.256   6.611  60.005  0.00  0.00    +0.000 HD
BRANCH  27  29
ATOM     29  C   UNL     1       6.750   5.323  58.465  0.00  0.00    +0.000 A 
ATOM     30  C   UNL     1       5.586   4.530  58.525  0.00  0.00    +0.000 A 
ATOM     31  C   UNL     1       5.522   3.283  57.906  0.00  0.00    +0.000 A 
ATOM     32  C   UNL     1       4.354   5.025  59.256  0.00  0.00    +0.000 C 
ATOM     33  C   UNL     1       6.630   2.790  57.229  0.00  0.00    +0.000 A 
ATOM     34  C   UNL     1       7.810   3.526  57.216  0.00  0.00    +0.000 A 
ATOM     35  C   UNL     1       7.881   4.778  57.834  0.00  0.00    +0.000 A 
ATOM     36 CL   UNL     1       9.469   5.446  57.973  0.00  0.00    +0.000 Cl
ENDBRANCH  27  29
ENDBRANCH   5  25
TORSDOF 5
ENDMDL
MODEL 9
REMARK VINA RESULT:      -3.6     11.906     17.847
REMARK  Name = Dasatinib.pdbqt.pdb
REMARK  5 active torsions:
REMARK  status: ('A' for Active; 'I' for Inactive)
REMARK    1  A    between atoms: N_1  and  C_3
REMARK    2  A    between atoms: N_13  and  C_16
REMARK    3  A    between atoms: C_17  and  O_18
REMARK    4  A    between atoms: C_22  and  C_25
REMARK    5  A    between atoms: N_27  and  C_29
REMARK                            x       y       z     vdW  Elec       q    Type
REMARK                         _______ _______ _______ _____ _____    ______ ____
ROOT
ATOM      1  N   UNL     1       3.211   8.058  72.593  0.00  0.00    +0.000 N 
ATOM      2  H   UNL     1       2.330   7.936  72.108  0.00  0.00    +0.000 HD
ATOM      3  C   UNL     1       3.949   9.134  72.233  0.00  0.00    +0.000 A 
ATOM      4  S   UNL     1       3.418  10.105  70.904  0.00  0.00    +0.000 S 
ATOM      5  C   UNL     1       4.785  11.122  71.091  0.00  0.00    +0.000 A 
ATOM      6  C   UNL     1       5.545  10.649  72.133  0.00  0.00    +0.000 A 
ATOM      7  N   UNL     1       5.092   9.515  72.758  0.00  0.00    +0.000 NA
ENDROOT
BRANCH   1   8
ATOM      8  C   UNL     1       3.216   7.477  73.880  0.00  0.00    +0.000 A 
ATOM      9  N   UNL     1       4.017   6.449  74.184  0.00  0.00    +0.000 NA
ATOM     10  C   UNL     1       3.908   5.932  75.413  0.00  0.00    +0.000 A 
ATOM     11  N   UNL     1       3.078   6.367  76.368  0.00  0.00    +0.000 NA
ATOM     12  C   UNL     1       4.817   4.791  75.767  0.00  0.00    +0.000 C 
ATOM     13  C   UNL     1       2.287   7.410  76.062  0.00  0.00    +0.000 A 
ATOM     14  C   UNL     1       2.323   7.990  74.803  0.00  0.00    +0.000 A 
ATOM     15  N   UNL     1       1.351   7.899  77.011  0.00  0.00    +0.000 N 
ATOM     16  C   UNL     1       1.063   9.358  77.028  0.00  0.00    +0.000 C 
ATOM     17  C   UNL     1       1.070  10.321  78.245  0.00  0.00    +0.000 C 
ATOM     18  N   UNL     1       1.353  10.119  79.694  0.00  0.00    +0.000 N 
ATOM     19  C   UNL     1       1.628   8.657  79.615  0.00  0.00    +0.000 C 
ATOM     20  C   UNL     1       1.639   7.638  78.446  0.00  0.00    +0.000 C 
BRANCH  18  21
ATOM     21  C   UNL     1       0.083  10.269  80.393  0.00  0.00    +0.000 C 
ATOM     22  C   UNL     1      -1.255  10.426  81.127  0.00  0.00    +0.000 C 
BRANCH  22  23
ATOM     23  O   UNL     1      -2.413  10.562  81.760  0.00  0.00    +0.000 OA
ATOM     24  H   UNL     1      -2.935  11.279  81.363  0.00  0.00    +0.000 HD
ENDBRANCH  22  23
ENDBRANCH  18  21
ENDBRANCH   1   8
BRANCH   5  25
ATOM     25  C   UNL     1       4.984  12.272  70.238  0.00  0.00    +0.000 C 
ATOM     26  O   UNL     1       6.095  12.699  69.933  0.00  0.00    +0.000 OA
ATOM     27  N   UNL     1       3.811  12.910  69.853  0.00  0.00    +0.000 N 
ATOM     28  H   UNL     1       3.043  12.858  70.521  0.00  0.00    +0.000 HD
BRANCH  27  29
ATOM     29  C   UNL     1       3.771  14.055  69.000  0.00  0.00    +0.000 A 
ATOM     30  C   UNL     1       3.441  15.298  69.581  0.00  0.00    +0.000 A 
ATOM     31  C   UNL     1       3.412  16.468  68.825  0.00  0.00    +0.000 A 
ATOM     32  C   UNL     1       3.126  15.397  71.059  0.00  0.00    +0.000 C 
ATOM     33  C   UNL     1       3.691  16.420  67.465  0.00  0.00    +0.000 A 
ATOM     34  C   UNL     1       3.951  15.196  66.860  0.00  0.00    +0.000 A 
ATOM     35  C   UNL     1       3.983  14.018  67.612  0.00  0.00    +0.000 A 
ATOM     36 CL   UNL     1       4.044  12.555  66.694  0.00  0.00    +0.000 Cl
ENDBRANCH  27  29
ENDBRANCH   5  25
TORSDOF 5
ENDMDL
