MODEL 1
REMARK VINA RESULT:      -3.5      0.000      0.000
REMARK  Name = Decitabine.pdbqt.pdb
REMARK  4 active torsions:
REMARK  status: ('A' for Active; 'I' for Inactive)
REMARK    1  A    between atoms: N_2  and  C1*_8
REMARK    2  A    between atoms: C4*_10  and  C5*_13
REMARK    3  A    between atoms: C3*_11  and  O3*_16
REMARK    4  A    between atoms: C5*_13  and  O5*_14
REMARK                            x       y       z     vdW  Elec       q    Type
REMARK                         _______ _______ _______ _____ _____    ______ ____
ROOT
ATOM      1  O   UNL     1      16.142   7.886  70.955  0.00  0.00    +0.000 OA
ATOM      2  N   UNL     1      14.991   7.417  69.001  0.00  0.00    +0.000 N 
ATOM      3  N   UNL     1      14.869   9.531  70.006  0.00  0.00    +0.000 NA
ATOM      4  N   UNL     1      13.661   9.062  68.008  0.00  0.00    +0.000 NA
ATOM      5  C   UNL     1      15.393   8.239  70.049  0.00  0.00    +0.000 A 
ATOM      6  C   UNL     1      14.169   8.021  68.149  0.00  0.00    +0.000 A 
ATOM      7  C   UNL     1      14.072   9.896  69.034  0.00  0.00    +0.000 A 
ATOM      8  N   UNL     1      13.594  11.166  69.034  0.00  0.00    +0.000 N 
ATOM      9  H   UNL     1      12.711  11.280  68.553  0.00  0.00    +0.000 HD
ATOM     10  H   UNL     1      13.645  11.614  69.941  0.00  0.00    +0.000 HD
ENDROOT
BRANCH   2  11
ATOM     11  C1* UNL     1      15.356   6.122  68.808  0.00  0.00    +0.000 A 
ATOM     12  O4* UNL     1      15.750   5.640  67.555  0.00  0.00    +0.000 OA
ATOM     13  C4* UNL     1      16.059   4.284  67.720  0.00  0.00    +0.000 A 
ATOM     14  C3* UNL     1      15.849   3.915  69.097  0.00  0.00    +0.000 A 
ATOM     15  C2* UNL     1      15.424   5.081  69.756  0.00  0.00    +0.000 A 
BRANCH  14  16
ATOM     16  O3* UNL     1      16.590   2.928  69.682  0.00  0.00    +0.000 OA
ATOM     17  H3* UNL     1      17.524   3.190  69.756  0.00  0.00    +0.000 HD
ENDBRANCH  14  16
BRANCH  13  18
ATOM     18  C5* UNL     1      16.656   3.513  66.703  0.00  0.00    +0.000 C 
BRANCH  18  19
ATOM     19  O5* UNL     1      17.218   2.789  65.740  0.00  0.00    +0.000 OA
ATOM     20  H5* UNL     1      17.456   3.357  64.987  0.00  0.00    +0.000 HD
ENDBRANCH  18  19
ENDBRANCH  13  18
ENDBRANCH   2  11
TORSDOF 4
ENDMDL
MODEL 2
REMARK VINA RESULT:      -3.5     12.692     14.068
REMARK  Name = Decitabine.pdbqt.pdb
REMARK  4 active torsions:
REMARK  status: ('A' for Active; 'I' for Inactive)
REMARK    1  A    between atoms: N_2  and  C1*_8
REMARK    2  A    between atoms: C4*_10  and  C5*_13
REMARK    3  A    between atoms: C3*_11  and  O3*_16
REMARK    4  A    between atoms: C5*_13  and  O5*_14
REMARK                            x       y       z     vdW  Elec       q    Type
REMARK                         _______ _______ _______ _____ _____    ______ ____
ROOT
ATOM      1  O   UNL     1       1.825   8.792  76.186  0.00  0.00    +0.000 OA
ATOM      2  N   UNL     1       3.072   7.406  74.813  0.00  0.00    +0.000 N 
ATOM      3  N   UNL     1       2.196   6.634  76.846  0.00  0.00    +0.000 NA
ATOM      4  N   UNL     1       3.494   5.200  75.458  0.00  0.00    +0.000 NA
ATOM      5  C   UNL     1       2.330   7.698  75.953  0.00  0.00    +0.000 A 
ATOM      6  C   UNL     1       3.525   6.156  74.791  0.00  0.00    +0.000 A 
ATOM      7  C   UNL     1       2.738   5.473  76.586  0.00  0.00    +0.000 A 
ATOM      8  N   UNL     1       2.574   4.468  77.483  0.00  0.00    +0.000 N 
ATOM      9  H   UNL     1       3.306   3.769  77.468  0.00  0.00    +0.000 HD
ATOM     10  H   UNL     1       2.317   4.794  78.407  0.00  0.00    +0.000 HD
ENDROOT
BRANCH   2  11
ATOM     11  C1* UNL     1       3.349   8.260  73.792  0.00  0.00    +0.000 A 
ATOM     12  O4* UNL     1       4.554   8.968  73.722  0.00  0.00    +0.000 OA
ATOM     13  C4* UNL     1       4.506   9.735  72.551  0.00  0.00    +0.000 A 
ATOM     14  C3* UNL     1       3.249   9.506  71.886  0.00  0.00    +0.000 A 
ATOM     15  C2* UNL     1       2.553   8.572  72.672  0.00  0.00    +0.000 A 
BRANCH  14  16
ATOM     16  O3* UNL     1       3.146   9.595  70.527  0.00  0.00    +0.000 OA
ATOM     17  H3* UNL     1       2.541   8.917  70.177  0.00  0.00    +0.000 HD
ENDBRANCH  14  16
BRANCH  13  18
ATOM     18  C5* UNL     1       5.620  10.448  72.066  0.00  0.00    +0.000 C 
BRANCH  18  19
ATOM     19  O5* UNL     1       6.674  11.120  71.613  0.00  0.00    +0.000 OA
ATOM     20  H5* UNL     1       6.931  10.790  70.735  0.00  0.00    +0.000 HD
ENDBRANCH  18  19
ENDBRANCH  13  18
ENDBRANCH   2  11
TORSDOF 4
ENDMDL
MODEL 3
REMARK VINA RESULT:      -3.3     12.001     13.120
REMARK  Name = Decitabine.pdbqt.pdb
REMARK  4 active torsions:
REMARK  status: ('A' for Active; 'I' for Inactive)
REMARK    1  A    between atoms: N_2  and  C1*_8
REMARK    2  A    between atoms: C4*_10  and  C5*_13
REMARK    3  A    between atoms: C3*_11  and  O3*_16
REMARK    4  A    between atoms: C5*_13  and  O5*_14
REMARK                            x       y       z     vdW  Elec       q    Type
REMARK                         _______ _______ _______ _____ _____    ______ ____
ROOT
ATOM      1  O   UNL     1       1.573   9.077  72.758  0.00  0.00    +0.000 OA
ATOM      2  N   UNL     1       3.317   8.942  71.242  0.00  0.00    +0.000 N 
ATOM      3  N   UNL     1       3.656   9.755  73.414  0.00  0.00    +0.000 NA
ATOM      4  N   UNL     1       5.458   9.644  71.863  0.00  0.00    +0.000 NA
ATOM      5  C   UNL     1       2.757   9.239  72.480  0.00  0.00    +0.000 A 
ATOM      6  C   UNL     1       4.618   9.215  71.178  0.00  0.00    +0.000 A 
ATOM      7  C   UNL     1       4.916   9.922  73.106  0.00  0.00    +0.000 A 
ATOM      8  N   UNL     1       5.751  10.421  74.052  0.00  0.00    +0.000 N 
ATOM      9  H   UNL     1       6.558  10.907  73.684  0.00  0.00    +0.000 HD
ATOM     10  H   UNL     1       5.267  10.906  74.799  0.00  0.00    +0.000 HD
ENDROOT
BRANCH   2  11
ATOM     11  C1* UNL     1       2.666   8.431  70.164  0.00  0.00    +0.000 A 
ATOM     12  O4* UNL     1       3.143   7.316  69.467  0.00  0.00    +0.000 OA
ATOM     13  C4* UNL     1       2.232   7.062  68.433  0.00  0.00    +0.000 A 
ATOM     14  C3* UNL     1       1.175   8.039  68.485  0.00  0.00    +0.000 A 
ATOM     15  C2* UNL     1       1.461   8.872  69.580  0.00  0.00    +0.000 A 
BRANCH  14  16
ATOM     16  O3* UNL     1      -0.087   7.733  68.062  0.00  0.00    +0.000 OA
ATOM     17  H3* UNL     1      -0.406   6.912  68.477  0.00  0.00    +0.000 HD
ENDBRANCH  14  16
BRANCH  13  18
ATOM     18  C5* UNL     1       2.301   5.908  67.629  0.00  0.00    +0.000 C 
BRANCH  18  19
ATOM     19  O5* UNL     1       2.360   4.817  66.870  0.00  0.00    +0.000 OA
ATOM     20  H5* UNL     1       2.522   5.062  65.943  0.00  0.00    +0.000 HD
ENDBRANCH  18  19
ENDBRANCH  13  18
ENDBRANCH   2  11
TORSDOF 4
ENDMDL
MODEL 4
REMARK VINA RESULT:      -3.3     12.737     13.731
REMARK  Name = Decitabine.pdbqt.pdb
REMARK  4 active torsions:
REMARK  status: ('A' for Active; 'I' for Inactive)
REMARK    1  A    between atoms: N_2  and  C1*_8
REMARK    2  A    between atoms: C4*_10  and  C5*_13
REMARK    3  A    between atoms: C3*_11  and  O3*_16
REMARK    4  A    between atoms: C5*_13  and  O5*_14
REMARK                            x       y       z     vdW  Elec       q    Type
REMARK                         _______ _______ _______ _____ _____    ______ ____
ROOT
ATOM      1  O   UNL     1       3.877   7.843  72.511  0.00  0.00    +0.000 OA
ATOM      2  N   UNL     1       2.846   7.664  74.576  0.00  0.00    +0.000 N 
ATOM      3  N   UNL     1       1.974   9.050  72.899  0.00  0.00    +0.000 NA
ATOM      4  N   UNL     1       0.911   8.896  75.024  0.00  0.00    +0.000 NA
ATOM      5  C   UNL     1       2.972   8.152  73.279  0.00  0.00    +0.000 A 
ATOM      6  C   UNL     1       1.790   8.154  75.219  0.00  0.00    +0.000 A 
ATOM      7  C   UNL     1       1.014   9.372  73.728  0.00  0.00    +0.000 A 
ATOM      8  N   UNL     1       0.063  10.245  73.307  0.00  0.00    +0.000 N 
ATOM      9  H   UNL     1      -0.383  10.766  74.050  0.00  0.00    +0.000 HD
ATOM     10  H   UNL     1       0.354  10.801  72.512  0.00  0.00    +0.000 HD
ENDROOT
BRANCH   2  11
ATOM     11  C1* UNL     1       3.679   6.781  75.189  0.00  0.00    +0.000 A 
ATOM     12  O4* UNL     1       4.998   7.110  75.517  0.00  0.00    +0.000 OA
ATOM     13  C4* UNL     1       5.556   5.983  76.135  0.00  0.00    +0.000 A 
ATOM     14  C3* UNL     1       4.569   4.935  76.187  0.00  0.00    +0.000 A 
ATOM     15  C2* UNL     1       3.404   5.463  75.603  0.00  0.00    +0.000 A 
BRANCH  14  16
ATOM     16  O3* UNL     1       4.573   4.013  77.194  0.00  0.00    +0.000 OA
ATOM     17  H3* UNL     1       4.938   3.164  76.889  0.00  0.00    +0.000 HD
ENDBRANCH  14  16
BRANCH  13  18
ATOM     18  C5* UNL     1       6.821   6.006  76.753  0.00  0.00    +0.000 C 
BRANCH  18  19
ATOM     19  O5* UNL     1       8.017   6.023  77.335  0.00  0.00    +0.000 OA
ATOM     20  H5* UNL     1       8.151   6.865  77.804  0.00  0.00    +0.000 HD
ENDBRANCH  18  19
ENDBRANCH  13  18
ENDBRANCH   2  11
TORSDOF 4
ENDMDL
MODEL 5
REMARK VINA RESULT:      -3.3      9.405     10.278
REMARK  Name = Decitabine.pdbqt.pdb
REMARK  4 active torsions:
REMARK  status: ('A' for Active; 'I' for Inactive)
REMARK    1  A    between atoms: N_2  and  C1*_8
REMARK    2  A    between atoms: C4*_10  and  C5*_13
REMARK    3  A    between atoms: C3*_11  and  O3*_16
REMARK    4  A    between atoms: C5*_13  and  O5*_14
REMARK                            x       y       z     vdW  Elec       q    Type
REMARK                         _______ _______ _______ _____ _____    ______ ____
ROOT
ATOM      1  O   UNL     1      16.985  13.410  61.845  0.00  0.00    +0.000 OA
ATOM      2  N   UNL     1      15.554  11.997  60.699  0.00  0.00    +0.000 N 
ATOM      3  N   UNL     1      14.735  13.598  62.204  0.00  0.00    +0.000 NA
ATOM      4  N   UNL     1      13.247  12.139  61.051  0.00  0.00    +0.000 NA
ATOM      5  C   UNL     1      15.849  13.023  61.592  0.00  0.00    +0.000 A 
ATOM      6  C   UNL     1      14.251  11.750  60.601  0.00  0.00    +0.000 A 
ATOM      7  C   UNL     1      13.528  13.176  61.925  0.00  0.00    +0.000 A 
ATOM      8  N   UNL     1      12.477  13.772  62.542  0.00  0.00    +0.000 N 
ATOM      9  H   UNL     1      11.657  13.187  62.630  0.00  0.00    +0.000 HD
ATOM     10  H   UNL     1      12.737  14.269  63.386  0.00  0.00    +0.000 HD
ENDROOT
BRANCH   2  11
ATOM     11  C1* UNL     1      16.450  11.277  59.974  0.00  0.00    +0.000 A 
ATOM     12  O4* UNL     1      16.931  11.719  58.737  0.00  0.00    +0.000 OA
ATOM     13  C4* UNL     1      17.831  10.747  58.281  0.00  0.00    +0.000 A 
ATOM     14  C3* UNL     1      17.905   9.680  59.246  0.00  0.00    +0.000 A 
ATOM     15  C2* UNL     1      17.046  10.041  60.298  0.00  0.00    +0.000 A 
BRANCH  14  16
ATOM     16  O3* UNL     1      19.050   8.953  59.405  0.00  0.00    +0.000 OA
ATOM     17  H3* UNL     1      19.609   9.331  60.106  0.00  0.00    +0.000 HD
ENDBRANCH  14  16
BRANCH  13  18
ATOM     18  C5* UNL     1      18.640  10.937  57.144  0.00  0.00    +0.000 C 
BRANCH  18  19
ATOM     19  O5* UNL     1      19.406  11.121  56.072  0.00  0.00    +0.000 OA
ATOM     20  H5* UNL     1      19.628  12.063  55.975  0.00  0.00    +0.000 HD
ENDBRANCH  18  19
ENDBRANCH  13  18
ENDBRANCH   2  11
TORSDOF 4
ENDMDL
MODEL 6
REMARK VINA RESULT:      -3.2     11.985     13.432
REMARK  Name = Decitabine.pdbqt.pdb
REMARK  4 active torsions:
REMARK  status: ('A' for Active; 'I' for Inactive)
REMARK    1  A    between atoms: N_2  and  C1*_8
REMARK    2  A    between atoms: C4*_10  and  C5*_13
REMARK    3  A    between atoms: C3*_11  and  O3*_16
REMARK    4  A    between atoms: C5*_13  and  O5*_14
REMARK                            x       y       z     vdW  Elec       q    Type
REMARK                         _______ _______ _______ _____ _____    ______ ____
ROOT
ATOM      1  O   UNL     1       5.408   6.702  63.021  0.00  0.00    +0.000 OA
ATOM      2  N   UNL     1       5.925   6.695  60.765  0.00  0.00    +0.000 N 
ATOM      3  N   UNL     1       4.972   4.819  61.799  0.00  0.00    +0.000 NA
ATOM      4  N   UNL     1       5.516   4.784  59.482  0.00  0.00    +0.000 NA
ATOM      5  C   UNL     1       5.437   6.127  61.938  0.00  0.00    +0.000 A 
ATOM      6  C   UNL     1       5.862   5.872  59.722  0.00  0.00    +0.000 A 
ATOM      7  C   UNL     1       5.008   4.218  60.638  0.00  0.00    +0.000 A 
ATOM      8  N   UNL     1       4.538   2.947  60.555  0.00  0.00    +0.000 N 
ATOM      9  H   UNL     1       4.943   2.399  59.807  0.00  0.00    +0.000 HD
ATOM     10  H   UNL     1       4.494   2.476  61.451  0.00  0.00    +0.000 HD
ENDROOT
BRANCH   2  11
ATOM     11  C1* UNL     1       6.432   7.948  60.626  0.00  0.00    +0.000 A 
ATOM     12  O4* UNL     1       5.619   9.086  60.660  0.00  0.00    +0.000 OA
ATOM     13  C4* UNL     1       6.462  10.193  60.496  0.00  0.00    +0.000 A 
ATOM     14  C3* UNL     1       7.821   9.735  60.351  0.00  0.00    +0.000 A 
ATOM     15  C2* UNL     1       7.776   8.333  60.450  0.00  0.00    +0.000 A 
BRANCH  14  16
ATOM     16  O3* UNL     1       8.870  10.501  60.771  0.00  0.00    +0.000 OA
ATOM     17  H3* UNL     1       9.623   9.946  61.038  0.00  0.00    +0.000 HD
ENDBRANCH  14  16
BRANCH  13  18
ATOM     18  C5* UNL     1       6.012  11.518  60.648  0.00  0.00    +0.000 C 
BRANCH  18  19
ATOM     19  O5* UNL     1       5.591  12.772  60.793  0.00  0.00    +0.000 OA
ATOM     20  H5* UNL     1       6.281  13.311  61.215  0.00  0.00    +0.000 HD
ENDBRANCH  18  19
ENDBRANCH  13  18
ENDBRANCH   2  11
TORSDOF 4
ENDMDL
MODEL 7
REMARK VINA RESULT:      -3.1     11.950     13.124
REMARK  Name = Decitabine.pdbqt.pdb
REMARK  4 active torsions:
REMARK  status: ('A' for Active; 'I' for Inactive)
REMARK    1  A    between atoms: N_2  and  C1*_8
REMARK    2  A    between atoms: C4*_10  and  C5*_13
REMARK    3  A    between atoms: C3*_11  and  O3*_16
REMARK    4  A    between atoms: C5*_13  and  O5*_14
REMARK                            x       y       z     vdW  Elec       q    Type
REMARK                         _______ _______ _______ _____ _____    ______ ____
ROOT
ATOM      1  O   UNL     1       1.646  10.674  72.382  0.00  0.00    +0.000 OA
ATOM      2  N   UNL     1       3.852  10.036  72.671  0.00  0.00    +0.000 N 
ATOM      3  N   UNL     1       3.239  11.571  71.009  0.00  0.00    +0.000 NA
ATOM      4  N   UNL     1       5.511  10.911  71.277  0.00  0.00    +0.000 NA
ATOM      5  C   UNL     1       2.826  10.747  72.057  0.00  0.00    +0.000 A 
ATOM      6  C   UNL     1       5.046  10.272  72.135  0.00  0.00    +0.000 A 
ATOM      7  C   UNL     1       4.502  11.640  70.672  0.00  0.00    +0.000 A 
ATOM      8  N   UNL     1       4.853  12.461  69.650  0.00  0.00    +0.000 N 
ATOM      9  H   UNL     1       5.699  12.190  69.168  0.00  0.00    +0.000 HD
ATOM     10  H   UNL     1       4.077  12.703  69.045  0.00  0.00    +0.000 HD
ENDROOT
BRANCH   2  11
ATOM     11  C1* UNL     1       3.721   9.170  73.711  0.00  0.00    +0.000 A 
ATOM     12  O4* UNL     1       3.830   7.785  73.542  0.00  0.00    +0.000 OA
ATOM     13  C4* UNL     1       3.651   7.207  74.805  0.00  0.00    +0.000 A 
ATOM     14  C3* UNL     1       3.422   8.248  75.774  0.00  0.00    +0.000 A 
ATOM     15  C2* UNL     1       3.484   9.462  75.069  0.00  0.00    +0.000 A 
BRANCH  14  16
ATOM     16  O3* UNL     1       3.806   8.096  77.076  0.00  0.00    +0.000 OA
ATOM     17  H3* UNL     1       3.877   8.957  77.522  0.00  0.00    +0.000 HD
ENDBRANCH  14  16
BRANCH  13  18
ATOM     18  C5* UNL     1       3.864   5.836  75.048  0.00  0.00    +0.000 C 
BRANCH  18  19
ATOM     19  O5* UNL     1       4.068   4.542  75.282  0.00  0.00    +0.000 OA
ATOM     20  H5* UNL     1       4.021   4.362  76.237  0.00  0.00    +0.000 HD
ENDBRANCH  18  19
ENDBRANCH  13  18
ENDBRANCH   2  11
TORSDOF 4
ENDMDL
MODEL 8
REMARK VINA RESULT:      -3.1     12.412     13.535
REMARK  Name = Decitabine.pdbqt.pdb
REMARK  4 active torsions:
REMARK  status: ('A' for Active; 'I' for Inactive)
REMARK    1  A    between atoms: N_2  and  C1*_8
REMARK    2  A    between atoms: C4*_10  and  C5*_13
REMARK    3  A    between atoms: C3*_11  and  O3*_16
REMARK    4  A    between atoms: C5*_13  and  O5*_14
REMARK                            x       y       z     vdW  Elec       q    Type
REMARK                         _______ _______ _______ _____ _____    ______ ____
ROOT
ATOM      1  O   UNL     1      10.594   4.683  57.987  0.00  0.00    +0.000 OA
ATOM      2  N   UNL     1       8.435   3.849  57.991  0.00  0.00    +0.000 N 
ATOM      3  N   UNL     1       8.862   6.116  58.404  0.00  0.00    +0.000 NA
ATOM      4  N   UNL     1       6.636   5.274  58.433  0.00  0.00    +0.000 NA
ATOM      5  C   UNL     1       9.386   4.856  58.114  0.00  0.00    +0.000 A 
ATOM      6  C   UNL     1       7.191   4.279  58.182  0.00  0.00    +0.000 A 
ATOM      7  C   UNL     1       7.572   6.288  58.536  0.00  0.00    +0.000 A 
ATOM      8  N   UNL     1       7.112   7.535  58.813  0.00  0.00    +0.000 N 
ATOM      9  H   UNL     1       6.225   7.555  59.298  0.00  0.00    +0.000 HD
ATOM     10  H   UNL     1       7.821   8.148  59.197  0.00  0.00    +0.000 HD
ENDROOT
BRANCH   2  11
ATOM     11  C1* UNL     1       8.678   2.541  57.712  0.00  0.00    +0.000 A 
ATOM     12  O4* UNL     1       8.392   1.982  56.462  0.00  0.00    +0.000 OA
ATOM     13  C4* UNL     1       8.770   0.635  56.523  0.00  0.00    +0.000 A 
ATOM     14  C3* UNL     1       9.294   0.349  57.834  0.00  0.00    +0.000 A 
ATOM     15  C2* UNL     1       9.238   1.557  58.551  0.00  0.00    +0.000 A 
BRANCH  14  16
ATOM     16  O3* UNL     1      10.249  -0.609  58.017  0.00  0.00    +0.000 OA
ATOM     17  H3* UNL     1      11.140  -0.247  57.869  0.00  0.00    +0.000 HD
ENDBRANCH  14  16
BRANCH  13  18
ATOM     18  C5* UNL     1       8.785  -0.200  55.388  0.00  0.00    +0.000 C 
BRANCH  18  19
ATOM     19  O5* UNL     1       8.795  -0.990  54.318  0.00  0.00    +0.000 OA
ATOM     20  H5* UNL     1       9.227  -0.539  53.572  0.00  0.00    +0.000 HD
ENDBRANCH  18  19
ENDBRANCH  13  18
ENDBRANCH   2  11
TORSDOF 4
ENDMDL
MODEL 9
REMARK VINA RESULT:      -3.1     12.332     13.932
REMARK  Name = Decitabine.pdbqt.pdb
REMARK  4 active torsions:
REMARK  status: ('A' for Active; 'I' for Inactive)
REMARK    1  A    between atoms: N_2  and  C1*_8
REMARK    2  A    between atoms: C4*_10  and  C5*_13
REMARK    3  A    between atoms: C3*_11  and  O3*_16
REMARK    4  A    between atoms: C5*_13  and  O5*_14
REMARK                            x       y       z     vdW  Elec       q    Type
REMARK                         _______ _______ _______ _____ _____    ______ ____
ROOT
ATOM      1  O   UNL     1       4.966   8.438  57.637  0.00  0.00    +0.000 OA
ATOM      2  N   UNL     1       6.580   7.043  58.535  0.00  0.00    +0.000 N 
ATOM      3  N   UNL     1       6.419   7.384  56.221  0.00  0.00    +0.000 NA
ATOM      4  N   UNL     1       8.073   5.928  57.123  0.00  0.00    +0.000 NA
ATOM      5  C   UNL     1       5.918   7.679  57.489  0.00  0.00    +0.000 A 
ATOM      6  C   UNL     1       7.573   6.259  58.124  0.00  0.00    +0.000 A 
ATOM      7  C   UNL     1       7.435   6.573  56.077  0.00  0.00    +0.000 A 
ATOM      8  N   UNL     1       7.889   6.323  54.822  0.00  0.00    +0.000 N 
ATOM      9  H   UNL     1       8.356   5.432  54.716  0.00  0.00    +0.000 HD
ATOM     10  H   UNL     1       7.212   6.538  54.101  0.00  0.00    +0.000 HD
ENDROOT
BRANCH   2  11
ATOM     11  C1* UNL     1       6.294   7.158  59.858  0.00  0.00    +0.000 A 
ATOM     12  O4* UNL     1       6.712   8.257  60.616  0.00  0.00    +0.000 OA
ATOM     13  C4* UNL     1       6.243   8.054  61.920  0.00  0.00    +0.000 A 
ATOM     14  C3* UNL     1       5.526   6.806  61.976  0.00  0.00    +0.000 A 
ATOM     15  C2* UNL     1       5.561   6.274  60.675  0.00  0.00    +0.000 A 
BRANCH  14  16
ATOM     16  O3* UNL     1       4.495   6.625  62.852  0.00  0.00    +0.000 OA
ATOM     17  H3* UNL     1       4.504   7.305  63.548  0.00  0.00    +0.000 HD
ENDBRANCH  14  16
BRANCH  13  18
ATOM     18  C5* UNL     1       6.330   9.043  62.919  0.00  0.00    +0.000 C 
BRANCH  18  19
ATOM     19  O5* UNL     1       6.411   9.973  63.866  0.00  0.00    +0.000 OA
ATOM     20  H5* UNL     1       6.353  10.860  63.472  0.00  0.00    +0.000 HD
ENDBRANCH  18  19
ENDBRANCH  13  18
ENDBRANCH   2  11
TORSDOF 4
ENDMDL
