MODEL 1
REMARK VINA RESULT:      -3.2      0.000      0.000
REMARK  Name = Deferoxamine.pdbqt.pdb
REMARK  19 active torsions:
REMARK  status: ('A' for Active; 'I' for Inactive)
REMARK    1  A    between atoms: C_1  and  C_2
REMARK    2  A    between atoms: C_3  and  C_4
REMARK    3  A    between atoms: C_4  and  N_5
REMARK    4  A    between atoms: C_6  and  C_9
REMARK    5  A    between atoms: C_10  and  C_11
REMARK    6  A    between atoms: N_13  and  O_14
REMARK    7  A    between atoms: N_13  and  C_16
REMARK    8  A    between atoms: C_17  and  C_18
REMARK    9  A    between atoms: C_19  and  C_20
REMARK   10  A    between atoms: C_20  and  N_21
REMARK   11  A    between atoms: C_24  and  N_25
REMARK   12  A    between atoms: N_25  and  O_28
REMARK   13  A    between atoms: C_26  and  C_30
REMARK   14  A    between atoms: C_31  and  C_32
REMARK   15  A    between atoms: N_34  and  C_36
REMARK   16  A    between atoms: C_37  and  C_38
REMARK   17  A    between atoms: C_38  and  C_39
REMARK   18  A    between atoms: C_40  and  N_41
REMARK   19  A    between atoms: N_41  and  O_45
REMARK                            x       y       z     vdW  Elec       q    Type
REMARK                         _______ _______ _______ _____ _____    ______ ____
ROOT
ATOM      1  C   UNL     1       6.961   2.157  59.563  0.00  0.00    +0.000 C 
ATOM      2  C   UNL     1       7.620   1.576  58.744  0.00  0.00    +0.000 C 
ENDROOT
BRANCH   2   3
ATOM      3  N   UNL     1       8.359   0.925  57.822  0.00  0.00    +0.000 N 
ATOM      4  C   UNL     1       7.977   0.131  56.755  0.00  0.00    +0.000 C 
ATOM      5  O   UNL     1       6.836  -0.272  56.555  0.00  0.00    +0.000 OA
BRANCH   4   6
ATOM      6  C   UNL     1       9.009  -0.282  55.827  0.00  0.00    +0.000 C 
ATOM      7  C   UNL     1       9.876  -0.622  55.067  0.00  0.00    +0.000 C 
BRANCH   7   8
ATOM      8  C   UNL     1      10.930  -1.016  54.166  0.00  0.00    +0.000 C 
ATOM      9  O   UNL     1      10.664  -1.751  53.226  0.00  0.00    +0.000 OA
ATOM     10  N   UNL     1      12.175  -0.508  54.462  0.00  0.00    +0.000 N 
ATOM     11  H   UNL     1      12.230   0.093  55.275  0.00  0.00    +0.000 HD
BRANCH  10  12
ATOM     12  C   UNL     1      13.346  -0.693  53.815  0.00  0.00    +0.000 C 
ATOM     13  C   UNL     1      14.389  -0.855  53.244  0.00  0.00    +0.000 C 
BRANCH  13  14
ATOM     14  C   UNL     1      15.725  -1.062  52.524  0.00  0.00    +0.000 C 
BRANCH  14  15
ATOM     15  C   UNL     1      17.061  -1.277  51.807  0.00  0.00    +0.000 C 
ATOM     16  C   UNL     1      18.106  -1.447  51.242  0.00  0.00    +0.000 C 
BRANCH  16  17
ATOM     17  N   UNL     1      19.276  -1.637  50.602  0.00  0.00    +0.000 N 
ATOM     18  C   UNL     1      19.770  -2.725  49.921  0.00  0.00    +0.000 C 
ATOM     19  O   UNL     1      19.268  -3.815  49.715  0.00  0.00    +0.000 OA
ATOM     20  C   UNL     1      21.142  -2.643  49.300  0.00  0.00    +0.000 C 
BRANCH  17  21
ATOM     21  O   UNL     1      20.064  -0.462  50.707  0.00  0.00    +0.000 OA
ATOM     22  H   UNL     1      19.992  -0.230  51.656  0.00  0.00    +0.000 HD
ENDBRANCH  17  21
ENDBRANCH  16  17
ENDBRANCH  14  15
ENDBRANCH  13  14
ENDBRANCH  10  12
ENDBRANCH   7   8
ENDBRANCH   4   6
BRANCH   3  23
ATOM     23  O   UNL     1       9.661   1.475  57.792  0.00  0.00    +0.000 OA
ATOM     24  H   UNL     1      10.063   1.066  58.581  0.00  0.00    +0.000 HD
ENDBRANCH   3  23
ENDBRANCH   2   3
BRANCH   1  25
ATOM     25  C   UNL     1       6.109   2.898  60.597  0.00  0.00    +0.000 C 
ATOM     26  C   UNL     1       5.451   3.488  61.409  0.00  0.00    +0.000 C 
BRANCH  26  27
ATOM     27  C   UNL     1       4.621   4.251  62.446  0.00  0.00    +0.000 C 
BRANCH  27  28
ATOM     28  N   UNL     1       3.902   4.920  63.373  0.00  0.00    +0.000 N 
ATOM     29  C   UNL     1       2.692   4.589  63.936  0.00  0.00    +0.000 C 
ATOM     30  O   UNL     1       2.034   3.591  63.681  0.00  0.00    +0.000 OA
ATOM     31  H   UNL     1       4.331   5.780  63.693  0.00  0.00    +0.000 HD
BRANCH  29  32
ATOM     32  C   UNL     1       2.189   5.527  64.910  0.00  0.00    +0.000 C 
ATOM     33  C   UNL     1       1.792   6.318  65.723  0.00  0.00    +0.000 C 
BRANCH  33  34
ATOM     34  C   UNL     1       1.328   7.287  66.694  0.00  0.00    +0.000 C 
ATOM     35  O   UNL     1       0.398   8.019  66.369  0.00  0.00    +0.000 OA
ATOM     36  N   UNL     1       1.993   7.342  67.908  0.00  0.00    +0.000 N 
BRANCH  36  37
ATOM     37  C   UNL     1       1.708   8.023  69.037  0.00  0.00    +0.000 C 
ATOM     38  C   UNL     1       1.458   8.629  70.042  0.00  0.00    +0.000 C 
BRANCH  38  39
ATOM     39  C   UNL     1       1.144   9.400  71.328  0.00  0.00    +0.000 C 
ATOM     40  C   UNL     1       0.900   9.999  72.339  0.00  0.00    +0.000 C 
BRANCH  40  41
ATOM     41  C   UNL     1       0.589  10.760  73.630  0.00  0.00    +0.000 C 
BRANCH  41  42
ATOM     42  N   UNL     1       0.294  11.483  74.857  0.00  0.00    +0.000 NA
ATOM     43  H   UNL     1      -0.711  11.617  74.957  0.00  0.00    +0.000 HD
ATOM     44  H   UNL     1       0.588  10.941  75.668  0.00  0.00    +0.000 HD
ENDBRANCH  41  42
ENDBRANCH  40  41
ENDBRANCH  38  39
ENDBRANCH  36  37
BRANCH  36  45
ATOM     45  O   UNL     1       2.898   6.298  68.204  0.00  0.00    +0.000 OA
ATOM     46  H   UNL     1       2.392   5.516  67.914  0.00  0.00    +0.000 HD
ENDBRANCH  36  45
ENDBRANCH  33  34
ENDBRANCH  29  32
ENDBRANCH  27  28
ENDBRANCH  26  27
ENDBRANCH   1  25
TORSDOF 19
ENDMDL
MODEL 2
REMARK VINA RESULT:      -2.9      2.786      2.956
REMARK  Name = Deferoxamine.pdbqt.pdb
REMARK  19 active torsions:
REMARK  status: ('A' for Active; 'I' for Inactive)
REMARK    1  A    between atoms: C_1  and  C_2
REMARK    2  A    between atoms: C_3  and  C_4
REMARK    3  A    between atoms: C_4  and  N_5
REMARK    4  A    between atoms: C_6  and  C_9
REMARK    5  A    between atoms: C_10  and  C_11
REMARK    6  A    between atoms: N_13  and  O_14
REMARK    7  A    between atoms: N_13  and  C_16
REMARK    8  A    between atoms: C_17  and  C_18
REMARK    9  A    between atoms: C_19  and  C_20
REMARK   10  A    between atoms: C_20  and  N_21
REMARK   11  A    between atoms: C_24  and  N_25
REMARK   12  A    between atoms: N_25  and  O_28
REMARK   13  A    between atoms: C_26  and  C_30
REMARK   14  A    between atoms: C_31  and  C_32
REMARK   15  A    between atoms: N_34  and  C_36
REMARK   16  A    between atoms: C_37  and  C_38
REMARK   17  A    between atoms: C_38  and  C_39
REMARK   18  A    between atoms: C_40  and  N_41
REMARK   19  A    between atoms: N_41  and  O_45
REMARK                            x       y       z     vdW  Elec       q    Type
REMARK                         _______ _______ _______ _____ _____    ______ ____
ROOT
ATOM      1  C   UNL     1       6.992   2.184  59.577  0.00  0.00    +0.000 C 
ATOM      2  C   UNL     1       7.639   1.588  58.759  0.00  0.00    +0.000 C 
ENDROOT
BRANCH   2   3
ATOM      3  N   UNL     1       8.366   0.920  57.839  0.00  0.00    +0.000 N 
ATOM      4  C   UNL     1       7.968   0.113  56.788  0.00  0.00    +0.000 C 
ATOM      5  O   UNL     1       6.823  -0.288  56.606  0.00  0.00    +0.000 OA
BRANCH   4   6
ATOM      6  C   UNL     1       8.989  -0.318  55.854  0.00  0.00    +0.000 C 
ATOM      7  C   UNL     1       9.845  -0.669  55.089  0.00  0.00    +0.000 C 
BRANCH   7   8
ATOM      8  C   UNL     1      10.886  -1.072  54.175  0.00  0.00    +0.000 C 
ATOM      9  O   UNL     1      11.988  -1.360  54.621  0.00  0.00    +0.000 OA
ATOM     10  N   UNL     1      10.524  -1.094  52.847  0.00  0.00    +0.000 N 
ATOM     11  H   UNL     1       9.568  -0.833  52.640  0.00  0.00    +0.000 HD
BRANCH  10  12
ATOM     12  C   UNL     1      11.266  -1.424  51.768  0.00  0.00    +0.000 C 
ATOM     13  C   UNL     1      11.931  -1.715  50.812  0.00  0.00    +0.000 C 
BRANCH  13  14
ATOM     14  C   UNL     1      12.787  -2.085  49.597  0.00  0.00    +0.000 C 
BRANCH  14  15
ATOM     15  C   UNL     1      13.649  -2.458  48.388  0.00  0.00    +0.000 C 
ATOM     16  C   UNL     1      14.328  -2.750  47.442  0.00  0.00    +0.000 C 
BRANCH  16  17
ATOM     17  N   UNL     1      15.095  -3.077  46.384  0.00  0.00    +0.000 N 
ATOM     18  C   UNL     1      15.059  -2.659  45.074  0.00  0.00    +0.000 C 
ATOM     19  O   UNL     1      14.312  -1.869  44.524  0.00  0.00    +0.000 OA
ATOM     20  C   UNL     1      16.064  -3.214  44.096  0.00  0.00    +0.000 C 
BRANCH  17  21
ATOM     21  O   UNL     1      16.075  -4.020  46.789  0.00  0.00    +0.000 OA
ATOM     22  H   UNL     1      15.557  -4.668  47.310  0.00  0.00    +0.000 HD
ENDBRANCH  17  21
ENDBRANCH  16  17
ENDBRANCH  14  15
ENDBRANCH  13  14
ENDBRANCH  10  12
ENDBRANCH   7   8
ENDBRANCH   4   6
BRANCH   3  23
ATOM     23  O   UNL     1       9.669   1.464  57.787  0.00  0.00    +0.000 OA
ATOM     24  H   UNL     1       9.939   1.412  58.723  0.00  0.00    +0.000 HD
ENDBRANCH   3  23
ENDBRANCH   2   3
BRANCH   1  25
ATOM     25  C   UNL     1       6.154   2.943  60.610  0.00  0.00    +0.000 C 
ATOM     26  C   UNL     1       5.507   3.548  61.419  0.00  0.00    +0.000 C 
BRANCH  26  27
ATOM     27  C   UNL     1       4.691   4.330  62.453  0.00  0.00    +0.000 C 
BRANCH  27  28
ATOM     28  N   UNL     1       3.985   5.018  63.377  0.00  0.00    +0.000 N 
ATOM     29  C   UNL     1       2.696   4.815  63.809  0.00  0.00    +0.000 C 
ATOM     30  O   UNL     1       1.938   3.940  63.414  0.00  0.00    +0.000 OA
ATOM     31  H   UNL     1       4.492   5.782  63.805  0.00  0.00    +0.000 HD
BRANCH  29  32
ATOM     32  C   UNL     1       2.234   5.734  64.821  0.00  0.00    +0.000 C 
ATOM     33  C   UNL     1       1.871   6.510  65.663  0.00  0.00    +0.000 C 
BRANCH  33  34
ATOM     34  C   UNL     1       1.446   7.462  66.669  0.00  0.00    +0.000 C 
ATOM     35  O   UNL     1       0.586   8.278  66.353  0.00  0.00    +0.000 OA
ATOM     36  N   UNL     1       2.070   7.406  67.904  0.00  0.00    +0.000 N 
BRANCH  36  37
ATOM     37  C   UNL     1       1.796   8.049  69.057  0.00  0.00    +0.000 C 
ATOM     38  C   UNL     1       1.551   8.619  70.085  0.00  0.00    +0.000 C 
BRANCH  38  39
ATOM     39  C   UNL     1       1.232   9.344  71.397  0.00  0.00    +0.000 C 
ATOM     40  C   UNL     1       0.976   9.912  72.422  0.00  0.00    +0.000 C 
BRANCH  40  41
ATOM     41  C   UNL     1       0.647  10.639  73.729  0.00  0.00    +0.000 C 
BRANCH  41  42
ATOM     42  N   UNL     1       0.334  11.329  74.969  0.00  0.00    +0.000 NA
ATOM     43  H   UNL     1       0.837  12.213  75.021  0.00  0.00    +0.000 HD
ATOM     44  H   UNL     1      -0.656  11.566  75.004  0.00  0.00    +0.000 HD
ENDBRANCH  41  42
ENDBRANCH  40  41
ENDBRANCH  38  39
ENDBRANCH  36  37
BRANCH  36  45
ATOM     45  O   UNL     1       2.882   6.282  68.173  0.00  0.00    +0.000 OA
ATOM     46  H   UNL     1       2.330   5.556  67.827  0.00  0.00    +0.000 HD
ENDBRANCH  36  45
ENDBRANCH  33  34
ENDBRANCH  29  32
ENDBRANCH  27  28
ENDBRANCH  26  27
ENDBRANCH   1  25
TORSDOF 19
ENDMDL
MODEL 3
REMARK VINA RESULT:      -2.8     10.434     24.954
REMARK  Name = Deferoxamine.pdbqt.pdb
REMARK  19 active torsions:
REMARK  status: ('A' for Active; 'I' for Inactive)
REMARK    1  A    between atoms: C_1  and  C_2
REMARK    2  A    between atoms: C_3  and  C_4
REMARK    3  A    between atoms: C_4  and  N_5
REMARK    4  A    between atoms: C_6  and  C_9
REMARK    5  A    between atoms: C_10  and  C_11
REMARK    6  A    between atoms: N_13  and  O_14
REMARK    7  A    between atoms: N_13  and  C_16
REMARK    8  A    between atoms: C_17  and  C_18
REMARK    9  A    between atoms: C_19  and  C_20
REMARK   10  A    between atoms: C_20  and  N_21
REMARK   11  A    between atoms: C_24  and  N_25
REMARK   12  A    between atoms: N_25  and  O_28
REMARK   13  A    between atoms: C_26  and  C_30
REMARK   14  A    between atoms: C_31  and  C_32
REMARK   15  A    between atoms: N_34  and  C_36
REMARK   16  A    between atoms: C_37  and  C_38
REMARK   17  A    between atoms: C_38  and  C_39
REMARK   18  A    between atoms: C_40  and  N_41
REMARK   19  A    between atoms: N_41  and  O_45
REMARK                            x       y       z     vdW  Elec       q    Type
REMARK                         _______ _______ _______ _____ _____    ______ ____
ROOT
ATOM      1  C   UNL     1      18.486   8.326  53.115  0.00  0.00    +0.000 C 
ATOM      2  C   UNL     1      17.796   9.089  53.736  0.00  0.00    +0.000 C 
ENDROOT
BRANCH   2   3
ATOM      3  N   UNL     1      17.021   9.945  54.434  0.00  0.00    +0.000 N 
ATOM      4  C   UNL     1      16.127  10.909  54.003  0.00  0.00    +0.000 C 
ATOM      5  O   UNL     1      16.005  11.282  52.841  0.00  0.00    +0.000 OA
BRANCH   4   6
ATOM      6  C   UNL     1      15.299  11.548  55.005  0.00  0.00    +0.000 C 
ATOM      7  C   UNL     1      14.622  12.073  55.847  0.00  0.00    +0.000 C 
BRANCH   7   8
ATOM      8  C   UNL     1      13.816  12.688  56.873  0.00  0.00    +0.000 C 
ATOM      9  O   UNL     1      13.381  13.816  56.689  0.00  0.00    +0.000 OA
ATOM     10  N   UNL     1      13.607  11.917  57.994  0.00  0.00    +0.000 N 
ATOM     11  H   UNL     1      14.032  10.999  57.991  0.00  0.00    +0.000 HD
BRANCH  10  12
ATOM     12  C   UNL     1      12.905  12.211  59.110  0.00  0.00    +0.000 C 
ATOM     13  C   UNL     1      12.284  12.469  60.104  0.00  0.00    +0.000 C 
BRANCH  13  14
ATOM     14  C   UNL     1      11.497  12.791  61.378  0.00  0.00    +0.000 C 
BRANCH  14  15
ATOM     15  C   UNL     1      10.710  13.122  62.649  0.00  0.00    +0.000 C 
ATOM     16  C   UNL     1      10.090  13.381  63.644  0.00  0.00    +0.000 C 
BRANCH  16  17
ATOM     17  N   UNL     1       9.390  13.669  64.758  0.00  0.00    +0.000 N 
ATOM     18  C   UNL     1       8.204  14.343  64.935  0.00  0.00    +0.000 C 
ATOM     19  O   UNL     1       7.467  14.860  64.115  0.00  0.00    +0.000 OA
ATOM     20  C   UNL     1       7.656  14.515  66.330  0.00  0.00    +0.000 C 
BRANCH  17  21
ATOM     21  O   UNL     1      10.073  13.150  65.889  0.00  0.00    +0.000 OA
ATOM     22  H   UNL     1      10.150  13.929  66.478  0.00  0.00    +0.000 HD
ENDBRANCH  17  21
ENDBRANCH  16  17
ENDBRANCH  14  15
ENDBRANCH  13  14
ENDBRANCH  10  12
ENDBRANCH   7   8
ENDBRANCH   4   6
BRANCH   3  23
ATOM     23  O   UNL     1      16.889   9.481  55.762  0.00  0.00    +0.000 OA
ATOM     24  H   UNL     1      15.948   9.667  55.940  0.00  0.00    +0.000 HD
ENDBRANCH   3  23
ENDBRANCH   2   3
BRANCH   1  25
ATOM     25  C   UNL     1      19.352   7.351  52.314  0.00  0.00    +0.000 C 
ATOM     26  C   UNL     1      20.025   6.592  51.674  0.00  0.00    +0.000 C 
BRANCH  26  27
ATOM     27  C   UNL     1      20.878   5.626  50.844  0.00  0.00    +0.000 C 
BRANCH  27  28
ATOM     28  N   UNL     1      21.630   4.786  50.100  0.00  0.00    +0.000 N 
ATOM     29  C   UNL     1      22.019   3.497  50.375  0.00  0.00    +0.000 C 
ATOM     30  O   UNL     1      21.738   2.865  51.383  0.00  0.00    +0.000 OA
ATOM     31  H   UNL     1      21.937   5.174  49.216  0.00  0.00    +0.000 HD
BRANCH  29  32
ATOM     32  C   UNL     1      22.826   2.867  49.359  0.00  0.00    +0.000 C 
ATOM     33  C   UNL     1      23.487   2.322  48.517  0.00  0.00    +0.000 C 
BRANCH  33  34
ATOM     34  C   UNL     1      24.267   1.650  47.497  0.00  0.00    +0.000 C 
ATOM     35  O   UNL     1      23.889   1.747  46.334  0.00  0.00    +0.000 OA
ATOM     36  N   UNL     1      25.364   0.915  47.915  0.00  0.00    +0.000 N 
BRANCH  36  37
ATOM     37  C   UNL     1      26.342   0.314  47.205  0.00  0.00    +0.000 C 
ATOM     38  C   UNL     1      27.213  -0.219  46.574  0.00  0.00    +0.000 C 
BRANCH  38  39
ATOM     39  C   UNL     1      28.325  -0.892  45.764  0.00  0.00    +0.000 C 
ATOM     40  C   UNL     1      29.197  -1.415  45.127  0.00  0.00    +0.000 C 
BRANCH  40  41
ATOM     41  C   UNL     1      30.311  -2.079  44.313  0.00  0.00    +0.000 C 
BRANCH  41  42
ATOM     42  N   UNL     1      31.369  -2.709  43.541  0.00  0.00    +0.000 NA
ATOM     43  H   UNL     1      31.245  -2.520  42.547  0.00  0.00    +0.000 HD
ATOM     44  H   UNL     1      32.275  -2.314  43.791  0.00  0.00    +0.000 HD
ENDBRANCH  41  42
ENDBRANCH  40  41
ENDBRANCH  38  39
ENDBRANCH  36  37
BRANCH  36  45
ATOM     45  O   UNL     1      25.786   1.076  49.254  0.00  0.00    +0.000 OA
ATOM     46  H   UNL     1      25.005   0.756  49.742  0.00  0.00    +0.000 HD
ENDBRANCH  36  45
ENDBRANCH  33  34
ENDBRANCH  29  32
ENDBRANCH  27  28
ENDBRANCH  26  27
ENDBRANCH   1  25
TORSDOF 19
ENDMDL
MODEL 4
REMARK VINA RESULT:      -2.8     10.804     12.232
REMARK  Name = Deferoxamine.pdbqt.pdb
REMARK  19 active torsions:
REMARK  status: ('A' for Active; 'I' for Inactive)
REMARK    1  A    between atoms: C_1  and  C_2
REMARK    2  A    between atoms: C_3  and  C_4
REMARK    3  A    between atoms: C_4  and  N_5
REMARK    4  A    between atoms: C_6  and  C_9
REMARK    5  A    between atoms: C_10  and  C_11
REMARK    6  A    between atoms: N_13  and  O_14
REMARK    7  A    between atoms: N_13  and  C_16
REMARK    8  A    between atoms: C_17  and  C_18
REMARK    9  A    between atoms: C_19  and  C_20
REMARK   10  A    between atoms: C_20  and  N_21
REMARK   11  A    between atoms: C_24  and  N_25
REMARK   12  A    between atoms: N_25  and  O_28
REMARK   13  A    between atoms: C_26  and  C_30
REMARK   14  A    between atoms: C_31  and  C_32
REMARK   15  A    between atoms: N_34  and  C_36
REMARK   16  A    between atoms: C_37  and  C_38
REMARK   17  A    between atoms: C_38  and  C_39
REMARK   18  A    between atoms: C_40  and  N_41
REMARK   19  A    between atoms: N_41  and  O_45
REMARK                            x       y       z     vdW  Elec       q    Type
REMARK                         _______ _______ _______ _____ _____    ______ ____
ROOT
ATOM      1  C   UNL     1       5.066   7.906  62.597  0.00  0.00    +0.000 C 
ATOM      2  C   UNL     1       5.828   8.588  61.966  0.00  0.00    +0.000 C 
ENDROOT
BRANCH   2   3
ATOM      3  N   UNL     1       6.682   9.356  61.258  0.00  0.00    +0.000 N 
ATOM      4  C   UNL     1       6.724  10.727  61.076  0.00  0.00    +0.000 C 
ATOM      5  O   UNL     1       5.841  11.507  61.416  0.00  0.00    +0.000 OA
BRANCH   4   6
ATOM      6  C   UNL     1       7.884  11.275  60.403  0.00  0.00    +0.000 C 
ATOM      7  C   UNL     1       8.854  11.718  59.849  0.00  0.00    +0.000 C 
BRANCH   7   8
ATOM      8  C   UNL     1      10.031  12.241  59.201  0.00  0.00    +0.000 C 
ATOM      9  O   UNL     1       9.919  12.771  58.105  0.00  0.00    +0.000 OA
ATOM     10  N   UNL     1      11.204  12.087  59.904  0.00  0.00    +0.000 N 
ATOM     11  H   UNL     1      11.129  11.630  60.804  0.00  0.00    +0.000 HD
BRANCH  10  12
ATOM     12  C   UNL     1      12.455  12.467  59.565  0.00  0.00    +0.000 C 
ATOM     13  C   UNL     1      13.566  12.810  59.267  0.00  0.00    +0.000 C 
BRANCH  13  14
ATOM     14  C   UNL     1      14.983  13.255  58.891  0.00  0.00    +0.000 C 
BRANCH  14  15
ATOM     15  C   UNL     1      16.396  13.702  58.507  0.00  0.00    +0.000 C 
ATOM     16  C   UNL     1      17.505  14.054  58.209  0.00  0.00    +0.000 C 
BRANCH  16  17
ATOM     17  N   UNL     1      18.751  14.447  57.881  0.00  0.00    +0.000 N 
ATOM     18  C   UNL     1      19.961  13.802  57.983  0.00  0.00    +0.000 C 
ATOM     19  O   UNL     1      20.222  12.687  58.400  0.00  0.00    +0.000 OA
ATOM     20  C   UNL     1      21.213  14.510  57.530  0.00  0.00    +0.000 C 
BRANCH  17  21
ATOM     21  O   UNL     1      18.703  15.763  57.354  0.00  0.00    +0.000 OA
ATOM     22  H   UNL     1      19.029  15.646  56.437  0.00  0.00    +0.000 HD
ENDBRANCH  17  21
ENDBRANCH  16  17
ENDBRANCH  14  15
ENDBRANCH  13  14
ENDBRANCH  10  12
ENDBRANCH   7   8
ENDBRANCH   4   6
BRANCH   3  23
ATOM     23  O   UNL     1       7.866   8.627  61.005  0.00  0.00    +0.000 OA
ATOM     24  H   UNL     1       7.927   8.072  61.804  0.00  0.00    +0.000 HD
ENDBRANCH   3  23
ENDBRANCH   2   3
BRANCH   1  25
ATOM     25  C   UNL     1       4.086   7.035  63.388  0.00  0.00    +0.000 C 
ATOM     26  C   UNL     1       3.326   6.354  64.019  0.00  0.00    +0.000 C 
BRANCH  26  27
ATOM     27  C   UNL     1       2.363   5.487  64.836  0.00  0.00    +0.000 C 
BRANCH  27  28
ATOM     28  N   UNL     1       1.509   4.737  65.565  0.00  0.00    +0.000 N 
ATOM     29  C   UNL     1       1.498   4.506  66.921  0.00  0.00    +0.000 C 
ATOM     30  O   UNL     1       2.296   4.959  67.729  0.00  0.00    +0.000 OA
ATOM     31  H   UNL     1       0.775   4.296  65.025  0.00  0.00    +0.000 HD
BRANCH  29  32
ATOM     32  C   UNL     1       0.436   3.651  67.391  0.00  0.00    +0.000 C 
ATOM     33  C   UNL     1      -0.445   2.924  67.764  0.00  0.00    +0.000 C 
BRANCH  33  34
ATOM     34  C   UNL     1      -1.497   2.031  68.204  0.00  0.00    +0.000 C 
ATOM     35  O   UNL     1      -2.620   2.202  67.740  0.00  0.00    +0.000 OA
ATOM     36  N   UNL     1      -1.166   1.071  69.146  0.00  0.00    +0.000 N 
BRANCH  36  37
ATOM     37  C   UNL     1      -1.877   0.031  69.628  0.00  0.00    +0.000 C 
ATOM     38  C   UNL     1      -2.506  -0.896  70.058  0.00  0.00    +0.000 C 
BRANCH  38  39
ATOM     39  C   UNL     1      -3.307  -2.085  70.602  0.00  0.00    +0.000 C 
ATOM     40  C   UNL     1      -3.937  -3.014  71.024  0.00  0.00    +0.000 C 
BRANCH  40  41
ATOM     41  C   UNL     1      -4.744  -4.199  71.560  0.00  0.00    +0.000 C 
BRANCH  41  42
ATOM     42  N   UNL     1      -5.510  -5.325  72.069  0.00  0.00    +0.000 NA
ATOM     43  H   UNL     1      -5.928  -5.847  71.301  0.00  0.00    +0.000 HD
ATOM     44  H   UNL     1      -4.899  -5.980  72.555  0.00  0.00    +0.000 HD
ENDBRANCH  41  42
ENDBRANCH  40  41
ENDBRANCH  38  39
ENDBRANCH  36  37
BRANCH  36  45
ATOM     45  O   UNL     1       0.206   0.870  69.418  0.00  0.00    +0.000 OA
ATOM     46  H   UNL     1       0.623   1.398  68.713  0.00  0.00    +0.000 HD
ENDBRANCH  36  45
ENDBRANCH  33  34
ENDBRANCH  29  32
ENDBRANCH  27  28
ENDBRANCH  26  27
ENDBRANCH   1  25
TORSDOF 19
ENDMDL
MODEL 5
REMARK VINA RESULT:      -2.7     11.085     14.944
REMARK  Name = Deferoxamine.pdbqt.pdb
REMARK  19 active torsions:
REMARK  status: ('A' for Active; 'I' for Inactive)
REMARK    1  A    between atoms: C_1  and  C_2
REMARK    2  A    between atoms: C_3  and  C_4
REMARK    3  A    between atoms: C_4  and  N_5
REMARK    4  A    between atoms: C_6  and  C_9
REMARK    5  A    between atoms: C_10  and  C_11
REMARK    6  A    between atoms: N_13  and  O_14
REMARK    7  A    between atoms: N_13  and  C_16
REMARK    8  A    between atoms: C_17  and  C_18
REMARK    9  A    between atoms: C_19  and  C_20
REMARK   10  A    between atoms: C_20  and  N_21
REMARK   11  A    between atoms: C_24  and  N_25
REMARK   12  A    between atoms: N_25  and  O_28
REMARK   13  A    between atoms: C_26  and  C_30
REMARK   14  A    between atoms: C_31  and  C_32
REMARK   15  A    between atoms: N_34  and  C_36
REMARK   16  A    between atoms: C_37  and  C_38
REMARK   17  A    between atoms: C_38  and  C_39
REMARK   18  A    between atoms: C_40  and  N_41
REMARK   19  A    between atoms: N_41  and  O_45
REMARK                            x       y       z     vdW  Elec       q    Type
REMARK                         _______ _______ _______ _____ _____    ______ ____
ROOT
ATOM      1  C   UNL     1      -0.402   4.286  68.326  0.00  0.00    +0.000 C 
ATOM      2  C   UNL     1       0.392   4.588  67.477  0.00  0.00    +0.000 C 
ENDROOT
BRANCH   2   3
ATOM      3  N   UNL     1       1.282   4.928  66.522  0.00  0.00    +0.000 N 
ATOM      4  C   UNL     1       1.096   5.515  65.282  0.00  0.00    +0.000 C 
ATOM      5  O   UNL     1       0.008   5.684  64.743  0.00  0.00    +0.000 OA
BRANCH   4   6
ATOM      6  C   UNL     1       2.279   5.927  64.556  0.00  0.00    +0.000 C 
ATOM      7  C   UNL     1       3.261   6.281  63.960  0.00  0.00    +0.000 C 
BRANCH   7   8
ATOM      8  C   UNL     1       4.433   6.728  63.248  0.00  0.00    +0.000 C 
ATOM      9  O   UNL     1       5.273   5.906  62.913  0.00  0.00    +0.000 OA
ATOM     10  N   UNL     1       4.491   8.083  63.007  0.00  0.00    +0.000 N 
ATOM     11  H   UNL     1       3.710   8.630  63.346  0.00  0.00    +0.000 HD
BRANCH  10  12
ATOM     12  C   UNL     1       5.448   8.794  62.372  0.00  0.00    +0.000 C 
ATOM     13  C   UNL     1       6.298   9.421  61.804  0.00  0.00    +0.000 C 
BRANCH  13  14
ATOM     14  C   UNL     1       7.383  10.216  61.072  0.00  0.00    +0.000 C 
BRANCH  14  15
ATOM     15  C   UNL     1       8.472  11.012  60.347  0.00  0.00    +0.000 C 
ATOM     16  C   UNL     1       9.325  11.636  59.776  0.00  0.00    +0.000 C 
BRANCH  16  17
ATOM     17  N   UNL     1      10.276  12.339  59.131  0.00  0.00    +0.000 N 
ATOM     18  C   UNL     1      11.613  12.513  59.400  0.00  0.00    +0.000 C 
ATOM     19  O   UNL     1      12.295  12.065  60.305  0.00  0.00    +0.000 OA
ATOM     20  C   UNL     1      12.442  13.377  58.483  0.00  0.00    +0.000 C 
BRANCH  17  21
ATOM     21  O   UNL     1       9.703  12.974  57.999  0.00  0.00    +0.000 OA
ATOM     22  H   UNL     1      10.195  12.579  57.250  0.00  0.00    +0.000 HD
ENDBRANCH  17  21
ENDBRANCH  16  17
ENDBRANCH  14  15
ENDBRANCH  13  14
ENDBRANCH  10  12
ENDBRANCH   7   8
ENDBRANCH   4   6
BRANCH   3  23
ATOM     23  O   UNL     1       2.574   5.001  67.091  0.00  0.00    +0.000 OA
ATOM     24  H   UNL     1       2.605   5.931  67.383  0.00  0.00    +0.000 HD
ENDBRANCH   3  23
ENDBRANCH   2   3
BRANCH   1  25
ATOM     25  C   UNL     1      -1.423   3.895  69.398  0.00  0.00    +0.000 C 
ATOM     26  C   UNL     1      -2.213   3.583  70.246  0.00  0.00    +0.000 C 
BRANCH  26  27
ATOM     27  C   UNL     1      -3.211   3.181  71.337  0.00  0.00    +0.000 C 
BRANCH  27  28
ATOM     28  N   UNL     1      -4.088   2.809  72.294  0.00  0.00    +0.000 N 
ATOM     29  C   UNL     1      -4.586   3.542  73.345  0.00  0.00    +0.000 C 
ATOM     30  O   UNL     1      -4.307   4.704  73.601  0.00  0.00    +0.000 OA
ATOM     31  H   UNL     1      -4.420   1.856  72.208  0.00  0.00    +0.000 HD
BRANCH  29  32
ATOM     32  C   UNL     1      -5.518   2.844  74.196  0.00  0.00    +0.000 C 
ATOM     33  C   UNL     1      -6.294   2.280  74.920  0.00  0.00    +0.000 C 
BRANCH  33  34
ATOM     34  C   UNL     1      -7.236   1.621  75.801  0.00  0.00    +0.000 C 
ATOM     35  O   UNL     1      -7.194   0.397  75.866  0.00  0.00    +0.000 OA
ATOM     36  N   UNL     1      -8.142   2.419  76.478  0.00  0.00    +0.000 N 
BRANCH  36  37
ATOM     37  C   UNL     1      -9.025   2.117  77.453  0.00  0.00    +0.000 C 
ATOM     38  C   UNL     1      -9.811   1.852  78.320  0.00  0.00    +0.000 C 
BRANCH  38  39
ATOM     39  C   UNL     1     -10.812   1.519  79.430  0.00  0.00    +0.000 C 
ATOM     40  C   UNL     1     -11.601   1.257  80.296  0.00  0.00    +0.000 C 
BRANCH  40  41
ATOM     41  C   UNL     1     -12.610   0.923  81.398  0.00  0.00    +0.000 C 
BRANCH  41  42
ATOM     42  N   UNL     1     -13.568   0.605  82.444  0.00  0.00    +0.000 NA
ATOM     43  H   UNL     1     -13.084   0.373  83.310  0.00  0.00    +0.000 HD
ATOM     44  H   UNL     1     -14.148   1.416  82.654  0.00  0.00    +0.000 HD
ENDBRANCH  41  42
ENDBRANCH  40  41
ENDBRANCH  38  39
ENDBRANCH  36  37
BRANCH  36  45
ATOM     45  O   UNL     1      -7.924   3.816  76.457  0.00  0.00    +0.000 OA
ATOM     46  H   UNL     1      -8.124   4.029  75.527  0.00  0.00    +0.000 HD
ENDBRANCH  36  45
ENDBRANCH  33  34
ENDBRANCH  29  32
ENDBRANCH  27  28
ENDBRANCH  26  27
ENDBRANCH   1  25
TORSDOF 19
ENDMDL
MODEL 6
REMARK VINA RESULT:      -2.7     10.357     25.053
REMARK  Name = Deferoxamine.pdbqt.pdb
REMARK  19 active torsions:
REMARK  status: ('A' for Active; 'I' for Inactive)
REMARK    1  A    between atoms: C_1  and  C_2
REMARK    2  A    between atoms: C_3  and  C_4
REMARK    3  A    between atoms: C_4  and  N_5
REMARK    4  A    between atoms: C_6  and  C_9
REMARK    5  A    between atoms: C_10  and  C_11
REMARK    6  A    between atoms: N_13  and  O_14
REMARK    7  A    between atoms: N_13  and  C_16
REMARK    8  A    between atoms: C_17  and  C_18
REMARK    9  A    between atoms: C_19  and  C_20
REMARK   10  A    between atoms: C_20  and  N_21
REMARK   11  A    between atoms: C_24  and  N_25
REMARK   12  A    between atoms: N_25  and  O_28
REMARK   13  A    between atoms: C_26  and  C_30
REMARK   14  A    between atoms: C_31  and  C_32
REMARK   15  A    between atoms: N_34  and  C_36
REMARK   16  A    between atoms: C_37  and  C_38
REMARK   17  A    between atoms: C_38  and  C_39
REMARK   18  A    between atoms: C_40  and  N_41
REMARK   19  A    between atoms: N_41  and  O_45
REMARK                            x       y       z     vdW  Elec       q    Type
REMARK                         _______ _______ _______ _____ _____    ______ ____
ROOT
ATOM      1  C   UNL     1      18.245   8.674  53.215  0.00  0.00    +0.000 C 
ATOM      2  C   UNL     1      17.565   9.416  53.873  0.00  0.00    +0.000 C 
ENDROOT
BRANCH   2   3
ATOM      3  N   UNL     1      16.801  10.247  54.611  0.00  0.00    +0.000 N 
ATOM      4  C   UNL     1      15.805  11.131  54.234  0.00  0.00    +0.000 C 
ATOM      5  O   UNL     1      15.547  11.445  53.077  0.00  0.00    +0.000 OA
BRANCH   4   6
ATOM      6  C   UNL     1      15.033  11.755  55.288  0.00  0.00    +0.000 C 
ATOM      7  C   UNL     1      14.398  12.264  56.172  0.00  0.00    +0.000 C 
BRANCH   7   8
ATOM      8  C   UNL     1      13.631  12.853  57.242  0.00  0.00    +0.000 C 
ATOM      9  O   UNL     1      13.313  14.031  57.166  0.00  0.00    +0.000 OA
ATOM     10  N   UNL     1      13.322  12.001  58.279  0.00  0.00    +0.000 N 
ATOM     11  H   UNL     1      13.655  11.050  58.191  0.00  0.00    +0.000 HD
BRANCH  10  12
ATOM     12  C   UNL     1      12.625  12.254  59.409  0.00  0.00    +0.000 C 
ATOM     13  C   UNL     1      12.010  12.483  60.413  0.00  0.00    +0.000 C 
BRANCH  13  14
ATOM     14  C   UNL     1      11.229  12.784  61.696  0.00  0.00    +0.000 C 
BRANCH  14  15
ATOM     15  C   UNL     1      10.441  13.081  62.975  0.00  0.00    +0.000 C 
ATOM     16  C   UNL     1       9.823  13.310  63.978  0.00  0.00    +0.000 C 
BRANCH  16  17
ATOM     17  N   UNL     1       9.133  13.563  65.107  0.00  0.00    +0.000 N 
ATOM     18  C   UNL     1       9.391  14.414  66.156  0.00  0.00    +0.000 C 
ATOM     19  O   UNL     1      10.325  15.175  66.336  0.00  0.00    +0.000 OA
ATOM     20  C   UNL     1       8.418  14.481  67.307  0.00  0.00    +0.000 C 
BRANCH  17  21
ATOM     21  O   UNL     1       7.959  12.766  65.128  0.00  0.00    +0.000 OA
ATOM     22  H   UNL     1       8.202  11.999  64.568  0.00  0.00    +0.000 HD
ENDBRANCH  17  21
ENDBRANCH  16  17
ENDBRANCH  14  15
ENDBRANCH  13  14
ENDBRANCH  10  12
ENDBRANCH   7   8
ENDBRANCH   4   6
BRANCH   3  23
ATOM     23  O   UNL     1      16.828   9.833  55.962  0.00  0.00    +0.000 OA
ATOM     24  H   UNL     1      17.431  10.492  56.355  0.00  0.00    +0.000 HD
ENDBRANCH   3  23
ENDBRANCH   2   3
BRANCH   1  25
ATOM     25  C   UNL     1      19.099   7.728  52.367  0.00  0.00    +0.000 C 
ATOM     26  C   UNL     1      19.762   6.992  51.691  0.00  0.00    +0.000 C 
BRANCH  26  27
ATOM     27  C   UNL     1      20.603   6.057  50.815  0.00  0.00    +0.000 C 
BRANCH  27  28
ATOM     28  N   UNL     1      21.350   5.248  50.034  0.00  0.00    +0.000 N 
ATOM     29  C   UNL     1      20.977   4.108  49.361  0.00  0.00    +0.000 C 
ATOM     30  O   UNL     1      19.859   3.613  49.358  0.00  0.00    +0.000 OA
ATOM     31  H   UNL     1      22.314   5.538  49.934  0.00  0.00    +0.000 HD
BRANCH  29  32
ATOM     32  C   UNL     1      22.026   3.470  48.603  0.00  0.00    +0.000 C 
ATOM     33  C   UNL     1      22.889   2.947  47.951  0.00  0.00    +0.000 C 
BRANCH  33  34
ATOM     34  C   UNL     1      23.927   2.332  47.150  0.00  0.00    +0.000 C 
ATOM     35  O   UNL     1      24.630   1.481  47.685  0.00  0.00    +0.000 OA
ATOM     36  N   UNL     1      24.076   2.778  45.847  0.00  0.00    +0.000 N 
BRANCH  36  37
ATOM     37  C   UNL     1      24.839   2.309  44.839  0.00  0.00    +0.000 C 
ATOM     38  C   UNL     1      25.516   1.890  43.941  0.00  0.00    +0.000 C 
BRANCH  38  39
ATOM     39  C   UNL     1      26.378   1.349  42.796  0.00  0.00    +0.000 C 
ATOM     40  C   UNL     1      27.051   0.919  41.900  0.00  0.00    +0.000 C 
BRANCH  40  41
ATOM     41  C   UNL     1      27.908   0.368  40.758  0.00  0.00    +0.000 C 
BRANCH  41  42
ATOM     42  N   UNL     1      28.721  -0.155  39.672  0.00  0.00    +0.000 NA
ATOM     43  H   UNL     1      28.165  -0.761  39.071  0.00  0.00    +0.000 HD
ATOM     44  H   UNL     1      29.052   0.604  39.078  0.00  0.00    +0.000 HD
ENDBRANCH  41  42
ENDBRANCH  40  41
ENDBRANCH  38  39
ENDBRANCH  36  37
BRANCH  36  45
ATOM     45  O   UNL     1      23.058   3.606  45.322  0.00  0.00    +0.000 OA
ATOM     46  H   UNL     1      23.113   4.379  45.913  0.00  0.00    +0.000 HD
ENDBRANCH  36  45
ENDBRANCH  33  34
ENDBRANCH  29  32
ENDBRANCH  27  28
ENDBRANCH  26  27
ENDBRANCH   1  25
TORSDOF 19
ENDMDL
MODEL 7
REMARK VINA RESULT:      -2.6     13.989     14.773
REMARK  Name = Deferoxamine.pdbqt.pdb
REMARK  19 active torsions:
REMARK  status: ('A' for Active; 'I' for Inactive)
REMARK    1  A    between atoms: C_1  and  C_2
REMARK    2  A    between atoms: C_3  and  C_4
REMARK    3  A    between atoms: C_4  and  N_5
REMARK    4  A    between atoms: C_6  and  C_9
REMARK    5  A    between atoms: C_10  and  C_11
REMARK    6  A    between atoms: N_13  and  O_14
REMARK    7  A    between atoms: N_13  and  C_16
REMARK    8  A    between atoms: C_17  and  C_18
REMARK    9  A    between atoms: C_19  and  C_20
REMARK   10  A    between atoms: C_20  and  N_21
REMARK   11  A    between atoms: C_24  and  N_25
REMARK   12  A    between atoms: N_25  and  O_28
REMARK   13  A    between atoms: C_26  and  C_30
REMARK   14  A    between atoms: C_31  and  C_32
REMARK   15  A    between atoms: N_34  and  C_36
REMARK   16  A    between atoms: C_37  and  C_38
REMARK   17  A    between atoms: C_38  and  C_39
REMARK   18  A    between atoms: C_40  and  N_41
REMARK   19  A    between atoms: N_41  and  O_45
REMARK                            x       y       z     vdW  Elec       q    Type
REMARK                         _______ _______ _______ _____ _____    ______ ____
ROOT
ATOM      1  C   UNL     1      15.141   3.479  70.303  0.00  0.00    +0.000 C 
ATOM      2  C   UNL     1      15.821   3.868  69.392  0.00  0.00    +0.000 C 
ENDROOT
BRANCH   2   3
ATOM      3  N   UNL     1      16.584   4.306  68.369  0.00  0.00    +0.000 N 
ATOM      4  C   UNL     1      17.877   3.976  68.002  0.00  0.00    +0.000 C 
ATOM      5  O   UNL     1      18.651   3.312  68.683  0.00  0.00    +0.000 OA
BRANCH   4   6
ATOM      6  C   UNL     1      18.361   4.483  66.734  0.00  0.00    +0.000 C 
ATOM      7  C   UNL     1      18.749   4.910  65.681  0.00  0.00    +0.000 C 
BRANCH   7   8
ATOM      8  C   UNL     1      19.194   5.421  64.407  0.00  0.00    +0.000 C 
ATOM      9  O   UNL     1      19.539   4.632  63.539  0.00  0.00    +0.000 OA
ATOM     10  N   UNL     1      19.184   6.792  64.291  0.00  0.00    +0.000 N 
ATOM     11  H   UNL     1      18.865   7.308  65.101  0.00  0.00    +0.000 HD
BRANCH  10  12
ATOM     12  C   UNL     1      19.540   7.559  63.237  0.00  0.00    +0.000 C 
ATOM     13  C   UNL     1      19.859   8.237  62.299  0.00  0.00    +0.000 C 
BRANCH  13  14
ATOM     14  C   UNL     1      20.272   9.094  61.099  0.00  0.00    +0.000 C 
BRANCH  14  15
ATOM     15  C   UNL     1      20.677   9.952  59.897  0.00  0.00    +0.000 C 
ATOM     16  C   UNL     1      20.993  10.622  58.953  0.00  0.00    +0.000 C 
BRANCH  16  17
ATOM     17  N   UNL     1      21.343  11.371  57.889  0.00  0.00    +0.000 N 
ATOM     18  C   UNL     1      22.572  11.641  57.336  0.00  0.00    +0.000 C 
ATOM     19  O   UNL     1      23.682  11.264  57.669  0.00  0.00    +0.000 OA
ATOM     20  C   UNL     1      22.654  12.536  56.124  0.00  0.00    +0.000 C 
BRANCH  17  21
ATOM     21  O   UNL     1      20.178  11.938  57.311  0.00  0.00    +0.000 OA
ATOM     22  H   UNL     1      19.886  12.584  57.988  0.00  0.00    +0.000 HD
ENDBRANCH  17  21
ENDBRANCH  16  17
ENDBRANCH  14  15
ENDBRANCH  13  14
ENDBRANCH  10  12
ENDBRANCH   7   8
ENDBRANCH   4   6
BRANCH   3  23
ATOM     23  O   UNL     1      15.756   4.892  67.385  0.00  0.00    +0.000 OA
ATOM     24  H   UNL     1      15.077   5.325  67.936  0.00  0.00    +0.000 HD
ENDBRANCH   3  23
ENDBRANCH   2   3
BRANCH   1  25
ATOM     25  C   UNL     1      14.264   2.975  71.452  0.00  0.00    +0.000 C 
ATOM     26  C   UNL     1      13.577   2.593  72.358  0.00  0.00    +0.000 C 
BRANCH  26  27
ATOM     27  C   UNL     1      12.698   2.119  73.520  0.00  0.00    +0.000 C 
BRANCH  27  28
ATOM     28  N   UNL     1      11.931   1.684  74.544  0.00  0.00    +0.000 N 
ATOM     29  C   UNL     1      11.236   2.416  75.477  0.00  0.00    +0.000 C 
ATOM     30  O   UNL     1      11.193   3.636  75.541  0.00  0.00    +0.000 OA
ATOM     31  H   UNL     1      11.863   0.677  74.616  0.00  0.00    +0.000 HD
BRANCH  29  32
ATOM     32  C   UNL     1      10.504   1.640  76.448  0.00  0.00    +0.000 C 
ATOM     33  C   UNL     1       9.889   1.014  77.268  0.00  0.00    +0.000 C 
BRANCH  33  34
ATOM     34  C   UNL     1       9.135   0.277  78.261  0.00  0.00    +0.000 C 
ATOM     35  O   UNL     1       9.643  -0.740  78.723  0.00  0.00    +0.000 OA
ATOM     36  N   UNL     1       7.877   0.753  78.590  0.00  0.00    +0.000 N 
BRANCH  36  37
ATOM     37  C   UNL     1       7.018   0.374  79.559  0.00  0.00    +0.000 C 
ATOM     38  C   UNL     1       6.252   0.039  80.420  0.00  0.00    +0.000 C 
BRANCH  38  39
ATOM     39  C   UNL     1       5.272  -0.381  81.520  0.00  0.00    +0.000 C 
ATOM     40  C   UNL     1       4.500  -0.709  82.378  0.00  0.00    +0.000 C 
BRANCH  40  41
ATOM     41  C   UNL     1       3.512  -1.128  83.470  0.00  0.00    +0.000 C 
BRANCH  41  42
ATOM     42  N   UNL     1       2.574  -1.525  84.507  0.00  0.00    +0.000 NA
ATOM     43  H   UNL     1       1.669  -1.754  84.099  0.00  0.00    +0.000 HD
ATOM     44  H   UNL     1       2.896  -2.373  84.971  0.00  0.00    +0.000 HD
ENDBRANCH  41  42
ENDBRANCH  40  41
ENDBRANCH  38  39
ENDBRANCH  36  37
BRANCH  36  45
ATOM     45  O   UNL     1       7.527   2.042  78.129  0.00  0.00    +0.000 OA
ATOM     46  H   UNL     1       7.882   2.026  77.221  0.00  0.00    +0.000 HD
ENDBRANCH  36  45
ENDBRANCH  33  34
ENDBRANCH  29  32
ENDBRANCH  27  28
ENDBRANCH  26  27
ENDBRANCH   1  25
TORSDOF 19
ENDMDL
MODEL 8
REMARK VINA RESULT:      -2.6     11.168     20.937
REMARK  Name = Deferoxamine.pdbqt.pdb
REMARK  19 active torsions:
REMARK  status: ('A' for Active; 'I' for Inactive)
REMARK    1  A    between atoms: C_1  and  C_2
REMARK    2  A    between atoms: C_3  and  C_4
REMARK    3  A    between atoms: C_4  and  N_5
REMARK    4  A    between atoms: C_6  and  C_9
REMARK    5  A    between atoms: C_10  and  C_11
REMARK    6  A    between atoms: N_13  and  O_14
REMARK    7  A    between atoms: N_13  and  C_16
REMARK    8  A    between atoms: C_17  and  C_18
REMARK    9  A    between atoms: C_19  and  C_20
REMARK   10  A    between atoms: C_20  and  N_21
REMARK   11  A    between atoms: C_24  and  N_25
REMARK   12  A    between atoms: N_25  and  O_28
REMARK   13  A    between atoms: C_26  and  C_30
REMARK   14  A    between atoms: C_31  and  C_32
REMARK   15  A    between atoms: N_34  and  C_36
REMARK   16  A    between atoms: C_37  and  C_38
REMARK   17  A    between atoms: C_38  and  C_39
REMARK   18  A    between atoms: C_40  and  N_41
REMARK   19  A    between atoms: N_41  and  O_45
REMARK                            x       y       z     vdW  Elec       q    Type
REMARK                         _______ _______ _______ _____ _____    ______ ____
ROOT
ATOM      1  C   UNL     1       7.895  11.281  61.135  0.00  0.00    +0.000 C 
ATOM      2  C   UNL     1       6.942  10.923  61.773  0.00  0.00    +0.000 C 
ENDROOT
BRANCH   2   3
ATOM      3  N   UNL     1       5.871  10.520  62.488  0.00  0.00    +0.000 N 
ATOM      4  C   UNL     1       4.517  10.620  62.219  0.00  0.00    +0.000 C 
ATOM      5  O   UNL     1       4.030  11.278  61.306  0.00  0.00    +0.000 OA
BRANCH   4   6
ATOM      6  C   UNL     1       3.608   9.921  63.103  0.00  0.00    +0.000 C 
ATOM      7  C   UNL     1       2.859   9.348  63.848  0.00  0.00    +0.000 C 
BRANCH   7   8
ATOM      8  C   UNL     1       1.978   8.660  64.759  0.00  0.00    +0.000 C 
ATOM      9  O   UNL     1       0.976   9.233  65.162  0.00  0.00    +0.000 OA
ATOM     10  N   UNL     1       2.364   7.381  65.095  0.00  0.00    +0.000 N 
ATOM     11  H   UNL     1       3.220   7.047  64.671  0.00  0.00    +0.000 HD
BRANCH  10  12
ATOM     12  C   UNL     1       1.755   6.497  65.914  0.00  0.00    +0.000 C 
ATOM     13  C   UNL     1       1.217   5.706  66.640  0.00  0.00    +0.000 C 
BRANCH  13  14
ATOM     14  C   UNL     1       0.536   4.690  67.562  0.00  0.00    +0.000 C 
BRANCH  14  15
ATOM     15  C   UNL     1      -0.137   3.672  68.486  0.00  0.00    +0.000 C 
ATOM     16  C   UNL     1      -0.664   2.876  69.214  0.00  0.00    +0.000 C 
BRANCH  16  17
ATOM     17  N   UNL     1      -1.259   1.988  70.033  0.00  0.00    +0.000 N 
ATOM     18  C   UNL     1      -1.981   0.849  69.765  0.00  0.00    +0.000 C 
ATOM     19  O   UNL     1      -2.271   0.338  68.698  0.00  0.00    +0.000 OA
ATOM     20  C   UNL     1      -2.538   0.043  70.912  0.00  0.00    +0.000 C 
BRANCH  17  21
ATOM     21  O   UNL     1      -1.053   2.382  71.381  0.00  0.00    +0.000 OA
ATOM     22  H   UNL     1      -0.472   1.677  71.732  0.00  0.00    +0.000 HD
ENDBRANCH  17  21
ENDBRANCH  16  17
ENDBRANCH  14  15
ENDBRANCH  13  14
ENDBRANCH  10  12
ENDBRANCH   7   8
ENDBRANCH   4   6
BRANCH   3  23
ATOM     23  O   UNL     1       6.278   9.557  63.439  0.00  0.00    +0.000 OA
ATOM     24  H   UNL     1       6.499  10.121  64.203  0.00  0.00    +0.000 HD
ENDBRANCH   3  23
ENDBRANCH   2   3
BRANCH   1  25
ATOM     25  C   UNL     1       9.100  11.748  60.315  0.00  0.00    +0.000 C 
ATOM     26  C   UNL     1      10.047  12.124  59.682  0.00  0.00    +0.000 C 
BRANCH  26  27
ATOM     27  C   UNL     1      11.260  12.612  58.883  0.00  0.00    +0.000 C 
BRANCH  27  28
ATOM     28  N   UNL     1      12.325  13.061  58.183  0.00  0.00    +0.000 N 
ATOM     29  C   UNL     1      13.655  12.746  58.333  0.00  0.00    +0.000 C 
ATOM     30  O   UNL     1      14.118  11.975  59.161  0.00  0.00    +0.000 OA
ATOM     31  H   UNL     1      12.094  13.713  57.445  0.00  0.00    +0.000 HD
BRANCH  29  32
ATOM     32  C   UNL     1      14.551  13.402  57.412  0.00  0.00    +0.000 C 
ATOM     33  C   UNL     1      15.295  13.969  56.659  0.00  0.00    +0.000 C 
BRANCH  33  34
ATOM     34  C   UNL     1      16.201  14.664  55.768  0.00  0.00    +0.000 C 
ATOM     35  O   UNL     1      16.990  15.461  56.266  0.00  0.00    +0.000 OA
ATOM     36  N   UNL     1      16.085  14.406  54.412  0.00  0.00    +0.000 N 
BRANCH  36  37
ATOM     37  C   UNL     1      16.863  14.782  53.375  0.00  0.00    +0.000 C 
ATOM     38  C   UNL     1      17.552  15.119  52.453  0.00  0.00    +0.000 C 
BRANCH  38  39
ATOM     39  C   UNL     1      18.427  15.550  51.271  0.00  0.00    +0.000 C 
ATOM     40  C   UNL     1      19.109  15.892  50.345  0.00  0.00    +0.000 C 
BRANCH  40  41
ATOM     41  C   UNL     1      19.977  16.332  49.163  0.00  0.00    +0.000 C 
BRANCH  41  42
ATOM     42  N   UNL     1      20.802  16.750  48.041  0.00  0.00    +0.000 NA
ATOM     43  H   UNL     1      20.623  17.726  47.813  0.00  0.00    +0.000 HD
ATOM     44  H   UNL     1      21.789  16.693  48.285  0.00  0.00    +0.000 HD
ENDBRANCH  41  42
ENDBRANCH  40  41
ENDBRANCH  38  39
ENDBRANCH  36  37
BRANCH  36  45
ATOM     45  O   UNL     1      15.277  13.314  54.022  0.00  0.00    +0.000 OA
ATOM     46  H   UNL     1      14.980  12.976  54.887  0.00  0.00    +0.000 HD
ENDBRANCH  36  45
ENDBRANCH  33  34
ENDBRANCH  29  32
ENDBRANCH  27  28
ENDBRANCH  26  27
ENDBRANCH   1  25
TORSDOF 19
ENDMDL
MODEL 9
REMARK VINA RESULT:      -2.6     11.255     19.435
REMARK  Name = Deferoxamine.pdbqt.pdb
REMARK  19 active torsions:
REMARK  status: ('A' for Active; 'I' for Inactive)
REMARK    1  A    between atoms: C_1  and  C_2
REMARK    2  A    between atoms: C_3  and  C_4
REMARK    3  A    between atoms: C_4  and  N_5
REMARK    4  A    between atoms: C_6  and  C_9
REMARK    5  A    between atoms: C_10  and  C_11
REMARK    6  A    between atoms: N_13  and  O_14
REMARK    7  A    between atoms: N_13  and  C_16
REMARK    8  A    between atoms: C_17  and  C_18
REMARK    9  A    between atoms: C_19  and  C_20
REMARK   10  A    between atoms: C_20  and  N_21
REMARK   11  A    between atoms: C_24  and  N_25
REMARK   12  A    between atoms: N_25  and  O_28
REMARK   13  A    between atoms: C_26  and  C_30
REMARK   14  A    between atoms: C_31  and  C_32
REMARK   15  A    between atoms: N_34  and  C_36
REMARK   16  A    between atoms: C_37  and  C_38
REMARK   17  A    between atoms: C_38  and  C_39
REMARK   18  A    between atoms: C_40  and  N_41
REMARK   19  A    between atoms: N_41  and  O_45
REMARK                            x       y       z     vdW  Elec       q    Type
REMARK                         _______ _______ _______ _____ _____    ______ ____
ROOT
ATOM      1  C   UNL     1       6.481   9.415  61.572  0.00  0.00    +0.000 C 
ATOM      2  C   UNL     1       5.747   8.713  62.213  0.00  0.00    +0.000 C 
ENDROOT
BRANCH   2   3
ATOM      3  N   UNL     1       4.923   7.923  62.932  0.00  0.00    +0.000 N 
ATOM      4  C   UNL     1       3.579   8.060  63.236  0.00  0.00    +0.000 C 
ATOM      5  O   UNL     1       2.913   9.068  63.027  0.00  0.00    +0.000 OA
BRANCH   4   6
ATOM      6  C   UNL     1       2.923   6.940  63.879  0.00  0.00    +0.000 C 
ATOM      7  C   UNL     1       2.388   6.013  64.424  0.00  0.00    +0.000 C 
BRANCH   7   8
ATOM      8  C   UNL     1       1.765   4.895  65.089  0.00  0.00    +0.000 C 
ATOM      9  O   UNL     1       0.578   4.677  64.896  0.00  0.00    +0.000 OA
ATOM     10  N   UNL     1       2.597   4.159  65.902  0.00  0.00    +0.000 N 
ATOM     11  H   UNL     1       3.560   4.467  65.951  0.00  0.00    +0.000 HD
BRANCH  10  12
ATOM     12  C   UNL     1       2.312   3.069  66.647  0.00  0.00    +0.000 C 
ATOM     13  C   UNL     1       2.058   2.098  67.305  0.00  0.00    +0.000 C 
BRANCH  13  14
ATOM     14  C   UNL     1       1.734   0.853  68.136  0.00  0.00    +0.000 C 
BRANCH  14  15
ATOM     15  C   UNL     1       1.418  -0.394  68.967  0.00  0.00    +0.000 C 
ATOM     16  C   UNL     1       1.172  -1.371  69.621  0.00  0.00    +0.000 C 
BRANCH  16  17
ATOM     17  N   UNL     1       0.897  -2.463  70.360  0.00  0.00    +0.000 N 
ATOM     18  C   UNL     1       1.287  -2.820  71.629  0.00  0.00    +0.000 C 
ATOM     19  O   UNL     1       1.992  -2.229  72.428  0.00  0.00    +0.000 OA
ATOM     20  C   UNL     1       0.815  -4.133  72.202  0.00  0.00    +0.000 C 
BRANCH  17  21
ATOM     21  O   UNL     1       0.061  -3.334  69.615  0.00  0.00    +0.000 OA
ATOM     22  H   UNL     1      -0.784  -3.307  70.110  0.00  0.00    +0.000 HD
ENDBRANCH  17  21
ENDBRANCH  16  17
ENDBRANCH  14  15
ENDBRANCH  13  14
ENDBRANCH  10  12
ENDBRANCH   7   8
ENDBRANCH   4   6
BRANCH   3  23
ATOM     23  O   UNL     1       5.487   6.632  63.040  0.00  0.00    +0.000 OA
ATOM     24  H   UNL     1       6.022   6.586  62.225  0.00  0.00    +0.000 HD
ENDBRANCH   3  23
ENDBRANCH   2   3
BRANCH   1  25
ATOM     25  C   UNL     1       7.407  10.308  60.742  0.00  0.00    +0.000 C 
ATOM     26  C   UNL     1       8.144  11.004  60.100  0.00  0.00    +0.000 C 
BRANCH  26  27
ATOM     27  C   UNL     1       9.095  11.889  59.288  0.00  0.00    +0.000 C 
BRANCH  27  28
ATOM     28  N   UNL     1       9.944  12.671  58.586  0.00  0.00    +0.000 N 
ATOM     29  C   UNL     1      11.309  12.791  58.704  0.00  0.00    +0.000 C 
ATOM     30  O   UNL     1      12.014  12.184  59.497  0.00  0.00    +0.000 OA
ATOM     31  H   UNL     1       9.499  13.237  57.875  0.00  0.00    +0.000 HD
BRANCH  29  32
ATOM     32  C   UNL     1      11.926  13.723  57.792  0.00  0.00    +0.000 C 
ATOM     33  C   UNL     1      12.418  14.508  57.027  0.00  0.00    +0.000 C 
BRANCH  33  34
ATOM     34  C   UNL     1      12.995  15.468  56.109  0.00  0.00    +0.000 C 
ATOM     35  O   UNL     1      12.467  16.573  56.035  0.00  0.00    +0.000 OA
ATOM     36  N   UNL     1      14.079  15.056  55.352  0.00  0.00    +0.000 N 
BRANCH  36  37
ATOM     37  C   UNL     1      14.899  15.752  54.538  0.00  0.00    +0.000 C 
ATOM     38  C   UNL     1      15.631  16.370  53.814  0.00  0.00    +0.000 C 
BRANCH  38  39
ATOM     39  C   UNL     1      16.570  17.158  52.895  0.00  0.00    +0.000 C 
ATOM     40  C   UNL     1      17.305  17.771  52.172  0.00  0.00    +0.000 C 
BRANCH  40  41
ATOM     41  C   UNL     1      18.244  18.550  51.247  0.00  0.00    +0.000 C 
BRANCH  41  42
ATOM     42  N   UNL     1      19.135  19.291  50.369  0.00  0.00    +0.000 NA
ATOM     43  H   UNL     1      20.089  19.262  50.724  0.00  0.00    +0.000 HD
ATOM     44  H   UNL     1      19.165  18.858  49.447  0.00  0.00    +0.000 HD
ENDBRANCH  41  42
ENDBRANCH  40  41
ENDBRANCH  38  39
ENDBRANCH  36  37
BRANCH  36  45
ATOM     45  O   UNL     1      14.694  13.834  55.705  0.00  0.00    +0.000 OA
ATOM     46  H   UNL     1      13.921  13.294  55.957  0.00  0.00    +0.000 HD
ENDBRANCH  36  45
ENDBRANCH  33  34
ENDBRANCH  29  32
ENDBRANCH  27  28
ENDBRANCH  26  27
ENDBRANCH   1  25
TORSDOF 19
ENDMDL
