MODEL 1
REMARK VINA RESULT:      -4.4      0.000      0.000
REMARK  Name = 
REMARK  25 active torsions:
REMARK  status: ('A' for Active; 'I' for Inactive)
REMARK    1  A    between atoms: O_2  and  C_17
REMARK    2  A    between atoms: O_2  and  C_36
REMARK    3  A    between atoms: O_3  and  C_20
REMARK    4  A    between atoms: O_3  and  C_37
REMARK    5  A    between atoms: O_4  and  C_21
REMARK    6  A    between atoms: O_5  and  C_22
REMARK    7  A    between atoms: O_7  and  C_30
REMARK    8  A    between atoms: O_8  and  C_31
REMARK    9  A    between atoms: O_8  and  C_39
REMARK   10  A    between atoms: O_12  and  C_41
REMARK   11  A    between atoms: O_13  and  C_51
REMARK   12  A    between atoms: O_13  and  C_55
REMARK   13  A    between atoms: N_15  and  C_44
REMARK   14  A    between atoms: C_18  and  C_29
REMARK   15  A    between atoms: C_24  and  C_33
REMARK   16  A    between atoms: C_24  and  C_34
REMARK   17  A    between atoms: C_32  and  C_35
REMARK   18  A    between atoms: C_36  and  C_38
REMARK   19  A    between atoms: C_37  and  C_40
REMARK   20  A    between atoms: C_39  and  C_41
REMARK   21  A    between atoms: C_41  and  C_44
REMARK   22  A    between atoms: C_44  and  C_48
REMARK   23  A    between atoms: C_55  and  C_56
REMARK   24  A    between atoms: C_55  and  C_57
REMARK   25  A    between atoms: C_55  and  C_58
REMARK                            x       y       z     vdW  Elec       q    Type
REMARK                         _______ _______ _______ _____ _____    ______ ____
ROOT
ATOM      1  O   UNL     1      -2.118   4.994  66.652  0.00  0.00    +0.000 OA
ATOM      2  O   UNL     1      -1.357   5.458  59.991  0.00  0.00    +0.000 OA
ATOM      3  C   UNL     1       0.186   5.102  64.095  0.00  0.00    +0.000 C 
ATOM      4  C   UNL     1      -0.522   5.637  65.375  0.00  0.00    +0.000 C 
ATOM      5  C   UNL     1      -0.802   5.742  62.607  0.00  0.00    +0.000 C 
ATOM      6  C   UNL     1      -1.853   4.790  65.237  0.00  0.00    +0.000 C 
ATOM      7  C   UNL     1       2.040   5.264  64.199  0.00  0.00    +0.000 C 
ATOM      8  C   UNL     1       3.613   4.954  63.189  0.00  0.00    +0.000 C 
ATOM      9  C   UNL     1      -2.239   5.104  62.807  0.00  0.00    +0.000 C 
ATOM     10  C   UNL     1      -2.862   5.288  64.225  0.00  0.00    +0.000 C 
ATOM     11  C   UNL     1       3.764   4.584  61.460  0.00  0.00    +0.000 C 
ATOM     12  C   UNL     1      -0.645   5.004  66.819  0.00  0.00    +0.000 C 
ATOM     13  C   UNL     1      -0.391   5.562  60.779  0.00  0.00    +0.000 C 
ATOM     14  C   UNL     1       4.434   6.324  63.256  0.00  0.00    +0.000 C 
ATOM     15  C   UNL     1       3.000   5.664  60.557  0.00  0.00    +0.000 C 
ATOM     16  C   UNL     1      -1.081   7.301  62.694  0.00  0.00    +0.000 C 
ATOM     17  C   UNL     1       1.332   5.519  59.937  0.00  0.00    +0.000 C 
ATOM     18  C   UNL     1       4.284   7.345  62.038  0.00  0.00    +0.000 C 
ATOM     19  C   UNL     1       3.516   6.926  60.733  0.00  0.00    +0.000 C 
ATOM     20  C   UNL     1       5.327   4.690  61.089  0.00  0.00    +0.000 C 
ATOM     21  C   UNL     1       3.611   3.107  60.978  0.00  0.00    +0.000 C 
ATOM     22  C   UNL     1       3.158   8.080  59.830  0.00  0.00    +0.000 C 
ENDROOT
BRANCH  17  23
ATOM     23  O   UNL     1       1.413   4.541  58.899  0.00  0.00    +0.000 OA
ATOM     24  H   UNL     1       0.487   4.350  58.660  0.00  0.00    +0.000 HD
ENDBRANCH  17  23
BRANCH   9  25
ATOM     25  O   UNL     1      -2.150   3.698  62.575  0.00  0.00    +0.000 OA
ATOM     26  H   UNL     1      -1.545   3.571  61.821  0.00  0.00    +0.000 HD
ENDBRANCH   9  25
BRANCH   8  27
ATOM     27  O   UNL     1       4.355   3.990  63.961  0.00  0.00    +0.000 OA
ATOM     28  H   UNL     1       4.073   3.093  63.707  0.00  0.00    +0.000 HD
ENDBRANCH   8  27
BRANCH  18  29
ATOM     29  O   UNL     1       3.627   8.542  62.545  0.00  0.00    +0.000 OA
BRANCH  29  31
ATOM     30  O   UNL     1       3.863  10.785  62.677  0.00  0.00    +0.000 OA
ATOM     31  C   UNL     1       4.373   9.669  62.668  0.00  0.00    +0.000 C 
BRANCH  31  32
ATOM     32  C   UNL     1       5.890   9.454  62.626  0.00  0.00    +0.000 C 
BRANCH  32  33
ATOM     33  O   UNL     1       6.594   9.799  63.824  0.00  0.00    +0.000 OA
ATOM     34  H   UNL     1       6.357   9.118  64.481  0.00  0.00    +0.000 HD
ENDBRANCH  32  33
BRANCH  32  35
ATOM     35  C   UNL     1       6.458  10.209  61.394  0.00  0.00    +0.000 C 
BRANCH  35  36
ATOM     36  C   UNL     1       6.607   9.309  60.172  0.00  0.00    +0.000 A 
ATOM     37  C   UNL     1       7.230   8.058  60.303  0.00  0.00    +0.000 A 
ATOM     38  C   UNL     1       6.104   9.677  58.912  0.00  0.00    +0.000 A 
ATOM     39  C   UNL     1       7.370   7.210  59.202  0.00  0.00    +0.000 A 
ATOM     40  C   UNL     1       6.245   8.828  57.813  0.00  0.00    +0.000 A 
ATOM     41  C   UNL     1       6.880   7.596  57.958  0.00  0.00    +0.000 A 
ENDBRANCH  35  36
BRANCH  35  43
ATOM     42  O   UNL     1       7.038  12.978  61.895  0.00  0.00    +0.000 OA
ATOM     43  N   UNL     1       7.749  10.815  61.690  0.00  0.00    +0.000 N 
ATOM     44  C   UNL     1       7.933  12.154  61.807  0.00  0.00    +0.000 C 
ATOM     45  H   UNL     1       8.577  10.264  61.507  0.00  0.00    +0.000 HD
BRANCH  44  46
ATOM     46  O   UNL     1       9.259  12.407  61.836  0.00  0.00    +0.000 OA
BRANCH  46  47
ATOM     47  C   UNL     1       9.958  12.841  60.641  0.00  0.00    +0.000 C 
ATOM     48  C   UNL     1      11.384  12.283  60.592  0.00  0.00    +0.000 C 
ATOM     49  C   UNL     1       9.154  12.236  59.479  0.00  0.00    +0.000 C 
ATOM     50  C   UNL     1       9.935  14.368  60.509  0.00  0.00    +0.000 C 
ENDBRANCH  46  47
ENDBRANCH  44  46
ENDBRANCH  35  43
ENDBRANCH  32  35
ENDBRANCH  31  32
ENDBRANCH  29  31
ENDBRANCH  18  29
BRANCH   7  51
ATOM     51  O   UNL     1       1.887   6.410  63.568  0.00  0.00    +0.000 OA
BRANCH  51  53
ATOM     52  O   UNL     1       2.477   6.193  65.475  0.00  0.00    +0.000 OA
ATOM     53  C   UNL     1       2.163   7.106  64.719  0.00  0.00    +0.000 C 
BRANCH  53  54
ATOM     54  C   UNL     1       1.771   8.965  64.969  0.00  0.00    +0.000 A 
ATOM     55  C   UNL     1       0.916   9.775  64.101  0.00  0.00    +0.000 A 
ATOM     56  C   UNL     1       2.131   9.788  66.080  0.00  0.00    +0.000 A 
ATOM     57  C   UNL     1       0.513  11.119  64.303  0.00  0.00    +0.000 A 
ATOM     58  C   UNL     1       1.736  11.139  66.301  0.00  0.00    +0.000 A 
ATOM     59  C   UNL     1       0.927  11.807  65.415  0.00  0.00    +0.000 A 
ENDBRANCH  53  54
ENDBRANCH  51  53
ENDBRANCH   7  51
BRANCH   4  60
ATOM     60  O   UNL     1      -0.721   7.069  65.338  0.00  0.00    +0.000 OA
BRANCH  60  62
ATOM     61  O   UNL     1      -0.398   7.865  67.404  0.00  0.00    +0.000 OA
ATOM     62  C   UNL     1      -1.108   7.811  66.402  0.00  0.00    +0.000 C 
ATOM     63  C   UNL     1      -2.455   8.460  66.383  0.00  0.00    +0.000 C 
ENDBRANCH  60  62
ENDBRANCH   4  60
TORSDOF 17
ENDMDL
MODEL 2
REMARK VINA RESULT:      -4.3     14.007     18.645
REMARK  Name = 
REMARK  25 active torsions:
REMARK  status: ('A' for Active; 'I' for Inactive)
REMARK    1  A    between atoms: O_2  and  C_17
REMARK    2  A    between atoms: O_2  and  C_36
REMARK    3  A    between atoms: O_3  and  C_20
REMARK    4  A    between atoms: O_3  and  C_37
REMARK    5  A    between atoms: O_4  and  C_21
REMARK    6  A    between atoms: O_5  and  C_22
REMARK    7  A    between atoms: O_7  and  C_30
REMARK    8  A    between atoms: O_8  and  C_31
REMARK    9  A    between atoms: O_8  and  C_39
REMARK   10  A    between atoms: O_12  and  C_41
REMARK   11  A    between atoms: O_13  and  C_51
REMARK   12  A    between atoms: O_13  and  C_55
REMARK   13  A    between atoms: N_15  and  C_44
REMARK   14  A    between atoms: C_18  and  C_29
REMARK   15  A    between atoms: C_24  and  C_33
REMARK   16  A    between atoms: C_24  and  C_34
REMARK   17  A    between atoms: C_32  and  C_35
REMARK   18  A    between atoms: C_36  and  C_38
REMARK   19  A    between atoms: C_37  and  C_40
REMARK   20  A    between atoms: C_39  and  C_41
REMARK   21  A    between atoms: C_41  and  C_44
REMARK   22  A    between atoms: C_44  and  C_48
REMARK   23  A    between atoms: C_55  and  C_56
REMARK   24  A    between atoms: C_55  and  C_57
REMARK   25  A    between atoms: C_55  and  C_58
REMARK                            x       y       z     vdW  Elec       q    Type
REMARK                         _______ _______ _______ _____ _____    ______ ____
ROOT
ATOM      1  O   UNL     1      23.204   4.673  61.923  0.00  0.00    +0.000 OA
ATOM      2  O   UNL     1      23.322   2.218  68.177  0.00  0.00    +0.000 OA
ATOM      3  C   UNL     1      21.263   3.447  64.489  0.00  0.00    +0.000 C 
ATOM      4  C   UNL     1      21.760   4.543  63.500  0.00  0.00    +0.000 C 
ATOM      5  C   UNL     1      22.404   3.509  66.004  0.00  0.00    +0.000 C 
ATOM      6  C   UNL     1      23.144   3.867  63.131  0.00  0.00    +0.000 C 
ATOM      7  C   UNL     1      19.406   3.433  64.646  0.00  0.00    +0.000 C 
ATOM      8  C   UNL     1      18.004   2.559  65.573  0.00  0.00    +0.000 C 
ATOM      9  C   UNL     1      23.836   3.175  65.411  0.00  0.00    +0.000 C 
ATOM     10  C   UNL     1      24.250   4.003  64.156  0.00  0.00    +0.000 C 
ATOM     11  C   UNL     1      18.110   1.484  66.982  0.00  0.00    +0.000 C 
ATOM     12  C   UNL     1      21.724   4.591  61.920  0.00  0.00    +0.000 C 
ATOM     13  C   UNL     1      22.255   2.536  67.608  0.00  0.00    +0.000 C 
ATOM     14  C   UNL     1      17.104   3.731  66.181  0.00  0.00    +0.000 C 
ATOM     15  C   UNL     1      18.924   2.163  68.181  0.00  0.00    +0.000 C 
ATOM     16  C   UNL     1      22.579   4.981  66.568  0.00  0.00    +0.000 C 
ATOM     17  C   UNL     1      20.666   1.955  68.514  0.00  0.00    +0.000 C 
ATOM     18  C   UNL     1      17.358   4.158  67.698  0.00  0.00    +0.000 C 
ATOM     19  C   UNL     1      18.317   3.318  68.615  0.00  0.00    +0.000 C 
ATOM     20  C   UNL     1      16.607   1.253  67.512  0.00  0.00    +0.000 C 
ATOM     21  C   UNL     1      18.411  -0.033  66.766  0.00  0.00    +0.000 C 
ATOM     22  C   UNL     1      18.727   4.019  69.886  0.00  0.00    +0.000 C 
ENDROOT
BRANCH  17  23
ATOM     23  O   UNL     1      20.782   0.630  69.034  0.00  0.00    +0.000 OA
ATOM     24  H   UNL     1      20.693   0.046  68.257  0.00  0.00    +0.000 HD
ENDBRANCH  17  23
BRANCH   9  25
ATOM     25  O   UNL     1      23.860   1.800  65.025  0.00  0.00    +0.000 OA
ATOM     26  H   UNL     1      23.206   1.693  64.311  0.00  0.00    +0.000 HD
ENDBRANCH   9  25
BRANCH   8  27
ATOM     27  O   UNL     1      17.221   1.931  64.539  0.00  0.00    +0.000 OA
ATOM     28  H   UNL     1      16.745   1.171  64.917  0.00  0.00    +0.000 HD
ENDBRANCH   8  27
BRANCH  18  29
ATOM     29  O   UNL     1      17.870   5.522  67.692  0.00  0.00    +0.000 OA
BRANCH  29  31
ATOM     30  O   UNL     1      17.623   7.546  68.663  0.00  0.00    +0.000 OA
ATOM     31  C   UNL     1      17.134   6.476  68.314  0.00  0.00    +0.000 C 
BRANCH  31  32
ATOM     32  C   UNL     1      15.709   6.057  68.692  0.00  0.00    +0.000 C 
BRANCH  32  33
ATOM     33  O   UNL     1      14.661   6.792  68.051  0.00  0.00    +0.000 OA
ATOM     34  H   UNL     1      15.050   7.650  67.796  0.00  0.00    +0.000 HD
ENDBRANCH  32  33
BRANCH  32  35
ATOM     35  C   UNL     1      15.576   6.108  70.238  0.00  0.00    +0.000 C 
BRANCH  35  36
ATOM     36  C   UNL     1      15.300   4.738  70.849  0.00  0.00    +0.000 A 
ATOM     37  C   UNL     1      14.802   3.705  70.038  0.00  0.00    +0.000 A 
ATOM     38  C   UNL     1      15.565   4.460  72.200  0.00  0.00    +0.000 A 
ATOM     39  C   UNL     1      14.551   2.438  70.569  0.00  0.00    +0.000 A 
ATOM     40  C   UNL     1      15.312   3.193  72.729  0.00  0.00    +0.000 A 
ATOM     41  C   UNL     1      14.803   2.184  71.915  0.00  0.00    +0.000 A 
ENDBRANCH  35  36
BRANCH  35  43
ATOM     42  O   UNL     1      15.831   8.480  71.839  0.00  0.00    +0.000 OA
ATOM     43  N   UNL     1      14.525   7.027  70.653  0.00  0.00    +0.000 N 
ATOM     44  C   UNL     1      14.736   8.065  71.501  0.00  0.00    +0.000 C 
ATOM     45  H   UNL     1      13.568   6.717  70.555  0.00  0.00    +0.000 HD
BRANCH  44  46
ATOM     46  O   UNL     1      13.539   8.566  71.876  0.00  0.00    +0.000 OA
BRANCH  46  47
ATOM     47  C   UNL     1      12.947   8.197  73.148  0.00  0.00    +0.000 C 
ATOM     48  C   UNL     1      12.777   6.679  73.266  0.00  0.00    +0.000 C 
ATOM     49  C   UNL     1      13.966   8.660  74.200  0.00  0.00    +0.000 C 
ATOM     50  C   UNL     1      11.628   8.941  73.382  0.00  0.00    +0.000 C 
ENDBRANCH  46  47
ENDBRANCH  44  46
ENDBRANCH  35  43
ENDBRANCH  32  35
ENDBRANCH  31  32
ENDBRANCH  29  31
ENDBRANCH  18  29
BRANCH   7  51
ATOM     51  O   UNL     1      19.577   4.218  65.689  0.00  0.00    +0.000 OA
BRANCH  51  53
ATOM     52  O   UNL     1      18.735   4.751  63.946  0.00  0.00    +0.000 OA
ATOM     53  C   UNL     1      19.083   5.293  64.990  0.00  0.00    +0.000 C 
BRANCH  53  54
ATOM     54  C   UNL     1      19.286   7.117  65.540  0.00  0.00    +0.000 A 
ATOM     55  C   UNL     1      20.263   7.604  66.514  0.00  0.00    +0.000 A 
ATOM     56  C   UNL     1      18.629   8.265  65.001  0.00  0.00    +0.000 A 
ATOM     57  C   UNL     1      20.522   8.952  66.871  0.00  0.00    +0.000 A 
ATOM     58  C   UNL     1      18.875   9.626  65.347  0.00  0.00    +0.000 A 
ATOM     59  C   UNL     1      19.821   9.972  66.281  0.00  0.00    +0.000 A 
ENDBRANCH  53  54
ENDBRANCH  51  53
ENDBRANCH   7  51
BRANCH   4  60
ATOM     60  O   UNL     1      21.880   5.840  64.129  0.00  0.00    +0.000 OA
BRANCH  60  62
ATOM     61  O   UNL     1      21.123   7.357  62.669  0.00  0.00    +0.000 OA
ATOM     62  C   UNL     1      22.003   7.005  63.451  0.00  0.00    +0.000 C 
ATOM     63  C   UNL     1      23.271   7.789  63.580  0.00  0.00    +0.000 C 
ENDBRANCH  60  62
ENDBRANCH   4  60
TORSDOF 17
ENDMDL
MODEL 3
REMARK VINA RESULT:      -4.2      9.419     17.340
REMARK  Name = 
REMARK  25 active torsions:
REMARK  status: ('A' for Active; 'I' for Inactive)
REMARK    1  A    between atoms: O_2  and  C_17
REMARK    2  A    between atoms: O_2  and  C_36
REMARK    3  A    between atoms: O_3  and  C_20
REMARK    4  A    between atoms: O_3  and  C_37
REMARK    5  A    between atoms: O_4  and  C_21
REMARK    6  A    between atoms: O_5  and  C_22
REMARK    7  A    between atoms: O_7  and  C_30
REMARK    8  A    between atoms: O_8  and  C_31
REMARK    9  A    between atoms: O_8  and  C_39
REMARK   10  A    between atoms: O_12  and  C_41
REMARK   11  A    between atoms: O_13  and  C_51
REMARK   12  A    between atoms: O_13  and  C_55
REMARK   13  A    between atoms: N_15  and  C_44
REMARK   14  A    between atoms: C_18  and  C_29
REMARK   15  A    between atoms: C_24  and  C_33
REMARK   16  A    between atoms: C_24  and  C_34
REMARK   17  A    between atoms: C_32  and  C_35
REMARK   18  A    between atoms: C_36  and  C_38
REMARK   19  A    between atoms: C_37  and  C_40
REMARK   20  A    between atoms: C_39  and  C_41
REMARK   21  A    between atoms: C_41  and  C_44
REMARK   22  A    between atoms: C_44  and  C_48
REMARK   23  A    between atoms: C_55  and  C_56
REMARK   24  A    between atoms: C_55  and  C_57
REMARK   25  A    between atoms: C_55  and  C_58
REMARK                            x       y       z     vdW  Elec       q    Type
REMARK                         _______ _______ _______ _____ _____    ______ ____
ROOT
ATOM      1  O   UNL     1      23.383   9.713  56.696  0.00  0.00    +0.000 OA
ATOM      2  O   UNL     1      17.971   8.525  52.893  0.00  0.00    +0.000 OA
ATOM      3  C   UNL     1      20.479  11.081  55.448  0.00  0.00    +0.000 C 
ATOM      4  C   UNL     1      21.425  10.576  56.578  0.00  0.00    +0.000 C 
ATOM      5  C   UNL     1      19.479   9.582  54.853  0.00  0.00    +0.000 C 
ATOM      6  C   UNL     1      22.351   9.665  55.673  0.00  0.00    +0.000 C 
ATOM      7  C   UNL     1      19.671  12.704  55.882  0.00  0.00    +0.000 C 
ATOM      8  C   UNL     1      18.430  13.966  55.209  0.00  0.00    +0.000 C 
ATOM      9  C   UNL     1      20.584   8.585  54.307  0.00  0.00    +0.000 C 
ATOM     10  C   UNL     1      21.782   8.321  55.271  0.00  0.00    +0.000 C 
ATOM     11  C   UNL     1      17.308  13.797  53.844  0.00  0.00    +0.000 C 
ATOM     12  C   UNL     1      22.866  11.068  57.005  0.00  0.00    +0.000 C 
ATOM     13  C   UNL     1      18.073   9.550  53.602  0.00  0.00    +0.000 C 
ATOM     14  C   UNL     1      17.390  14.210  56.398  0.00  0.00    +0.000 C 
ATOM     15  C   UNL     1      16.401  12.486  53.985  0.00  0.00    +0.000 C 
ATOM     16  C   UNL     1      18.825   8.778  56.053  0.00  0.00    +0.000 C 
ATOM     17  C   UNL     1      16.744  10.891  53.258  0.00  0.00    +0.000 C 
ATOM     18  C   UNL     1      16.021  13.388  56.374  0.00  0.00    +0.000 C 
ATOM     19  C   UNL     1      15.629  12.525  55.122  0.00  0.00    +0.000 C 
ATOM     20  C   UNL     1      16.311  15.061  53.893  0.00  0.00    +0.000 C 
ATOM     21  C   UNL     1      17.818  14.084  52.396  0.00  0.00    +0.000 C 
ATOM     22  C   UNL     1      14.507  11.547  55.372  0.00  0.00    +0.000 C 
ENDROOT
BRANCH  17  23
ATOM     23  O   UNL     1      16.482  11.061  51.865  0.00  0.00    +0.000 OA
ATOM     24  H   UNL     1      15.569  11.405  51.822  0.00  0.00    +0.000 HD
ENDBRANCH  17  23
BRANCH   9  25
ATOM     25  O   UNL     1      21.133   9.126  53.105  0.00  0.00    +0.000 OA
ATOM     26  H   UNL     1      21.543   9.978  53.337  0.00  0.00    +0.000 HD
ENDBRANCH   9  25
BRANCH   8  27
ATOM     27  O   UNL     1      19.189  15.183  55.069  0.00  0.00    +0.000 OA
ATOM     28  H   UNL     1      18.898  15.649  54.265  0.00  0.00    +0.000 HD
ENDBRANCH   8  27
BRANCH  18  29
ATOM     29  O   UNL     1      16.028  12.487  57.519  0.00  0.00    +0.000 OA
BRANCH  29  31
ATOM     30  O   UNL     1      14.882  11.838  59.354  0.00  0.00    +0.000 OA
ATOM     31  C   UNL     1      15.078  12.667  58.471  0.00  0.00    +0.000 C 
BRANCH  31  32
ATOM     32  C   UNL     1      14.172  13.885  58.265  0.00  0.00    +0.000 C 
BRANCH  32  33
ATOM     33  O   UNL     1      14.251  14.891  59.282  0.00  0.00    +0.000 OA
ATOM     34  H   UNL     1      14.762  14.495  60.012  0.00  0.00    +0.000 HD
ENDBRANCH  32  33
BRANCH  32  35
ATOM     35  C   UNL     1      12.715  13.385  58.070  0.00  0.00    +0.000 C 
BRANCH  35  36
ATOM     36  C   UNL     1      12.134  13.781  56.717  0.00  0.00    +0.000 A 
ATOM     37  C   UNL     1      12.755  14.791  55.964  0.00  0.00    +0.000 A 
ATOM     38  C   UNL     1      11.010  13.137  56.174  0.00  0.00    +0.000 A 
ATOM     39  C   UNL     1      12.251  15.165  54.717  0.00  0.00    +0.000 A 
ATOM     40  C   UNL     1      10.507  13.513  54.927  0.00  0.00    +0.000 A 
ATOM     41  C   UNL     1      11.126  14.528  54.200  0.00  0.00    +0.000 A 
ENDBRANCH  35  36
BRANCH  35  43
ATOM     42  O   UNL     1      11.790  11.994  60.408  0.00  0.00    +0.000 OA
ATOM     43  N   UNL     1      11.836  13.882  59.120  0.00  0.00    +0.000 N 
ATOM     44  C   UNL     1      11.373  13.106  60.132  0.00  0.00    +0.000 C 
ATOM     45  H   UNL     1      11.318  14.730  58.934  0.00  0.00    +0.000 HD
BRANCH  44  46
ATOM     46  O   UNL     1      10.404  13.782  60.786  0.00  0.00    +0.000 OA
BRANCH  46  47
ATOM     47  C   UNL     1       9.025  13.336  60.734  0.00  0.00    +0.000 C 
ATOM     48  C   UNL     1       8.695  12.402  61.903  0.00  0.00    +0.000 C 
ATOM     49  C   UNL     1       8.194  14.619  60.882  0.00  0.00    +0.000 C 
ATOM     50  C   UNL     1       8.700  12.694  59.380  0.00  0.00    +0.000 C 
ENDBRANCH  46  47
ENDBRANCH  44  46
ENDBRANCH  35  43
ENDBRANCH  32  35
ENDBRANCH  31  32
ENDBRANCH  29  31
ENDBRANCH  18  29
BRANCH   7  51
ATOM     51  O   UNL     1      18.664  11.982  56.327  0.00  0.00    +0.000 OA
BRANCH  51  53
ATOM     52  O   UNL     1      19.873  13.124  57.452  0.00  0.00    +0.000 OA
ATOM     53  C   UNL     1      18.979  12.302  57.625  0.00  0.00    +0.000 C 
BRANCH  53  54
ATOM     54  C   UNL     1      18.317  11.356  59.154  0.00  0.00    +0.000 A 
ATOM     55  C   UNL     1      18.177  11.915  60.500  0.00  0.00    +0.000 A 
ATOM     56  C   UNL     1      17.750  10.046  59.187  0.00  0.00    +0.000 A 
ATOM     57  C   UNL     1      17.595  11.290  61.633  0.00  0.00    +0.000 A 
ATOM     58  C   UNL     1      17.161   9.402  60.315  0.00  0.00    +0.000 A 
ATOM     59  C   UNL     1      17.083  10.022  61.538  0.00  0.00    +0.000 A 
ENDBRANCH  53  54
ENDBRANCH  51  53
ENDBRANCH   7  51
BRANCH   4  60
ATOM     60  O   UNL     1      20.714   9.859  57.614  0.00  0.00    +0.000 OA
BRANCH  60  62
ATOM     61  O   UNL     1      21.539   8.168  58.824  0.00  0.00    +0.000 OA
ATOM     62  C   UNL     1      21.294   9.369  58.734  0.00  0.00    +0.000 C 
ATOM     63  C   UNL     1      21.520  10.285  59.895  0.00  0.00    +0.000 C 
ENDBRANCH  60  62
ENDBRANCH   4  60
TORSDOF 17
ENDMDL
MODEL 4
REMARK VINA RESULT:      -4.1      2.479      6.256
REMARK  Name = 
REMARK  25 active torsions:
REMARK  status: ('A' for Active; 'I' for Inactive)
REMARK    1  A    between atoms: O_2  and  C_17
REMARK    2  A    between atoms: O_2  and  C_36
REMARK    3  A    between atoms: O_3  and  C_20
REMARK    4  A    between atoms: O_3  and  C_37
REMARK    5  A    between atoms: O_4  and  C_21
REMARK    6  A    between atoms: O_5  and  C_22
REMARK    7  A    between atoms: O_7  and  C_30
REMARK    8  A    between atoms: O_8  and  C_31
REMARK    9  A    between atoms: O_8  and  C_39
REMARK   10  A    between atoms: O_12  and  C_41
REMARK   11  A    between atoms: O_13  and  C_51
REMARK   12  A    between atoms: O_13  and  C_55
REMARK   13  A    between atoms: N_15  and  C_44
REMARK   14  A    between atoms: C_18  and  C_29
REMARK   15  A    between atoms: C_24  and  C_33
REMARK   16  A    between atoms: C_24  and  C_34
REMARK   17  A    between atoms: C_32  and  C_35
REMARK   18  A    between atoms: C_36  and  C_38
REMARK   19  A    between atoms: C_37  and  C_40
REMARK   20  A    between atoms: C_39  and  C_41
REMARK   21  A    between atoms: C_41  and  C_44
REMARK   22  A    between atoms: C_44  and  C_48
REMARK   23  A    between atoms: C_55  and  C_56
REMARK   24  A    between atoms: C_55  and  C_57
REMARK   25  A    between atoms: C_55  and  C_58
REMARK                            x       y       z     vdW  Elec       q    Type
REMARK                         _______ _______ _______ _____ _____    ______ ____
ROOT
ATOM      1  O   UNL     1       1.612   3.738  60.293  0.00  0.00    +0.000 OA
ATOM      2  O   UNL     1       2.205   6.452  66.412  0.00  0.00    +0.000 OA
ATOM      3  C   UNL     1       1.403   6.667  62.092  0.00  0.00    +0.000 C 
ATOM      4  C   UNL     1       2.005   5.717  61.014  0.00  0.00    +0.000 C 
ATOM      5  C   UNL     1       2.274   6.268  63.730  0.00  0.00    +0.000 C 
ATOM      6  C   UNL     1       1.422   4.363  61.592  0.00  0.00    +0.000 C 
ATOM      7  C   UNL     1       1.220   8.413  61.465  0.00  0.00    +0.000 C 
ATOM      8  C   UNL     1       0.671  10.137  62.024  0.00  0.00    +0.000 C 
ATOM      9  C   UNL     1       1.901   4.750  63.995  0.00  0.00    +0.000 C 
ATOM     10  C   UNL     1       2.137   3.784  62.794  0.00  0.00    +0.000 C 
ATOM     11  C   UNL     1       0.352  10.718  63.671  0.00  0.00    +0.000 C 
ATOM     12  C   UNL     1       1.347   5.081  59.725  0.00  0.00    +0.000 C 
ATOM     13  C   UNL     1       2.098   7.153  65.382  0.00  0.00    +0.000 C 
ATOM     14  C   UNL     1       1.864  11.116  61.608  0.00  0.00    +0.000 C 
ATOM     15  C   UNL     1       1.588  10.434  64.647  0.00  0.00    +0.000 C 
ATOM     16  C   UNL     1       3.853   6.233  63.581  0.00  0.00    +0.000 C 
ATOM     17  C   UNL     1       1.776   9.015  65.715  0.00  0.00    +0.000 C 
ATOM     18  C   UNL     1       2.945  11.492  62.722  0.00  0.00    +0.000 C 
ATOM     19  C   UNL     1       2.727  11.076  64.220  0.00  0.00    +0.000 C 
ATOM     20  C   UNL     1       0.185  12.317  63.584  0.00  0.00    +0.000 C 
ATOM     21  C   UNL     1      -1.052  10.471  64.310  0.00  0.00    +0.000 C 
ATOM     22  C   UNL     1       3.964  11.186  65.078  0.00  0.00    +0.000 C 
ENDROOT
BRANCH  17  23
ATOM     23  O   UNL     1       0.844   9.231  66.775  0.00  0.00    +0.000 OA
ATOM     24  H   UNL     1       1.329   8.999  67.589  0.00  0.00    +0.000 HD
ENDBRANCH  17  23
BRANCH   9  25
ATOM     25  O   UNL     1       0.513   4.672  64.321  0.00  0.00    +0.000 OA
ATOM     26  H   UNL     1       0.325   3.743  64.546  0.00  0.00    +0.000 HD
ENDBRANCH   9  25
BRANCH   8  27
ATOM     27  O   UNL     1      -0.444  10.458  61.170  0.00  0.00    +0.000 OA
ATOM     28  H   UNL     1      -0.343   9.987  60.324  0.00  0.00    +0.000 HD
ENDBRANCH   8  27
BRANCH  18  29
ATOM     29  O   UNL     1       4.220  10.921  62.308  0.00  0.00    +0.000 OA
BRANCH  29  31
ATOM     30  O   UNL     1       5.059  12.776  61.331  0.00  0.00    +0.000 OA
ATOM     31  C   UNL     1       5.232  11.777  62.021  0.00  0.00    +0.000 C 
BRANCH  31  32
ATOM     32  C   UNL     1       6.622  11.319  62.477  0.00  0.00    +0.000 C 
BRANCH  32  33
ATOM     33  O   UNL     1       6.635  10.305  63.488  0.00  0.00    +0.000 OA
ATOM     34  H   UNL     1       5.884  10.503  64.078  0.00  0.00    +0.000 HD
ENDBRANCH  32  33
BRANCH  32  35
ATOM     35  C   UNL     1       7.432  12.569  62.914  0.00  0.00    +0.000 C 
BRANCH  35  36
ATOM     36  C   UNL     1       8.847  12.581  62.345  0.00  0.00    +0.000 A 
ATOM     37  C   UNL     1       9.103  11.963  61.110  0.00  0.00    +0.000 A 
ATOM     38  C   UNL     1       9.907  13.227  63.003  0.00  0.00    +0.000 A 
ATOM     39  C   UNL     1      10.387  11.969  60.562  0.00  0.00    +0.000 A 
ATOM     40  C   UNL     1      11.190  13.231  62.453  0.00  0.00    +0.000 A 
ATOM     41  C   UNL     1      11.430  12.599  61.234  0.00  0.00    +0.000 A 
ENDBRANCH  35  36
BRANCH  35  43
ATOM     42  O   UNL     1       5.971  14.344  64.639  0.00  0.00    +0.000 OA
ATOM     43  N   UNL     1       7.509  12.674  64.365  0.00  0.00    +0.000 N 
ATOM     44  C   UNL     1       6.851  13.622  65.078  0.00  0.00    +0.000 C 
ATOM     45  H   UNL     1       8.294  12.233  64.824  0.00  0.00    +0.000 HD
BRANCH  44  46
ATOM     46  O   UNL     1       7.315  13.607  66.346  0.00  0.00    +0.000 OA
BRANCH  46  47
ATOM     47  C   UNL     1       8.485  14.381  66.717  0.00  0.00    +0.000 C 
ATOM     48  C   UNL     1       8.756  15.503  65.709  0.00  0.00    +0.000 C 
ATOM     49  C   UNL     1       8.123  15.012  68.069  0.00  0.00    +0.000 C 
ATOM     50  C   UNL     1       9.709  13.477  66.909  0.00  0.00    +0.000 C 
ENDBRANCH  46  47
ENDBRANCH  44  46
ENDBRANCH  35  43
ENDBRANCH  32  35
ENDBRANCH  31  32
ENDBRANCH  29  31
ENDBRANCH  18  29
BRANCH   7  51
ATOM     51  O   UNL     1       2.400   8.637  62.006  0.00  0.00    +0.000 OA
BRANCH  51  53
ATOM     52  O   UNL     1       1.986   8.679  60.042  0.00  0.00    +0.000 OA
ATOM     53  C   UNL     1       2.977   8.733  60.763  0.00  0.00    +0.000 C 
BRANCH  53  54
ATOM     54  C   UNL     1       4.863   8.629  60.444  0.00  0.00    +0.000 A 
ATOM     55  C   UNL     1       5.586   9.353  59.398  0.00  0.00    +0.000 A 
ATOM     56  C   UNL     1       5.843   7.958  61.238  0.00  0.00    +0.000 A 
ATOM     57  C   UNL     1       6.989   9.391  59.193  0.00  0.00    +0.000 A 
ATOM     58  C   UNL     1       7.256   7.984  61.048  0.00  0.00    +0.000 A 
ATOM     59  C   UNL     1       7.831   8.700  60.026  0.00  0.00    +0.000 A 
ENDBRANCH  53  54
ENDBRANCH  51  53
ENDBRANCH   7  51
BRANCH   4  60
ATOM     60  O   UNL     1       3.450   5.773  60.973  0.00  0.00    +0.000 OA
BRANCH  60  62
ATOM     61  O   UNL     1       4.117   5.715  58.839  0.00  0.00    +0.000 OA
ATOM     62  C   UNL     1       4.203   5.255  59.975  0.00  0.00    +0.000 C 
ATOM     63  C   UNL     1       5.045   4.050  60.252  0.00  0.00    +0.000 C 
ENDBRANCH  60  62
ENDBRANCH   4  60
TORSDOF 17
ENDMDL
MODEL 5
REMARK VINA RESULT:      -4.1      5.921     10.369
REMARK  Name = 
REMARK  25 active torsions:
REMARK  status: ('A' for Active; 'I' for Inactive)
REMARK    1  A    between atoms: O_2  and  C_17
REMARK    2  A    between atoms: O_2  and  C_36
REMARK    3  A    between atoms: O_3  and  C_20
REMARK    4  A    between atoms: O_3  and  C_37
REMARK    5  A    between atoms: O_4  and  C_21
REMARK    6  A    between atoms: O_5  and  C_22
REMARK    7  A    between atoms: O_7  and  C_30
REMARK    8  A    between atoms: O_8  and  C_31
REMARK    9  A    between atoms: O_8  and  C_39
REMARK   10  A    between atoms: O_12  and  C_41
REMARK   11  A    between atoms: O_13  and  C_51
REMARK   12  A    between atoms: O_13  and  C_55
REMARK   13  A    between atoms: N_15  and  C_44
REMARK   14  A    between atoms: C_18  and  C_29
REMARK   15  A    between atoms: C_24  and  C_33
REMARK   16  A    between atoms: C_24  and  C_34
REMARK   17  A    between atoms: C_32  and  C_35
REMARK   18  A    between atoms: C_36  and  C_38
REMARK   19  A    between atoms: C_37  and  C_40
REMARK   20  A    between atoms: C_39  and  C_41
REMARK   21  A    between atoms: C_41  and  C_44
REMARK   22  A    between atoms: C_44  and  C_48
REMARK   23  A    between atoms: C_55  and  C_56
REMARK   24  A    between atoms: C_55  and  C_57
REMARK   25  A    between atoms: C_55  and  C_58
REMARK                            x       y       z     vdW  Elec       q    Type
REMARK                         _______ _______ _______ _____ _____    ______ ____
ROOT
ATOM      1  O   UNL     1       0.541  15.038  64.772  0.00  0.00    +0.000 OA
ATOM      2  O   UNL     1       2.836   8.823  63.643  0.00  0.00    +0.000 OA
ATOM      3  C   UNL     1       0.348  11.752  65.784  0.00  0.00    +0.000 C 
ATOM      4  C   UNL     1       0.684  13.262  65.963  0.00  0.00    +0.000 C 
ATOM      5  C   UNL     1       1.870  10.935  65.000  0.00  0.00    +0.000 C 
ATOM      6  C   UNL     1       0.738  13.640  64.426  0.00  0.00    +0.000 C 
ATOM      7  C   UNL     1      -0.499  11.039  67.284  0.00  0.00    +0.000 C 
ATOM      8  C   UNL     1      -1.189   9.410  67.961  0.00  0.00    +0.000 C 
ATOM      9  C   UNL     1       2.025  11.682  63.610  0.00  0.00    +0.000 C 
ATOM     10  C   UNL     1       1.993  13.240  63.681  0.00  0.00    +0.000 C 
ATOM     11  C   UNL     1      -0.956   7.765  67.337  0.00  0.00    +0.000 C 
ATOM     12  C   UNL     1      -0.254  14.534  65.917  0.00  0.00    +0.000 C 
ATOM     13  C   UNL     1       2.155   9.107  64.653  0.00  0.00    +0.000 C 
ATOM     14  C   UNL     1      -0.546   9.252  69.416  0.00  0.00    +0.000 C 
ATOM     15  C   UNL     1       0.596   7.416  67.157  0.00  0.00    +0.000 C 
ATOM     16  C   UNL     1       3.212  11.303  65.762  0.00  0.00    +0.000 C 
ATOM     17  C   UNL     1       1.541   7.588  65.652  0.00  0.00    +0.000 C 
ATOM     18  C   UNL     1       0.759   8.343  69.562  0.00  0.00    +0.000 C 
ATOM     19  C   UNL     1       1.270   7.478  68.354  0.00  0.00    +0.000 C 
ATOM     20  C   UNL     1      -1.536   6.753  68.447  0.00  0.00    +0.000 C 
ATOM     21  C   UNL     1      -1.878   7.246  66.187  0.00  0.00    +0.000 C 
ATOM     22  C   UNL     1       2.676   6.957  68.519  0.00  0.00    +0.000 C 
ENDROOT
BRANCH  17  23
ATOM     23  O   UNL     1       1.089   6.524  64.814  0.00  0.00    +0.000 OA
ATOM     24  H   UNL     1       0.210   6.285  65.164  0.00  0.00    +0.000 HD
ENDBRANCH  17  23
BRANCH   9  25
ATOM     25  O   UNL     1       0.950  11.286  62.757  0.00  0.00    +0.000 OA
ATOM     26  H   UNL     1       1.305  10.618  62.143  0.00  0.00    +0.000 HD
ENDBRANCH   9  25
BRANCH   8  27
ATOM     27  O   UNL     1      -2.594   9.664  68.155  0.00  0.00    +0.000 OA
ATOM     28  H   UNL     1      -3.093   8.848  67.973  0.00  0.00    +0.000 HD
ENDBRANCH   8  27
BRANCH  18  29
ATOM     29  O   UNL     1       1.860   9.214  69.950  0.00  0.00    +0.000 OA
BRANCH  29  31
ATOM     30  O   UNL     1       1.385   9.343  72.154  0.00  0.00    +0.000 OA
ATOM     31  C   UNL     1       2.217   9.238  71.258  0.00  0.00    +0.000 C 
BRANCH  31  32
ATOM     32  C   UNL     1       3.726   9.291  71.522  0.00  0.00    +0.000 C 
BRANCH  32  33
ATOM     33  O   UNL     1       4.447   8.093  71.214  0.00  0.00    +0.000 OA
ATOM     34  H   UNL     1       5.268   8.379  70.771  0.00  0.00    +0.000 HD
ENDBRANCH  32  33
BRANCH  32  35
ATOM     35  C   UNL     1       3.951   9.728  72.994  0.00  0.00    +0.000 C 
BRANCH  35  36
ATOM     36  C   UNL     1       5.183  10.612  73.163  0.00  0.00    +0.000 A 
ATOM     37  C   UNL     1       6.308  10.395  72.350  0.00  0.00    +0.000 A 
ATOM     38  C   UNL     1       5.217  11.670  74.086  0.00  0.00    +0.000 A 
ATOM     39  C   UNL     1       7.445  11.196  72.476  0.00  0.00    +0.000 A 
ATOM     40  C   UNL     1       6.356  12.469  74.210  0.00  0.00    +0.000 A 
ATOM     41  C   UNL     1       7.469  12.230  73.408  0.00  0.00    +0.000 A 
ENDBRANCH  35  36
BRANCH  35  43
ATOM     42  O   UNL     1       2.759   9.350  75.582  0.00  0.00    +0.000 OA
ATOM     43  N   UNL     1       4.075   8.578  73.879  0.00  0.00    +0.000 N 
ATOM     44  C   UNL     1       3.555   8.542  75.132  0.00  0.00    +0.000 C 
ATOM     45  H   UNL     1       4.812   7.913  73.682  0.00  0.00    +0.000 HD
BRANCH  44  46
ATOM     46  O   UNL     1       4.044   7.459  75.772  0.00  0.00    +0.000 OA
BRANCH  46  47
ATOM     47  C   UNL     1       5.116   7.590  76.740  0.00  0.00    +0.000 C 
ATOM     48  C   UNL     1       4.573   7.642  78.172  0.00  0.00    +0.000 C 
ATOM     49  C   UNL     1       5.948   6.310  76.576  0.00  0.00    +0.000 C 
ATOM     50  C   UNL     1       6.006   8.797  76.422  0.00  0.00    +0.000 C 
ENDBRANCH  46  47
ENDBRANCH  44  46
ENDBRANCH  35  43
ENDBRANCH  32  35
ENDBRANCH  31  32
ENDBRANCH  29  31
ENDBRANCH  18  29
BRANCH   7  51
ATOM     51  O   UNL     1       0.702  10.669  67.677  0.00  0.00    +0.000 OA
BRANCH  51  53
ATOM     52  O   UNL     1      -0.445  12.053  68.570  0.00  0.00    +0.000 OA
ATOM     53  C   UNL     1       0.701  11.626  68.661  0.00  0.00    +0.000 C 
BRANCH  53  54
ATOM     54  C   UNL     1       2.272  12.217  69.585  0.00  0.00    +0.000 A 
ATOM     55  C   UNL     1       3.646  12.056  69.109  0.00  0.00    +0.000 A 
ATOM     56  C   UNL     1       2.335  13.003  70.777  0.00  0.00    +0.000 A 
ATOM     57  C   UNL     1       4.827  12.569  69.703  0.00  0.00    +0.000 A 
ATOM     58  C   UNL     1       3.511  13.528  71.389  0.00  0.00    +0.000 A 
ATOM     59  C   UNL     1       4.758  13.312  70.854  0.00  0.00    +0.000 A 
ENDBRANCH  53  54
ENDBRANCH  51  53
ENDBRANCH   7  51
BRANCH   4  60
ATOM     60  O   UNL     1       1.929  13.471  66.671  0.00  0.00    +0.000 OA
BRANCH  60  62
ATOM     61  O   UNL     1       1.696  15.184  68.091  0.00  0.00    +0.000 OA
ATOM     62  C   UNL     1       2.327  14.663  67.174  0.00  0.00    +0.000 C 
ATOM     63  C   UNL     1       3.465  15.382  66.522  0.00  0.00    +0.000 C 
ENDBRANCH  60  62
ENDBRANCH   4  60
TORSDOF 17
ENDMDL
MODEL 6
REMARK VINA RESULT:      -4.1     14.393     18.886
REMARK  Name = 
REMARK  25 active torsions:
REMARK  status: ('A' for Active; 'I' for Inactive)
REMARK    1  A    between atoms: O_2  and  C_17
REMARK    2  A    between atoms: O_2  and  C_36
REMARK    3  A    between atoms: O_3  and  C_20
REMARK    4  A    between atoms: O_3  and  C_37
REMARK    5  A    between atoms: O_4  and  C_21
REMARK    6  A    between atoms: O_5  and  C_22
REMARK    7  A    between atoms: O_7  and  C_30
REMARK    8  A    between atoms: O_8  and  C_31
REMARK    9  A    between atoms: O_8  and  C_39
REMARK   10  A    between atoms: O_12  and  C_41
REMARK   11  A    between atoms: O_13  and  C_51
REMARK   12  A    between atoms: O_13  and  C_55
REMARK   13  A    between atoms: N_15  and  C_44
REMARK   14  A    between atoms: C_18  and  C_29
REMARK   15  A    between atoms: C_24  and  C_33
REMARK   16  A    between atoms: C_24  and  C_34
REMARK   17  A    between atoms: C_32  and  C_35
REMARK   18  A    between atoms: C_36  and  C_38
REMARK   19  A    between atoms: C_37  and  C_40
REMARK   20  A    between atoms: C_39  and  C_41
REMARK   21  A    between atoms: C_41  and  C_44
REMARK   22  A    between atoms: C_44  and  C_48
REMARK   23  A    between atoms: C_55  and  C_56
REMARK   24  A    between atoms: C_55  and  C_57
REMARK   25  A    between atoms: C_55  and  C_58
REMARK                            x       y       z     vdW  Elec       q    Type
REMARK                         _______ _______ _______ _____ _____    ______ ____
ROOT
ATOM      1  O   UNL     1      23.158   7.591  61.425  0.00  0.00    +0.000 OA
ATOM      2  O   UNL     1      24.478   3.608  66.674  0.00  0.00    +0.000 OA
ATOM      3  C   UNL     1      21.804   5.316  63.627  0.00  0.00    +0.000 C 
ATOM      4  C   UNL     1      21.960   6.722  62.975  0.00  0.00    +0.000 C 
ATOM      5  C   UNL     1      23.081   5.210  65.027  0.00  0.00    +0.000 C 
ATOM      6  C   UNL     1      23.396   6.494  62.348  0.00  0.00    +0.000 C 
ATOM      7  C   UNL     1      20.016   4.854  63.878  0.00  0.00    +0.000 C 
ATOM      8  C   UNL     1      18.928   3.475  64.587  0.00  0.00    +0.000 C 
ATOM      9  C   UNL     1      24.471   5.373  64.283  0.00  0.00    +0.000 C 
ATOM     10  C   UNL     1      24.567   6.583  63.303  0.00  0.00    +0.000 C 
ATOM     11  C   UNL     1      19.403   2.106  65.612  0.00  0.00    +0.000 C 
ATOM     12  C   UNL     1      21.731   7.191  61.483  0.00  0.00    +0.000 C 
ATOM     13  C   UNL     1      23.311   3.827  66.283  0.00  0.00    +0.000 C 
ATOM     14  C   UNL     1      17.895   4.209  65.560  0.00  0.00    +0.000 C 
ATOM     15  C   UNL     1      20.205   2.592  66.910  0.00  0.00    +0.000 C 
ATOM     16  C   UNL     1      23.031   6.474  65.986  0.00  0.00    +0.000 C 
ATOM     17  C   UNL     1      21.981   2.688  67.068  0.00  0.00    +0.000 C 
ATOM     18  C   UNL     1      18.237   4.250  67.119  0.00  0.00    +0.000 C 
ATOM     19  C   UNL     1      19.441   3.422  67.695  0.00  0.00    +0.000 C 
ATOM     20  C   UNL     1      18.046   1.415  66.136  0.00  0.00    +0.000 C 
ATOM     21  C   UNL     1      19.966   0.810  64.946  0.00  0.00    +0.000 C 
ATOM     22  C   UNL     1      19.853   3.821  69.091  0.00  0.00    +0.000 C 
ENDROOT
BRANCH  17  23
ATOM     23  O   UNL     1      22.412   1.330  67.172  0.00  0.00    +0.000 OA
ATOM     24  H   UNL     1      21.596   0.801  67.087  0.00  0.00    +0.000 HD
ENDBRANCH  17  23
BRANCH   9  25
ATOM     25  O   UNL     1      24.715   4.196  63.511  0.00  0.00    +0.000 OA
ATOM     26  H   UNL     1      25.681   4.077  63.473  0.00  0.00    +0.000 HD
ENDBRANCH   9  25
BRANCH   8  27
ATOM     27  O   UNL     1      18.166   2.998  63.460  0.00  0.00    +0.000 OA
ATOM     28  H   UNL     1      18.626   2.237  63.063  0.00  0.00    +0.000 HD
ENDBRANCH   8  27
BRANCH  18  29
ATOM     29  O   UNL     1      18.471   5.641  67.483  0.00  0.00    +0.000 OA
BRANCH  29  31
ATOM     30  O   UNL     1      17.943   7.127  69.099  0.00  0.00    +0.000 OA
ATOM     31  C   UNL     1      17.600   6.225  68.343  0.00  0.00    +0.000 C 
BRANCH  31  32
ATOM     32  C   UNL     1      16.217   5.568  68.416  0.00  0.00    +0.000 C 
BRANCH  32  33
ATOM     33  O   UNL     1      15.146   6.324  67.839  0.00  0.00    +0.000 OA
ATOM     34  H   UNL     1      14.517   6.498  68.564  0.00  0.00    +0.000 HD
ENDBRANCH  32  33
BRANCH  32  35
ATOM     35  C   UNL     1      15.924   5.204  69.895  0.00  0.00    +0.000 C 
BRANCH  35  36
ATOM     36  C   UNL     1      15.407   3.778  70.058  0.00  0.00    +0.000 A 
ATOM     37  C   UNL     1      14.366   3.517  70.963  0.00  0.00    +0.000 A 
ATOM     38  C   UNL     1      15.918   2.712  69.299  0.00  0.00    +0.000 A 
ATOM     39  C   UNL     1      13.866   2.223  71.123  0.00  0.00    +0.000 A 
ATOM     40  C   UNL     1      15.418   1.419  69.462  0.00  0.00    +0.000 A 
ATOM     41  C   UNL     1      14.395   1.174  70.376  0.00  0.00    +0.000 A 
ENDBRANCH  35  36
BRANCH  35  43
ATOM     42  O   UNL     1      16.360   7.099  72.011  0.00  0.00    +0.000 OA
ATOM     43  N   UNL     1      14.961   6.121  70.490  0.00  0.00    +0.000 N 
ATOM     44  C   UNL     1      15.243   6.905  71.561  0.00  0.00    +0.000 C 
ATOM     45  H   UNL     1      13.981   5.958  70.301  0.00  0.00    +0.000 HD
BRANCH  44  46
ATOM     46  O   UNL     1      14.092   7.445  72.016  0.00  0.00    +0.000 OA
BRANCH  46  47
ATOM     47  C   UNL     1      13.663   7.231  73.385  0.00  0.00    +0.000 C 
ATOM     48  C   UNL     1      12.368   7.991  73.690  0.00  0.00    +0.000 C 
ATOM     49  C   UNL     1      13.379   5.724  73.472  0.00  0.00    +0.000 C 
ATOM     50  C   UNL     1      14.778   7.579  74.377  0.00  0.00    +0.000 C 
ENDBRANCH  46  47
ENDBRANCH  44  46
ENDBRANCH  35  43
ENDBRANCH  32  35
ENDBRANCH  31  32
ENDBRANCH  29  31
ENDBRANCH  18  29
BRANCH   7  51
ATOM     51  O   UNL     1      20.152   5.341  65.093  0.00  0.00    +0.000 OA
BRANCH  51  53
ATOM     52  O   UNL     1      19.041   6.140  63.624  0.00  0.00    +0.000 OA
ATOM     53  C   UNL     1      19.364   6.420  64.774  0.00  0.00    +0.000 C 
BRANCH  53  54
ATOM     54  C   UNL     1      19.211   7.996  65.852  0.00  0.00    +0.000 A 
ATOM     55  C   UNL     1      20.219   8.475  66.799  0.00  0.00    +0.000 A 
ATOM     56  C   UNL     1      18.185   8.989  65.801  0.00  0.00    +0.000 A 
ATOM     57  C   UNL     1      20.198   9.686  67.537  0.00  0.00    +0.000 A 
ATOM     58  C   UNL     1      18.147  10.211  66.533  0.00  0.00    +0.000 A 
ATOM     59  C   UNL     1      19.152  10.562  67.401  0.00  0.00    +0.000 A 
ENDBRANCH  53  54
ENDBRANCH  51  53
ENDBRANCH   7  51
BRANCH   4  60
ATOM     60  O   UNL     1      21.899   7.791  63.947  0.00  0.00    +0.000 OA
BRANCH  60  62
ATOM     61  O   UNL     1      23.016   9.721  63.764  0.00  0.00    +0.000 OA
ATOM     62  C   UNL     1      21.960   9.107  63.635  0.00  0.00    +0.000 C 
ATOM     63  C   UNL     1      20.702   9.820  63.249  0.00  0.00    +0.000 C 
ENDBRANCH  60  62
ENDBRANCH   4  60
TORSDOF 17
ENDMDL
MODEL 7
REMARK VINA RESULT:      -4.0     13.087     19.858
REMARK  Name = 
REMARK  25 active torsions:
REMARK  status: ('A' for Active; 'I' for Inactive)
REMARK    1  A    between atoms: O_2  and  C_17
REMARK    2  A    between atoms: O_2  and  C_36
REMARK    3  A    between atoms: O_3  and  C_20
REMARK    4  A    between atoms: O_3  and  C_37
REMARK    5  A    between atoms: O_4  and  C_21
REMARK    6  A    between atoms: O_5  and  C_22
REMARK    7  A    between atoms: O_7  and  C_30
REMARK    8  A    between atoms: O_8  and  C_31
REMARK    9  A    between atoms: O_8  and  C_39
REMARK   10  A    between atoms: O_12  and  C_41
REMARK   11  A    between atoms: O_13  and  C_51
REMARK   12  A    between atoms: O_13  and  C_55
REMARK   13  A    between atoms: N_15  and  C_44
REMARK   14  A    between atoms: C_18  and  C_29
REMARK   15  A    between atoms: C_24  and  C_33
REMARK   16  A    between atoms: C_24  and  C_34
REMARK   17  A    between atoms: C_32  and  C_35
REMARK   18  A    between atoms: C_36  and  C_38
REMARK   19  A    between atoms: C_37  and  C_40
REMARK   20  A    between atoms: C_39  and  C_41
REMARK   21  A    between atoms: C_41  and  C_44
REMARK   22  A    between atoms: C_44  and  C_48
REMARK   23  A    between atoms: C_55  and  C_56
REMARK   24  A    between atoms: C_55  and  C_57
REMARK   25  A    between atoms: C_55  and  C_58
REMARK                            x       y       z     vdW  Elec       q    Type
REMARK                         _______ _______ _______ _____ _____    ______ ____
ROOT
ATOM      1  O   UNL     1      24.126   7.396  51.654  0.00  0.00    +0.000 OA
ATOM      2  O   UNL     1      17.633   7.814  49.974  0.00  0.00    +0.000 OA
ATOM      3  C   UNL     1      21.432   9.524  51.387  0.00  0.00    +0.000 C 
ATOM      4  C   UNL     1      22.540   8.747  52.157  0.00  0.00    +0.000 C 
ATOM      5  C   UNL     1      19.936   8.364  51.247  0.00  0.00    +0.000 C 
ATOM      6  C   UNL     1      22.833   7.659  51.044  0.00  0.00    +0.000 C 
ATOM      7  C   UNL     1      21.269  11.285  51.977  0.00  0.00    +0.000 C 
ATOM      8  C   UNL     1      20.246  12.853  51.694  0.00  0.00    +0.000 C 
ATOM      9  C   UNL     1      20.491   7.133  50.417  0.00  0.00    +0.000 C 
ATOM     10  C   UNL     1      21.833   6.528  50.932  0.00  0.00    +0.000 C 
ATOM     11  C   UNL     1      18.724  13.036  50.799  0.00  0.00    +0.000 C 
ATOM     12  C   UNL     1      24.115   8.827  52.044  0.00  0.00    +0.000 C 
ATOM     13  C   UNL     1      18.232   8.749  50.549  0.00  0.00    +0.000 C 
ATOM     14  C   UNL     1      19.773  13.316  53.149  0.00  0.00    +0.000 C 
ATOM     15  C   UNL     1      17.611  12.005  51.310  0.00  0.00    +0.000 C 
ATOM     16  C   UNL     1      19.544   7.715  52.641  0.00  0.00    +0.000 C 
ATOM     17  C   UNL     1      17.262  10.404  50.600  0.00  0.00    +0.000 C 
ATOM     18  C   UNL     1      18.314  12.884  53.634  0.00  0.00    +0.000 C 
ATOM     19  C   UNL     1      17.310  12.202  52.637  0.00  0.00    +0.000 C 
ATOM     20  C   UNL     1      18.167  14.515  51.112  0.00  0.00    +0.000 C 
ATOM     21  C   UNL     1      18.767  13.234  49.251  0.00  0.00    +0.000 C 
ATOM     22  C   UNL     1      16.128  11.545  53.306  0.00  0.00    +0.000 C 
ENDROOT
BRANCH  17  23
ATOM     23  O   UNL     1      16.594  10.689  49.370  0.00  0.00    +0.000 OA
ATOM     24  H   UNL     1      16.791   9.926  48.795  0.00  0.00    +0.000 HD
ENDBRANCH  17  23
BRANCH   9  25
ATOM     25  O   UNL     1      20.718   7.556  49.072  0.00  0.00    +0.000 OA
ATOM     26  H   UNL     1      21.681   7.528  48.923  0.00  0.00    +0.000 HD
ENDBRANCH   9  25
BRANCH   8  27
ATOM     27  O   UNL     1      21.200  13.832  51.239  0.00  0.00    +0.000 OA
ATOM     28  H   UNL     1      22.045  13.389  51.049  0.00  0.00    +0.000 HD
ENDBRANCH   8  27
BRANCH  18  29
ATOM     29  O   UNL     1      18.477  11.971  54.757  0.00  0.00    +0.000 OA
BRANCH  29  31
ATOM     30  O   UNL     1      19.011  13.464  56.365  0.00  0.00    +0.000 OA
ATOM     31  C   UNL     1      18.368  12.482  56.009  0.00  0.00    +0.000 C 
BRANCH  31  32
ATOM     32  C   UNL     1      17.520  11.654  56.980  0.00  0.00    +0.000 C 
BRANCH  32  33
ATOM     33  O   UNL     1      16.156  11.454  56.591  0.00  0.00    +0.000 OA
ATOM     34  H   UNL     1      16.102  11.717  55.653  0.00  0.00    +0.000 HD
ENDBRANCH  32  33
BRANCH  32  35
ATOM     35  C   UNL     1      17.622  12.295  58.390  0.00  0.00    +0.000 C 
BRANCH  35  36
ATOM     36  C   UNL     1      18.096  11.307  59.451  0.00  0.00    +0.000 A 
ATOM     37  C   UNL     1      19.246  11.598  60.204  0.00  0.00    +0.000 A 
ATOM     38  C   UNL     1      17.394  10.123  59.731  0.00  0.00    +0.000 A 
ATOM     39  C   UNL     1      19.696  10.717  61.190  0.00  0.00    +0.000 A 
ATOM     40  C   UNL     1      17.847   9.243  60.716  0.00  0.00    +0.000 A 
ATOM     41  C   UNL     1      18.999   9.539  61.443  0.00  0.00    +0.000 A 
ENDBRANCH  35  36
BRANCH  35  43
ATOM     42  O   UNL     1      17.167  14.673  59.937  0.00  0.00    +0.000 OA
ATOM     43  N   UNL     1      16.348  12.860  58.812  0.00  0.00    +0.000 N 
ATOM     44  C   UNL     1      16.245  13.935  59.634  0.00  0.00    +0.000 C 
ATOM     45  H   UNL     1      15.529  12.270  58.744  0.00  0.00    +0.000 HD
BRANCH  44  46
ATOM     46  O   UNL     1      14.960  14.057  60.027  0.00  0.00    +0.000 OA
BRANCH  46  47
ATOM     47  C   UNL     1      14.448  13.279  61.141  0.00  0.00    +0.000 C 
ATOM     48  C   UNL     1      15.586  12.659  61.958  0.00  0.00    +0.000 C 
ATOM     49  C   UNL     1      13.710  14.299  62.021  0.00  0.00    +0.000 C 
ATOM     50  C   UNL     1      13.443  12.224  60.665  0.00  0.00    +0.000 C 
ENDBRANCH  46  47
ENDBRANCH  44  46
ENDBRANCH  35  43
ENDBRANCH  32  35
ENDBRANCH  31  32
ENDBRANCH  29  31
ENDBRANCH  18  29
BRANCH   7  51
ATOM     51  O   UNL     1      20.323  10.837  52.775  0.00  0.00    +0.000 OA
BRANCH  51  53
ATOM     52  O   UNL     1      22.090  11.585  53.365  0.00  0.00    +0.000 OA
ATOM     53  C   UNL     1      21.136  11.003  53.870  0.00  0.00    +0.000 C 
BRANCH  53  54
ATOM     54  C   UNL     1      20.829  10.176  55.570  0.00  0.00    +0.000 A 
ATOM     55  C   UNL     1      19.846   9.125  55.836  0.00  0.00    +0.000 A 
ATOM     56  C   UNL     1      21.581  10.355  56.772  0.00  0.00    +0.000 A 
ATOM     57  C   UNL     1      19.658   8.411  57.047  0.00  0.00    +0.000 A 
ATOM     58  C   UNL     1      21.407   9.648  57.998  0.00  0.00    +0.000 A 
ATOM     59  C   UNL     1      20.446   8.675  58.137  0.00  0.00    +0.000 A 
ENDBRANCH  53  54
ENDBRANCH  51  53
ENDBRANCH   7  51
BRANCH   4  60
ATOM     60  O   UNL     1      22.063   8.203  53.410  0.00  0.00    +0.000 OA
BRANCH  60  62
ATOM     61  O   UNL     1      23.702   8.367  54.924  0.00  0.00    +0.000 OA
ATOM     62  C   UNL     1      22.865   7.667  54.359  0.00  0.00    +0.000 C 
ATOM     63  C   UNL     1      22.794   6.195  54.622  0.00  0.00    +0.000 C 
ENDBRANCH  60  62
ENDBRANCH   4  60
TORSDOF 17
ENDMDL
MODEL 8
REMARK VINA RESULT:      -3.8     10.945     16.654
REMARK  Name = 
REMARK  25 active torsions:
REMARK  status: ('A' for Active; 'I' for Inactive)
REMARK    1  A    between atoms: O_2  and  C_17
REMARK    2  A    between atoms: O_2  and  C_36
REMARK    3  A    between atoms: O_3  and  C_20
REMARK    4  A    between atoms: O_3  and  C_37
REMARK    5  A    between atoms: O_4  and  C_21
REMARK    6  A    between atoms: O_5  and  C_22
REMARK    7  A    between atoms: O_7  and  C_30
REMARK    8  A    between atoms: O_8  and  C_31
REMARK    9  A    between atoms: O_8  and  C_39
REMARK   10  A    between atoms: O_12  and  C_41
REMARK   11  A    between atoms: O_13  and  C_51
REMARK   12  A    between atoms: O_13  and  C_55
REMARK   13  A    between atoms: N_15  and  C_44
REMARK   14  A    between atoms: C_18  and  C_29
REMARK   15  A    between atoms: C_24  and  C_33
REMARK   16  A    between atoms: C_24  and  C_34
REMARK   17  A    between atoms: C_32  and  C_35
REMARK   18  A    between atoms: C_36  and  C_38
REMARK   19  A    between atoms: C_37  and  C_40
REMARK   20  A    between atoms: C_39  and  C_41
REMARK   21  A    between atoms: C_41  and  C_44
REMARK   22  A    between atoms: C_44  and  C_48
REMARK   23  A    between atoms: C_55  and  C_56
REMARK   24  A    between atoms: C_55  and  C_57
REMARK   25  A    between atoms: C_55  and  C_58
REMARK                            x       y       z     vdW  Elec       q    Type
REMARK                         _______ _______ _______ _____ _____    ______ ____
ROOT
ATOM      1  O   UNL     1      22.852  10.667  58.198  0.00  0.00    +0.000 OA
ATOM      2  O   UNL     1      17.188   9.147  54.916  0.00  0.00    +0.000 OA
ATOM      3  C   UNL     1      19.818  11.895  57.127  0.00  0.00    +0.000 C 
ATOM      4  C   UNL     1      20.866  11.473  58.198  0.00  0.00    +0.000 C 
ATOM      5  C   UNL     1      18.818  10.342  56.690  0.00  0.00    +0.000 C 
ATOM      6  C   UNL     1      21.743  10.540  57.267  0.00  0.00    +0.000 C 
ATOM      7  C   UNL     1      19.000  13.517  57.544  0.00  0.00    +0.000 C 
ATOM      8  C   UNL     1      17.672  14.711  56.914  0.00  0.00    +0.000 C 
ATOM      9  C   UNL     1      19.904   9.346  56.106  0.00  0.00    +0.000 C 
ATOM     10  C   UNL     1      21.183   9.163  56.979  0.00  0.00    +0.000 C 
ATOM     11  C   UNL     1      16.449  14.443  55.655  0.00  0.00    +0.000 C 
ATOM     12  C   UNL     1      22.322  12.023  58.481  0.00  0.00    +0.000 C 
ATOM     13  C   UNL     1      17.316  10.210  55.562  0.00  0.00    +0.000 C 
ATOM     14  C   UNL     1      16.724  14.989  58.170  0.00  0.00    +0.000 C 
ATOM     15  C   UNL     1      15.595  13.118  55.935  0.00  0.00    +0.000 C 
ATOM     16  C   UNL     1      18.286   9.585  57.979  0.00  0.00    +0.000 C 
ATOM     17  C   UNL     1      15.926  11.497  55.263  0.00  0.00    +0.000 C 
ATOM     18  C   UNL     1      15.383  14.133  58.300  0.00  0.00    +0.000 C 
ATOM     19  C   UNL     1      14.916  13.197  57.128  0.00  0.00    +0.000 C 
ATOM     20  C   UNL     1      15.422  15.682  55.723  0.00  0.00    +0.000 C 
ATOM     21  C   UNL     1      16.832  14.668  54.158  0.00  0.00    +0.000 C 
ATOM     22  C   UNL     1      13.848  12.205  57.518  0.00  0.00    +0.000 C 
ENDROOT
BRANCH  17  23
ATOM     23  O   UNL     1      15.546  11.588  53.889  0.00  0.00    +0.000 OA
ATOM     24  H   UNL     1      16.277  12.071  53.458  0.00  0.00    +0.000 HD
ENDBRANCH  17  23
BRANCH   9  25
ATOM     25  O   UNL     1      20.338   9.838  54.837  0.00  0.00    +0.000 OA
ATOM     26  H   UNL     1      19.629  10.413  54.496  0.00  0.00    +0.000 HD
ENDBRANCH   9  25
BRANCH   8  27
ATOM     27  O   UNL     1      18.381  15.938  56.651  0.00  0.00    +0.000 OA
ATOM     28  H   UNL     1      18.806  15.879  55.778  0.00  0.00    +0.000 HD
ENDBRANCH   8  27
BRANCH  18  29
ATOM     29  O   UNL     1      15.509  13.293  59.483  0.00  0.00    +0.000 OA
BRANCH  29  31
ATOM     30  O   UNL     1      15.388  14.879  61.086  0.00  0.00    +0.000 OA
ATOM     31  C   UNL     1      15.042  13.784  60.659  0.00  0.00    +0.000 C 
BRANCH  31  32
ATOM     32  C   UNL     1      14.191  12.808  61.480  0.00  0.00    +0.000 C 
BRANCH  32  33
ATOM     33  O   UNL     1      14.091  11.481  60.950  0.00  0.00    +0.000 OA
ATOM     34  H   UNL     1      14.027  11.582  59.982  0.00  0.00    +0.000 HD
ENDBRANCH  32  33
BRANCH  32  35
ATOM     35  C   UNL     1      12.791  13.441  61.697  0.00  0.00    +0.000 C 
BRANCH  35  36
ATOM     36  C   UNL     1      11.993  13.561  60.404  0.00  0.00    +0.000 A 
ATOM     37  C   UNL     1      11.127  12.522  60.025  0.00  0.00    +0.000 A 
ATOM     38  C   UNL     1      12.067  14.703  59.588  0.00  0.00    +0.000 A 
ATOM     39  C   UNL     1      10.376  12.611  58.850  0.00  0.00    +0.000 A 
ATOM     40  C   UNL     1      11.316  14.788  58.414  0.00  0.00    +0.000 A 
ATOM     41  C   UNL     1      10.473  13.742  58.044  0.00  0.00    +0.000 A 
ENDBRANCH  35  36
BRANCH  35  43
ATOM     42  O   UNL     1      11.135  14.564  63.760  0.00  0.00    +0.000 OA
ATOM     43  N   UNL     1      12.891  14.759  62.310  0.00  0.00    +0.000 N 
ATOM     44  C   UNL     1      11.990  15.234  63.206  0.00  0.00    +0.000 C 
ATOM     45  H   UNL     1      13.463  15.450  61.843  0.00  0.00    +0.000 HD
BRANCH  44  46
ATOM     46  O   UNL     1      12.221  16.551  63.394  0.00  0.00    +0.000 OA
BRANCH  46  47
ATOM     47  C   UNL     1      11.228  17.539  63.015  0.00  0.00    +0.000 C 
ATOM     48  C   UNL     1      10.262  17.832  64.168  0.00  0.00    +0.000 C 
ATOM     49  C   UNL     1      12.038  18.810  62.718  0.00  0.00    +0.000 C 
ATOM     50  C   UNL     1      10.487  17.120  61.741  0.00  0.00    +0.000 C 
ENDBRANCH  46  47
ENDBRANCH  44  46
ENDBRANCH  35  43
ENDBRANCH  32  35
ENDBRANCH  31  32
ENDBRANCH  29  31
ENDBRANCH  18  29
BRANCH   7  51
ATOM     51  O   UNL     1      18.054  12.794  58.105  0.00  0.00    +0.000 OA
BRANCH  51  53
ATOM     52  O   UNL     1      19.321  14.014  59.072  0.00  0.00    +0.000 OA
ATOM     53  C   UNL     1      18.475  13.173  59.357  0.00  0.00    +0.000 C 
BRANCH  53  54
ATOM     54  C   UNL     1      17.990  12.266  60.973  0.00  0.00    +0.000 A 
ATOM     55  C   UNL     1      17.422  10.919  61.051  0.00  0.00    +0.000 A 
ATOM     56  C   UNL     1      18.228  12.694  62.315  0.00  0.00    +0.000 A 
ATOM     57  C   UNL     1      17.148  10.169  62.223  0.00  0.00    +0.000 A 
ATOM     58  C   UNL     1      17.960  11.955  63.504  0.00  0.00    +0.000 A 
ATOM     59  C   UNL     1      17.420  10.692  63.460  0.00  0.00    +0.000 A 
ENDBRANCH  53  54
ENDBRANCH  51  53
ENDBRANCH   7  51
BRANCH   4  60
ATOM     60  O   UNL     1      20.263  10.793  59.323  0.00  0.00    +0.000 OA
BRANCH  60  62
ATOM     61  O   UNL     1      21.327  11.432  61.184  0.00  0.00    +0.000 OA
ATOM     62  C   UNL     1      20.908  10.516  60.480  0.00  0.00    +0.000 C 
ATOM     63  C   UNL     1      21.203   9.090  60.823  0.00  0.00    +0.000 C 
ENDBRANCH  60  62
ENDBRANCH   4  60
TORSDOF 17
ENDMDL
MODEL 9
REMARK VINA RESULT:      -3.8     12.033     16.793
REMARK  Name = 
REMARK  25 active torsions:
REMARK  status: ('A' for Active; 'I' for Inactive)
REMARK    1  A    between atoms: O_2  and  C_17
REMARK    2  A    between atoms: O_2  and  C_36
REMARK    3  A    between atoms: O_3  and  C_20
REMARK    4  A    between atoms: O_3  and  C_37
REMARK    5  A    between atoms: O_4  and  C_21
REMARK    6  A    between atoms: O_5  and  C_22
REMARK    7  A    between atoms: O_7  and  C_30
REMARK    8  A    between atoms: O_8  and  C_31
REMARK    9  A    between atoms: O_8  and  C_39
REMARK   10  A    between atoms: O_12  and  C_41
REMARK   11  A    between atoms: O_13  and  C_51
REMARK   12  A    between atoms: O_13  and  C_55
REMARK   13  A    between atoms: N_15  and  C_44
REMARK   14  A    between atoms: C_18  and  C_29
REMARK   15  A    between atoms: C_24  and  C_33
REMARK   16  A    between atoms: C_24  and  C_34
REMARK   17  A    between atoms: C_32  and  C_35
REMARK   18  A    between atoms: C_36  and  C_38
REMARK   19  A    between atoms: C_37  and  C_40
REMARK   20  A    between atoms: C_39  and  C_41
REMARK   21  A    between atoms: C_41  and  C_44
REMARK   22  A    between atoms: C_44  and  C_48
REMARK   23  A    between atoms: C_55  and  C_56
REMARK   24  A    between atoms: C_55  and  C_57
REMARK   25  A    between atoms: C_55  and  C_58
REMARK                            x       y       z     vdW  Elec       q    Type
REMARK                         _______ _______ _______ _____ _____    ______ ____
ROOT
ATOM      1  O   UNL     1      19.636   9.206  60.535  0.00  0.00    +0.000 OA
ATOM      2  O   UNL     1      16.395  13.836  64.171  0.00  0.00    +0.000 OA
ATOM      3  C   UNL     1      17.011  11.435  60.537  0.00  0.00    +0.000 C 
ATOM      4  C   UNL     1      18.378  10.872  60.049  0.00  0.00    +0.000 C 
ATOM      5  C   UNL     1      17.376  12.580  62.005  0.00  0.00    +0.000 C 
ATOM      6  C   UNL     1      18.699   9.989  61.324  0.00  0.00    +0.000 C 
ATOM      7  C   UNL     1      15.920  11.958  59.119  0.00  0.00    +0.000 C 
ATOM      8  C   UNL     1      14.234  12.740  58.758  0.00  0.00    +0.000 C 
ATOM      9  C   UNL     1      18.044  11.620  63.075  0.00  0.00    +0.000 C 
ATOM     10  C   UNL     1      19.209  10.731  62.541  0.00  0.00    +0.000 C 
ATOM     11  C   UNL     1      13.132  13.564  59.880  0.00  0.00    +0.000 C 
ATOM     12  C   UNL     1      18.737   9.481  59.388  0.00  0.00    +0.000 C 
ATOM     13  C   UNL     1      16.170  13.671  62.952  0.00  0.00    +0.000 C 
ATOM     14  C   UNL     1      14.531  13.930  57.733  0.00  0.00    +0.000 C 
ATOM     15  C   UNL     1      13.873  14.734  60.681  0.00  0.00    +0.000 C 
ATOM     16  C   UNL     1      18.528  13.623  61.685  0.00  0.00    +0.000 C 
ATOM     17  C   UNL     1      14.616  14.588  62.299  0.00  0.00    +0.000 C 
ATOM     18  C   UNL     1      14.687  15.405  58.324  0.00  0.00    +0.000 C 
ATOM     19  C   UNL     1      14.359  15.700  59.832  0.00  0.00    +0.000 C 
ATOM     20  C   UNL     1      11.986  14.262  58.989  0.00  0.00    +0.000 C 
ATOM     21  C   UNL     1      12.138  12.715  60.735  0.00  0.00    +0.000 C 
ATOM     22  C   UNL     1      14.875  17.028  60.327  0.00  0.00    +0.000 C 
ENDROOT
BRANCH  17  23
ATOM     23  O   UNL     1      13.513  14.515  63.201  0.00  0.00    +0.000 OA
ATOM     24  H   UNL     1      13.095  13.652  63.018  0.00  0.00    +0.000 HD
ENDBRANCH  17  23
BRANCH   9  25
ATOM     25  O   UNL     1      17.044  10.732  63.578  0.00  0.00    +0.000 OA
ATOM     26  H   UNL     1      16.583  10.356  62.807  0.00  0.00    +0.000 HD
ENDBRANCH   9  25
BRANCH   8  27
ATOM     27  O   UNL     1      13.515  11.731  58.022  0.00  0.00    +0.000 OA
ATOM     28  H   UNL     1      13.236  12.099  57.165  0.00  0.00    +0.000 HD
ENDBRANCH   8  27
BRANCH  18  29
ATOM     29  O   UNL     1      16.065  15.824  58.105  0.00  0.00    +0.000 OA
BRANCH  29  31
ATOM     30  O   UNL     1      15.600  17.689  56.919  0.00  0.00    +0.000 OA
ATOM     31  C   UNL     1      16.305  16.702  57.099  0.00  0.00    +0.000 C 
BRANCH  31  32
ATOM     32  C   UNL     1      17.407  16.284  56.118  0.00  0.00    +0.000 C 
BRANCH  32  33
ATOM     33  O   UNL     1      18.101  17.361  55.477  0.00  0.00    +0.000 OA
ATOM     34  H   UNL     1      18.379  17.965  56.190  0.00  0.00    +0.000 HD
ENDBRANCH  32  33
BRANCH  32  35
ATOM     35  C   UNL     1      16.796  15.303  55.083  0.00  0.00    +0.000 C 
BRANCH  35  36
ATOM     36  C   UNL     1      17.838  14.374  54.468  0.00  0.00    +0.000 A 
ATOM     37  C   UNL     1      17.607  13.816  53.201  0.00  0.00    +0.000 A 
ATOM     38  C   UNL     1      19.051  14.085  55.116  0.00  0.00    +0.000 A 
ATOM     39  C   UNL     1      18.549  12.971  52.610  0.00  0.00    +0.000 A 
ATOM     40  C   UNL     1      19.991  13.240  54.523  0.00  0.00    +0.000 A 
ATOM     41  C   UNL     1      19.739  12.681  53.272  0.00  0.00    +0.000 A 
ENDBRANCH  35  36
BRANCH  35  43
ATOM     42  O   UNL     1      13.967  15.548  54.646  0.00  0.00    +0.000 OA
ATOM     43  N   UNL     1      16.113  16.015  54.012  0.00  0.00    +0.000 N 
ATOM     44  C   UNL     1      14.768  15.981  53.835  0.00  0.00    +0.000 C 
ATOM     45  H   UNL     1      16.662  16.291  53.209  0.00  0.00    +0.000 HD
BRANCH  44  46
ATOM     46  O   UNL     1      14.476  16.528  52.636  0.00  0.00    +0.000 OA
BRANCH  46  47
ATOM     47  C   UNL     1      13.823  15.745  51.603  0.00  0.00    +0.000 C 
ATOM     48  C   UNL     1      12.300  15.898  51.666  0.00  0.00    +0.000 C 
ATOM     49  C   UNL     1      14.323  16.349  50.282  0.00  0.00    +0.000 C 
ATOM     50  C   UNL     1      14.254  14.276  51.665  0.00  0.00    +0.000 C 
ENDBRANCH  46  47
ENDBRANCH  44  46
ENDBRANCH  35  43
ENDBRANCH  32  35
ENDBRANCH  31  32
ENDBRANCH  29  31
ENDBRANCH  18  29
BRANCH   7  51
ATOM     51  O   UNL     1      16.418  13.164  59.296  0.00  0.00    +0.000 OA
BRANCH  51  53
ATOM     52  O   UNL     1      18.054  13.922  58.413  0.00  0.00    +0.000 OA
ATOM     53  C   UNL     1      17.275  12.991  58.237  0.00  0.00    +0.000 C 
BRANCH  53  54
ATOM     54  C   UNL     1      16.965  11.770  56.793  0.00  0.00    +0.000 A 
ATOM     55  C   UNL     1      15.886  11.877  55.810  0.00  0.00    +0.000 A 
ATOM     56  C   UNL     1      17.792  10.680  56.384  0.00  0.00    +0.000 A 
ATOM     57  C   UNL     1      15.681  11.063  54.667  0.00  0.00    +0.000 A 
ATOM     58  C   UNL     1      17.603   9.851  55.240  0.00  0.00    +0.000 A 
ATOM     59  C   UNL     1      16.549  10.040  54.380  0.00  0.00    +0.000 A 
ENDBRANCH  53  54
ENDBRANCH  51  53
ENDBRANCH   7  51
BRANCH   4  60
ATOM     60  O   UNL     1      19.345  11.916  59.790  0.00  0.00    +0.000 OA
BRANCH  60  62
ATOM     61  O   UNL     1      20.514  11.555  57.917  0.00  0.00    +0.000 OA
ATOM     62  C   UNL     1      20.513  11.725  59.134  0.00  0.00    +0.000 C 
ATOM     63  C   UNL     1      21.778  11.608  59.924  0.00  0.00    +0.000 C 
ENDBRANCH  60  62
ENDBRANCH   4  60
TORSDOF 17
ENDMDL
