MODEL 1
REMARK VINA RESULT:      -5.3      0.000      0.000
REMARK  Name = 
REMARK  13 active torsions:
REMARK  status: ('A' for Active; 'I' for Inactive)
REMARK    1  A    between atoms: O_1  and  C_13
REMARK    2  A    between atoms: O_1  and  C_19
REMARK    3  A    between atoms: O_3  and  C_14
REMARK    4  A    between atoms: O_4  and  C_22
REMARK    5  A    between atoms: O_5  and  C_24
REMARK    6  A    between atoms: O_6  and  C_26
REMARK    7  A    between atoms: O_8  and  C_30
REMARK    8  A    between atoms: O_11  and  C_35
REMARK    9  A    between atoms: O_11  and  C_39
REMARK   10  A    between atoms: N_12  and  C_21
REMARK   11  A    between atoms: C_14  and  C_25
REMARK   12  A    between atoms: C_23  and  C_29
REMARK   13  A    between atoms: C_25  and  C_30
REMARK                            x       y       z     vdW  Elec       q    Type
REMARK                         _______ _______ _______ _____ _____    ______ ____
ROOT
ATOM      1  O   UNL     1      19.878   0.523  55.051  0.00  0.00    +0.000 OA
ATOM      2  O   UNL     1      17.205   3.473  51.527  0.00  0.00    +0.000 OA
ATOM      3  C   UNL     1      15.345  -1.860  54.764  0.00  0.00    +0.000 C 
ATOM      4  C   UNL     1      13.163  -1.304  53.602  0.00  0.00    +0.000 C 
ATOM      5  C   UNL     1      14.168  -2.408  53.956  0.00  0.00    +0.000 C 
ATOM      6  C   UNL     1      13.839  -0.198  52.778  0.00  0.00    +0.000 C 
ATOM      7  C   UNL     1      15.989  -0.666  54.086  0.00  0.00    +0.000 A 
ATOM      8  C   UNL     1      15.265   0.134  53.181  0.00  0.00    +0.000 A 
ATOM      9  C   UNL     1      17.313  -0.309  54.401  0.00  0.00    +0.000 A 
ATOM     10  C   UNL     1      15.893   1.248  52.598  0.00  0.00    +0.000 A 
ATOM     11  C   UNL     1      17.932   0.816  53.820  0.00  0.00    +0.000 A 
ATOM     12  C   UNL     1      17.217   1.593  52.916  0.00  0.00    +0.000 A 
ATOM     13  C   UNL     1      19.321   1.180  54.177  0.00  0.00    +0.000 C 
ATOM     14  C   UNL     1      17.853   2.772  52.298  0.00  0.00    +0.000 C 
ATOM     15  C   UNL     1      19.988   2.321  53.505  0.00  0.00    +0.000 A 
ATOM     16  C   UNL     1      19.258   3.096  52.601  0.00  0.00    +0.000 A 
ATOM     17  C   UNL     1      21.328   2.659  53.751  0.00  0.00    +0.000 A 
ATOM     18  C   UNL     1      19.852   4.192  51.955  0.00  0.00    +0.000 A 
ATOM     19  C   UNL     1      21.926   3.737  53.087  0.00  0.00    +0.000 A 
ATOM     20  C   UNL     1      21.185   4.510  52.198  0.00  0.00    +0.000 A 
ENDROOT
BRANCH   4  21
ATOM     21  O   UNL     1      12.587  -0.747  54.791  0.00  0.00    +0.000 OA
ATOM     22  H   UNL     1      12.169  -1.487  55.281  0.00  0.00    +0.000 HD
ENDBRANCH   4  21
BRANCH   9  23
ATOM     23  O   UNL     1      17.978  -1.110  55.299  0.00  0.00    +0.000 OA
ATOM     24  H   UNL     1      18.057  -2.015  54.916  0.00  0.00    +0.000 HD
ENDBRANCH   9  23
BRANCH  10  25
ATOM     25  O   UNL     1      15.148   1.976  51.702  0.00  0.00    +0.000 OA
ATOM     26  H   UNL     1      15.644   2.793  51.465  0.00  0.00    +0.000 HD
ENDBRANCH  10  25
BRANCH   4  28
ATOM     27  O   UNL     1      12.163  -2.341  51.633  0.00  0.00    +0.000 OA
ATOM     28  C   UNL     1      12.008  -1.895  52.776  0.00  0.00    +0.000 C 
BRANCH  28  29
ATOM     29  C   UNL     1      10.622  -1.898  53.415  0.00  0.00    +0.000 C 
BRANCH  29  30
ATOM     30  O   UNL     1      10.054  -0.593  53.425  0.00  0.00    +0.000 OA
ATOM     31  H   UNL     1      10.798   0.024  53.579  0.00  0.00    +0.000 HD
ENDBRANCH  29  30
ENDBRANCH  28  29
ENDBRANCH   4  28
BRANCH  17  32
ATOM     32  O   UNL     1      22.132   1.900  54.558  0.00  0.00    +0.000 OA
ATOM     33  C   UNL     1      22.783   2.717  55.533  0.00  0.00    +0.000 C 
ENDBRANCH  17  32
BRANCH   3  34
ATOM     34  O   UNL     1      14.855  -1.388  56.031  0.00  0.00    +0.000 OA
BRANCH  34  36
ATOM     35  O   UNL     1      14.007  -3.196  57.279  0.00  0.00    +0.000 OA
ATOM     36  C   UNL     1      15.111  -2.313  57.091  0.00  0.00    +0.000 C 
ATOM     37  C   UNL     1      15.452  -1.535  58.364  0.00  0.00    +0.000 C 
ATOM     38  C   UNL     1      14.218  -0.817  58.915  0.00  0.00    +0.000 C 
ATOM     39  C   UNL     1      13.070  -1.829  59.101  0.00  0.00    +0.000 C 
ATOM     40  C   UNL     1      12.821  -2.553  57.764  0.00  0.00    +0.000 C 
ATOM     41  C   UNL     1      11.745  -3.628  57.871  0.00  0.00    +0.000 C 
BRANCH  38  42
ATOM     42  N   UNL     1      14.530  -0.149  60.192  0.00  0.00    +0.000 NA
ATOM     43  H   UNL     1      14.590   0.857  60.053  0.00  0.00    +0.000 HD
ATOM     44  H   UNL     1      15.470  -0.455  60.465  0.00  0.00    +0.000 HD
ENDBRANCH  38  42
BRANCH  39  45
ATOM     45  O   UNL     1      13.444  -2.751  60.142  0.00  0.00    +0.000 OA
ATOM     46  H   UNL     1      14.357  -2.542  60.403  0.00  0.00    +0.000 HD
ENDBRANCH  39  45
ENDBRANCH  34  36
ENDBRANCH   3  34
TORSDOF 11
ENDMDL
MODEL 2
REMARK VINA RESULT:      -5.1      1.652      2.135
REMARK  Name = 
REMARK  13 active torsions:
REMARK  status: ('A' for Active; 'I' for Inactive)
REMARK    1  A    between atoms: O_1  and  C_13
REMARK    2  A    between atoms: O_1  and  C_19
REMARK    3  A    between atoms: O_3  and  C_14
REMARK    4  A    between atoms: O_4  and  C_22
REMARK    5  A    between atoms: O_5  and  C_24
REMARK    6  A    between atoms: O_6  and  C_26
REMARK    7  A    between atoms: O_8  and  C_30
REMARK    8  A    between atoms: O_11  and  C_35
REMARK    9  A    between atoms: O_11  and  C_39
REMARK   10  A    between atoms: N_12  and  C_21
REMARK   11  A    between atoms: C_14  and  C_25
REMARK   12  A    between atoms: C_23  and  C_29
REMARK   13  A    between atoms: C_25  and  C_30
REMARK                            x       y       z     vdW  Elec       q    Type
REMARK                         _______ _______ _______ _____ _____    ______ ____
ROOT
ATOM      1  O   UNL     1      21.049   0.207  56.726  0.00  0.00    +0.000 OA
ATOM      2  O   UNL     1      18.592   2.480  52.595  0.00  0.00    +0.000 OA
ATOM      3  C   UNL     1      16.491  -2.143  56.668  0.00  0.00    +0.000 C 
ATOM      4  C   UNL     1      14.374  -1.790  55.321  0.00  0.00    +0.000 C 
ATOM      5  C   UNL     1      15.341  -2.820  55.919  0.00  0.00    +0.000 C 
ATOM      6  C   UNL     1      15.106  -0.863  54.340  0.00  0.00    +0.000 C 
ATOM      7  C   UNL     1      17.186  -1.102  55.813  0.00  0.00    +0.000 A 
ATOM      8  C   UNL     1      16.518  -0.476  54.743  0.00  0.00    +0.000 A 
ATOM      9  C   UNL     1      18.502  -0.706  56.119  0.00  0.00    +0.000 A 
ATOM     10  C   UNL     1      17.193   0.505  53.994  0.00  0.00    +0.000 A 
ATOM     11  C   UNL     1      19.166   0.286  55.371  0.00  0.00    +0.000 A 
ATOM     12  C   UNL     1      18.508   0.889  54.306  0.00  0.00    +0.000 A 
ATOM     13  C   UNL     1      20.545   0.696  55.720  0.00  0.00    +0.000 C 
ATOM     14  C   UNL     1      19.192   1.927  53.512  0.00  0.00    +0.000 C 
ATOM     15  C   UNL     1      21.262   1.686  54.881  0.00  0.00    +0.000 A 
ATOM     16  C   UNL     1      20.588   2.288  53.817  0.00  0.00    +0.000 A 
ATOM     17  C   UNL     1      22.596   2.051  55.125  0.00  0.00    +0.000 A 
ATOM     18  C   UNL     1      21.231   3.240  53.009  0.00  0.00    +0.000 A 
ATOM     19  C   UNL     1      23.243   2.981  54.303  0.00  0.00    +0.000 A 
ATOM     20  C   UNL     1      22.557   3.584  53.252  0.00  0.00    +0.000 A 
ENDROOT
BRANCH   4  21
ATOM     21  O   UNL     1      13.755  -1.018  56.357  0.00  0.00    +0.000 OA
ATOM     22  H   UNL     1      12.800  -0.962  56.144  0.00  0.00    +0.000 HD
ENDBRANCH   4  21
BRANCH   9  23
ATOM     23  O   UNL     1      19.110  -1.333  57.180  0.00  0.00    +0.000 OA
ATOM     24  H   UNL     1      19.674  -2.064  56.833  0.00  0.00    +0.000 HD
ENDBRANCH   9  23
BRANCH  10  25
ATOM     25  O   UNL     1      16.503   1.062  52.945  0.00  0.00    +0.000 OA
ATOM     26  H   UNL     1      16.794   1.995  52.832  0.00  0.00    +0.000 HD
ENDBRANCH  10  25
BRANCH   4  28
ATOM     27  O   UNL     1      13.058  -3.732  54.649  0.00  0.00    +0.000 OA
ATOM     28  C   UNL     1      13.246  -2.513  54.564  0.00  0.00    +0.000 C 
BRANCH  28  29
ATOM     29  C   UNL     1      12.353  -1.664  53.663  0.00  0.00    +0.000 C 
BRANCH  29  30
ATOM     30  O   UNL     1      11.665  -0.666  54.408  0.00  0.00    +0.000 OA
ATOM     31  H   UNL     1      10.728  -0.718  54.130  0.00  0.00    +0.000 HD
ENDBRANCH  29  30
ENDBRANCH  28  29
ENDBRANCH   4  28
BRANCH  17  32
ATOM     32  O   UNL     1      23.349   1.446  56.095  0.00  0.00    +0.000 OA
ATOM     33  C   UNL     1      23.873   2.416  57.004  0.00  0.00    +0.000 C 
ENDBRANCH  17  32
BRANCH   3  34
ATOM     34  O   UNL     1      15.953  -1.440  57.801  0.00  0.00    +0.000 OA
BRANCH  34  36
ATOM     35  O   UNL     1      15.018  -2.920  59.376  0.00  0.00    +0.000 OA
ATOM     36  C   UNL     1      16.163  -2.146  59.027  0.00  0.00    +0.000 C 
ATOM     37  C   UNL     1      16.539  -1.146  60.123  0.00  0.00    +0.000 C 
ATOM     38  C   UNL     1      15.340  -0.274  60.506  0.00  0.00    +0.000 C 
ATOM     39  C   UNL     1      14.145  -1.175  60.878  0.00  0.00    +0.000 C 
ATOM     40  C   UNL     1      13.864  -2.139  59.710  0.00  0.00    +0.000 C 
ATOM     41  C   UNL     1      12.737  -3.119  60.018  0.00  0.00    +0.000 C 
BRANCH  38  42
ATOM     42  N   UNL     1      15.683   0.619  61.627  0.00  0.00    +0.000 NA
ATOM     43  H   UNL     1      16.638   0.957  61.525  0.00  0.00    +0.000 HD
ATOM     44  H   UNL     1      15.675   0.046  62.478  0.00  0.00    +0.000 HD
ENDBRANCH  38  42
BRANCH  39  45
ATOM     45  O   UNL     1      14.474  -1.886  62.086  0.00  0.00    +0.000 OA
ATOM     46  H   UNL     1      15.024  -1.298  62.630  0.00  0.00    +0.000 HD
ENDBRANCH  39  45
ENDBRANCH  34  36
ENDBRANCH   3  34
TORSDOF 11
ENDMDL
MODEL 3
REMARK VINA RESULT:      -4.9      9.126     13.990
REMARK  Name = 
REMARK  13 active torsions:
REMARK  status: ('A' for Active; 'I' for Inactive)
REMARK    1  A    between atoms: O_1  and  C_13
REMARK    2  A    between atoms: O_1  and  C_19
REMARK    3  A    between atoms: O_3  and  C_14
REMARK    4  A    between atoms: O_4  and  C_22
REMARK    5  A    between atoms: O_5  and  C_24
REMARK    6  A    between atoms: O_6  and  C_26
REMARK    7  A    between atoms: O_8  and  C_30
REMARK    8  A    between atoms: O_11  and  C_35
REMARK    9  A    between atoms: O_11  and  C_39
REMARK   10  A    between atoms: N_12  and  C_21
REMARK   11  A    between atoms: C_14  and  C_25
REMARK   12  A    between atoms: C_23  and  C_29
REMARK   13  A    between atoms: C_25  and  C_30
REMARK                            x       y       z     vdW  Elec       q    Type
REMARK                         _______ _______ _______ _____ _____    ______ ____
ROOT
ATOM      1  O   UNL     1      15.298  -0.279  69.162  0.00  0.00    +0.000 OA
ATOM      2  O   UNL     1      15.503   5.034  69.163  0.00  0.00    +0.000 OA
ATOM      3  C   UNL     1      18.280   0.756  65.119  0.00  0.00    +0.000 C 
ATOM      4  C   UNL     1      18.944   2.908  63.957  0.00  0.00    +0.000 C 
ATOM      5  C   UNL     1      19.417   1.537  64.456  0.00  0.00    +0.000 C 
ATOM      6  C   UNL     1      18.396   3.749  65.120  0.00  0.00    +0.000 C 
ATOM      7  C   UNL     1      17.586   1.571  66.192  0.00  0.00    +0.000 A 
ATOM      8  C   UNL     1      17.612   2.978  66.167  0.00  0.00    +0.000 A 
ATOM      9  C   UNL     1      16.853   0.922  67.204  0.00  0.00    +0.000 A 
ATOM     10  C   UNL     1      16.929   3.694  67.167  0.00  0.00    +0.000 A 
ATOM     11  C   UNL     1      16.162   1.647  68.195  0.00  0.00    +0.000 A 
ATOM     12  C   UNL     1      16.205   3.036  68.174  0.00  0.00    +0.000 A 
ATOM     13  C   UNL     1      15.387   0.943  69.241  0.00  0.00    +0.000 C 
ATOM     14  C   UNL     1      15.489   3.807  69.208  0.00  0.00    +0.000 C 
ATOM     15  C   UNL     1      14.726   1.712  70.322  0.00  0.00    +0.000 A 
ATOM     16  C   UNL     1      14.773   3.107  70.288  0.00  0.00    +0.000 A 
ATOM     17  C   UNL     1      14.044   1.088  71.378  0.00  0.00    +0.000 A 
ATOM     18  C   UNL     1      14.147   3.869  71.288  0.00  0.00    +0.000 A 
ATOM     19  C   UNL     1      13.443   1.848  72.389  0.00  0.00    +0.000 A 
ATOM     20  C   UNL     1      13.485   3.239  72.337  0.00  0.00    +0.000 A 
ENDROOT
BRANCH   4  21
ATOM     21  O   UNL     1      17.940   2.757  62.945  0.00  0.00    +0.000 OA
ATOM     22  H   UNL     1      18.370   2.328  62.175  0.00  0.00    +0.000 HD
ENDBRANCH   4  21
BRANCH   9  23
ATOM     23  O   UNL     1      16.843  -0.453  67.181  0.00  0.00    +0.000 OA
ATOM     24  H   UNL     1      16.388  -0.779  67.993  0.00  0.00    +0.000 HD
ENDBRANCH   9  23
BRANCH  10  25
ATOM     25  O   UNL     1      17.012   5.064  67.109  0.00  0.00    +0.000 OA
ATOM     26  H   UNL     1      16.169   5.448  67.441  0.00  0.00    +0.000 HD
ENDBRANCH  10  25
BRANCH   4  28
ATOM     27  O   UNL     1      20.453   4.803  63.665  0.00  0.00    +0.000 OA
ATOM     28  C   UNL     1      20.120   3.664  63.317  0.00  0.00    +0.000 C 
BRANCH  28  29
ATOM     29  C   UNL     1      20.875   2.958  62.193  0.00  0.00    +0.000 C 
BRANCH  29  30
ATOM     30  O   UNL     1      20.189   3.081  60.952  0.00  0.00    +0.000 OA
ATOM     31  H   UNL     1      19.554   3.818  61.065  0.00  0.00    +0.000 HD
ENDBRANCH  29  30
ENDBRANCH  28  29
ENDBRANCH   4  28
BRANCH  17  32
ATOM     32  O   UNL     1      14.025  -0.273  71.528  0.00  0.00    +0.000 OA
ATOM     33  C   UNL     1      12.680  -0.756  71.579  0.00  0.00    +0.000 C 
ENDBRANCH  17  32
BRANCH   3  34
ATOM     34  O   UNL     1      17.282   0.463  64.126  0.00  0.00    +0.000 OA
BRANCH  34  36
ATOM     35  O   UNL     1      18.311  -1.051  62.644  0.00  0.00    +0.000 OA
ATOM     36  C   UNL     1      17.343  -0.894  63.679  0.00  0.00    +0.000 C 
ATOM     37  C   UNL     1      15.947  -1.339  63.235  0.00  0.00    +0.000 C 
ATOM     38  C   UNL     1      15.534  -0.638  61.939  0.00  0.00    +0.000 C 
ATOM     39  C   UNL     1      16.620  -0.855  60.865  0.00  0.00    +0.000 C 
ATOM     40  C   UNL     1      17.975  -0.380  61.423  0.00  0.00    +0.000 C 
ATOM     41  C   UNL     1      19.125  -0.623  60.452  0.00  0.00    +0.000 C 
BRANCH  38  42
ATOM     42  N   UNL     1      14.232  -1.142  61.466  0.00  0.00    +0.000 NA
ATOM     43  H   UNL     1      14.255  -2.158  61.399  0.00  0.00    +0.000 HD
ATOM     44  H   UNL     1      14.111  -0.798  60.507  0.00  0.00    +0.000 HD
ENDBRANCH  38  42
BRANCH  39  45
ATOM     45  O   UNL     1      16.646  -2.254  60.526  0.00  0.00    +0.000 OA
ATOM     46  H   UNL     1      16.761  -2.753  61.352  0.00  0.00    +0.000 HD
ENDBRANCH  39  45
ENDBRANCH  34  36
ENDBRANCH   3  34
TORSDOF 11
ENDMDL
MODEL 4
REMARK VINA RESULT:      -4.8      1.740      2.228
REMARK  Name = 
REMARK  13 active torsions:
REMARK  status: ('A' for Active; 'I' for Inactive)
REMARK    1  A    between atoms: O_1  and  C_13
REMARK    2  A    between atoms: O_1  and  C_19
REMARK    3  A    between atoms: O_3  and  C_14
REMARK    4  A    between atoms: O_4  and  C_22
REMARK    5  A    between atoms: O_5  and  C_24
REMARK    6  A    between atoms: O_6  and  C_26
REMARK    7  A    between atoms: O_8  and  C_30
REMARK    8  A    between atoms: O_11  and  C_35
REMARK    9  A    between atoms: O_11  and  C_39
REMARK   10  A    between atoms: N_12  and  C_21
REMARK   11  A    between atoms: C_14  and  C_25
REMARK   12  A    between atoms: C_23  and  C_29
REMARK   13  A    between atoms: C_25  and  C_30
REMARK                            x       y       z     vdW  Elec       q    Type
REMARK                         _______ _______ _______ _____ _____    ______ ____
ROOT
ATOM      1  O   UNL     1      20.325   1.084  54.750  0.00  0.00    +0.000 OA
ATOM      2  O   UNL     1      16.421   2.963  51.669  0.00  0.00    +0.000 OA
ATOM      3  C   UNL     1      16.392  -2.015  55.863  0.00  0.00    +0.000 C 
ATOM      4  C   UNL     1      13.943  -2.011  55.215  0.00  0.00    +0.000 C 
ATOM      5  C   UNL     1      15.196  -2.868  55.438  0.00  0.00    +0.000 C 
ATOM      6  C   UNL     1      14.193  -0.957  54.127  0.00  0.00    +0.000 C 
ATOM      7  C   UNL     1      16.627  -0.857  54.914  0.00  0.00    +0.000 A 
ATOM      8  C   UNL     1      15.580  -0.339  54.127  0.00  0.00    +0.000 A 
ATOM      9  C   UNL     1      17.893  -0.245  54.850  0.00  0.00    +0.000 A 
ATOM     10  C   UNL     1      15.836   0.755  53.281  0.00  0.00    +0.000 A 
ATOM     11  C   UNL     1      18.137   0.858  54.009  0.00  0.00    +0.000 A 
ATOM     12  C   UNL     1      17.105   1.355  53.222  0.00  0.00    +0.000 A 
ATOM     13  C   UNL     1      19.473   1.494  53.968  0.00  0.00    +0.000 C 
ATOM     14  C   UNL     1      17.347   2.508  52.334  0.00  0.00    +0.000 C 
ATOM     15  C   UNL     1      19.741   2.606  53.025  0.00  0.00    +0.000 A 
ATOM     16  C   UNL     1      18.694   3.099  52.243  0.00  0.00    +0.000 A 
ATOM     17  C   UNL     1      21.010   3.191  52.894  0.00  0.00    +0.000 A 
ATOM     18  C   UNL     1      18.906   4.159  51.348  0.00  0.00    +0.000 A 
ATOM     19  C   UNL     1      21.226   4.231  51.983  0.00  0.00    +0.000 A 
ATOM     20  C   UNL     1      20.172   4.723  51.218  0.00  0.00    +0.000 A 
ENDROOT
BRANCH   4  21
ATOM     21  O   UNL     1      13.545  -1.373  56.435  0.00  0.00    +0.000 OA
ATOM     22  H   UNL     1      12.802  -0.772  56.216  0.00  0.00    +0.000 HD
ENDBRANCH   4  21
BRANCH   9  23
ATOM     23  O   UNL     1      18.881  -0.774  55.645  0.00  0.00    +0.000 OA
ATOM     24  H   UNL     1      18.760  -0.439  56.565  0.00  0.00    +0.000 HD
ENDBRANCH   9  23
BRANCH  10  25
ATOM     25  O   UNL     1      14.785   1.201  52.516  0.00  0.00    +0.000 OA
ATOM     26  H   UNL     1      14.137   1.657  53.100  0.00  0.00    +0.000 HD
ENDBRANCH  10  25
BRANCH   4  28
ATOM     27  O   UNL     1      12.779  -3.538  53.709  0.00  0.00    +0.000 OA
ATOM     28  C   UNL     1      12.772  -2.906  54.772  0.00  0.00    +0.000 C 
BRANCH  28  29
ATOM     29  C   UNL     1      11.559  -2.977  55.696  0.00  0.00    +0.000 C 
BRANCH  29  30
ATOM     30  O   UNL     1      10.777  -1.791  55.616  0.00  0.00    +0.000 OA
ATOM     31  H   UNL     1      10.579  -1.534  56.540  0.00  0.00    +0.000 HD
ENDBRANCH  29  30
ENDBRANCH  28  29
ENDBRANCH   4  28
BRANCH  17  32
ATOM     32  O   UNL     1      22.104   2.710  53.562  0.00  0.00    +0.000 OA
ATOM     33  C   UNL     1      23.050   2.154  52.646  0.00  0.00    +0.000 C 
ENDBRANCH  17  32
BRANCH   3  34
ATOM     34  O   UNL     1      16.111  -1.433  57.147  0.00  0.00    +0.000 OA
BRANCH  34  36
ATOM     35  O   UNL     1      15.082  -2.021  59.182  0.00  0.00    +0.000 OA
ATOM     36  C   UNL     1      16.017  -2.417  58.181  0.00  0.00    +0.000 C 
ATOM     37  C   UNL     1      17.411  -2.670  58.760  0.00  0.00    +0.000 C 
ATOM     38  C   UNL     1      17.897  -1.464  59.568  0.00  0.00    +0.000 C 
ATOM     39  C   UNL     1      16.845  -1.098  60.634  0.00  0.00    +0.000 C 
ATOM     40  C   UNL     1      15.488  -0.874  59.940  0.00  0.00    +0.000 C 
ATOM     41  C   UNL     1      14.367  -0.575  60.929  0.00  0.00    +0.000 C 
BRANCH  38  42
ATOM     42  N   UNL     1      19.196  -1.751  60.202  0.00  0.00    +0.000 NA
ATOM     43  H   UNL     1      19.780  -0.917  60.194  0.00  0.00    +0.000 HD
ATOM     44  H   UNL     1      19.673  -2.437  59.606  0.00  0.00    +0.000 HD
ENDBRANCH  38  42
BRANCH  39  45
ATOM     45  O   UNL     1      16.780  -2.171  61.592  0.00  0.00    +0.000 OA
ATOM     46  H   UNL     1      16.978  -1.795  62.466  0.00  0.00    +0.000 HD
ENDBRANCH  39  45
ENDBRANCH  34  36
ENDBRANCH   3  34
TORSDOF 11
ENDMDL
MODEL 5
REMARK VINA RESULT:      -4.8     11.221     15.542
REMARK  Name = 
REMARK  13 active torsions:
REMARK  status: ('A' for Active; 'I' for Inactive)
REMARK    1  A    between atoms: O_1  and  C_13
REMARK    2  A    between atoms: O_1  and  C_19
REMARK    3  A    between atoms: O_3  and  C_14
REMARK    4  A    between atoms: O_4  and  C_22
REMARK    5  A    between atoms: O_5  and  C_24
REMARK    6  A    between atoms: O_6  and  C_26
REMARK    7  A    between atoms: O_8  and  C_30
REMARK    8  A    between atoms: O_11  and  C_35
REMARK    9  A    between atoms: O_11  and  C_39
REMARK   10  A    between atoms: N_12  and  C_21
REMARK   11  A    between atoms: C_14  and  C_25
REMARK   12  A    between atoms: C_23  and  C_29
REMARK   13  A    between atoms: C_25  and  C_30
REMARK                            x       y       z     vdW  Elec       q    Type
REMARK                         _______ _______ _______ _____ _____    ______ ____
ROOT
ATOM      1  O   UNL     1       3.352   3.396  64.305  0.00  0.00    +0.000 OA
ATOM      2  O   UNL     1       7.042   0.102  62.357  0.00  0.00    +0.000 OA
ATOM      3  C   UNL     1       4.643   5.616  59.865  0.00  0.00    +0.000 C 
ATOM      4  C   UNL     1       6.433   5.131  58.138  0.00  0.00    +0.000 C 
ATOM      5  C   UNL     1       4.973   5.538  58.373  0.00  0.00    +0.000 C 
ATOM      6  C   UNL     1       6.722   3.760  58.767  0.00  0.00    +0.000 C 
ATOM      7  C   UNL     1       5.030   4.346  60.596  0.00  0.00    +0.000 A 
ATOM      8  C   UNL     1       6.035   3.496  60.095  0.00  0.00    +0.000 A 
ATOM      9  C   UNL     1       4.422   4.029  61.826  0.00  0.00    +0.000 A 
ATOM     10  C   UNL     1       6.381   2.343  60.821  0.00  0.00    +0.000 A 
ATOM     11  C   UNL     1       4.784   2.878  62.553  0.00  0.00    +0.000 A 
ATOM     12  C   UNL     1       5.765   2.034  62.045  0.00  0.00    +0.000 A 
ATOM     13  C   UNL     1       4.140   2.573  63.850  0.00  0.00    +0.000 C 
ATOM     14  C   UNL     1       6.151   0.824  62.794  0.00  0.00    +0.000 C 
ATOM     15  C   UNL     1       4.474   1.321  64.570  0.00  0.00    +0.000 A 
ATOM     16  C   UNL     1       5.464   0.483  64.052  0.00  0.00    +0.000 A 
ATOM     17  C   UNL     1       3.836   0.948  65.765  0.00  0.00    +0.000 A 
ATOM     18  C   UNL     1       5.815  -0.704  64.714  0.00  0.00    +0.000 A 
ATOM     19  C   UNL     1       4.170  -0.249  66.409  0.00  0.00    +0.000 A 
ATOM     20  C   UNL     1       5.167  -1.069  65.890  0.00  0.00    +0.000 A 
ENDROOT
BRANCH   4  21
ATOM     21  O   UNL     1       7.324   6.116  58.678  0.00  0.00    +0.000 OA
ATOM     22  H   UNL     1       8.156   6.065  58.162  0.00  0.00    +0.000 HD
ENDBRANCH   4  21
BRANCH   9  23
ATOM     23  O   UNL     1       3.457   4.894  62.284  0.00  0.00    +0.000 OA
ATOM     24  H   UNL     1       2.878   4.413  62.921  0.00  0.00    +0.000 HD
ENDBRANCH   9  23
BRANCH  10  25
ATOM     25  O   UNL     1       7.348   1.536  60.271  0.00  0.00    +0.000 OA
ATOM     26  H   UNL     1       8.026   1.339  60.956  0.00  0.00    +0.000 HD
ENDBRANCH  10  25
BRANCH   4  28
ATOM     27  O   UNL     1       6.319   4.110  55.925  0.00  0.00    +0.000 OA
ATOM     28  C   UNL     1       6.714   5.048  56.628  0.00  0.00    +0.000 C 
BRANCH  28  29
ATOM     29  C   UNL     1       7.536   6.175  56.007  0.00  0.00    +0.000 C 
BRANCH  29  30
ATOM     30  O   UNL     1       6.845   7.417  56.076  0.00  0.00    +0.000 OA
ATOM     31  H   UNL     1       6.429   7.545  55.199  0.00  0.00    +0.000 HD
ENDBRANCH  29  30
ENDBRANCH  28  29
ENDBRANCH   4  28
BRANCH  17  32
ATOM     32  O   UNL     1       2.800   1.672  66.291  0.00  0.00    +0.000 OA
ATOM     33  C   UNL     1       3.009   1.913  67.684  0.00  0.00    +0.000 C 
ENDBRANCH  17  32
BRANCH   3  34
ATOM     34  O   UNL     1       5.420   6.673  60.455  0.00  0.00    +0.000 OA
BRANCH  34  36
ATOM     35  O   UNL     1       5.014   8.829  59.598  0.00  0.00    +0.000 OA
ATOM     36  C   UNL     1       4.668   7.881  60.605  0.00  0.00    +0.000 C 
ATOM     37  C   UNL     1       4.883   8.432  62.016  0.00  0.00    +0.000 C 
ATOM     38  C   UNL     1       6.307   8.969  62.185  0.00  0.00    +0.000 C 
ATOM     39  C   UNL     1       6.609   9.992  61.071  0.00  0.00    +0.000 C 
ATOM     40  C   UNL     1       6.352   9.331  59.703  0.00  0.00    +0.000 C 
ATOM     41  C   UNL     1       6.558  10.294  58.540  0.00  0.00    +0.000 C 
BRANCH  38  42
ATOM     42  N   UNL     1       6.478   9.586  63.513  0.00  0.00    +0.000 NA
ATOM     43  H   UNL     1       5.743  10.271  63.676  0.00  0.00    +0.000 HD
ATOM     44  H   UNL     1       7.357  10.114  63.484  0.00  0.00    +0.000 HD
ENDBRANCH  38  42
BRANCH  39  45
ATOM     45  O   UNL     1       5.765  11.141  61.272  0.00  0.00    +0.000 OA
ATOM     46  H   UNL     1       5.683  11.280  62.230  0.00  0.00    +0.000 HD
ENDBRANCH  39  45
ENDBRANCH  34  36
ENDBRANCH   3  34
TORSDOF 11
ENDMDL
MODEL 6
REMARK VINA RESULT:      -4.7     11.317     16.517
REMARK  Name = 
REMARK  13 active torsions:
REMARK  status: ('A' for Active; 'I' for Inactive)
REMARK    1  A    between atoms: O_1  and  C_13
REMARK    2  A    between atoms: O_1  and  C_19
REMARK    3  A    between atoms: O_3  and  C_14
REMARK    4  A    between atoms: O_4  and  C_22
REMARK    5  A    between atoms: O_5  and  C_24
REMARK    6  A    between atoms: O_6  and  C_26
REMARK    7  A    between atoms: O_8  and  C_30
REMARK    8  A    between atoms: O_11  and  C_35
REMARK    9  A    between atoms: O_11  and  C_39
REMARK   10  A    between atoms: N_12  and  C_21
REMARK   11  A    between atoms: C_14  and  C_25
REMARK   12  A    between atoms: C_23  and  C_29
REMARK   13  A    between atoms: C_25  and  C_30
REMARK                            x       y       z     vdW  Elec       q    Type
REMARK                         _______ _______ _______ _____ _____    ______ ____
ROOT
ATOM      1  O   UNL     1      14.099  -0.741  71.982  0.00  0.00    +0.000 OA
ATOM      2  O   UNL     1      13.451   4.524  72.345  0.00  0.00    +0.000 OA
ATOM      3  C   UNL     1      16.738   1.020  67.952  0.00  0.00    +0.000 C 
ATOM      4  C   UNL     1      17.008   3.322  66.926  0.00  0.00    +0.000 C 
ATOM      5  C   UNL     1      17.711   2.016  67.318  0.00  0.00    +0.000 C 
ATOM      6  C   UNL     1      16.373   3.987  68.156  0.00  0.00    +0.000 C 
ATOM      7  C   UNL     1      15.959   1.641  69.094  0.00  0.00    +0.000 A 
ATOM      8  C   UNL     1      15.758   3.033  69.166  0.00  0.00    +0.000 A 
ATOM      9  C   UNL     1      15.374   0.819  70.076  0.00  0.00    +0.000 A 
ATOM     10  C   UNL     1      15.005   3.563  70.228  0.00  0.00    +0.000 A 
ATOM     11  C   UNL     1      14.611   1.357  71.130  0.00  0.00    +0.000 A 
ATOM     12  C   UNL     1      14.430   2.733  71.205  0.00  0.00    +0.000 A 
ATOM     13  C   UNL     1      13.994   0.471  72.143  0.00  0.00    +0.000 C 
ATOM     14  C   UNL     1      13.635   3.310  72.305  0.00  0.00    +0.000 C 
ATOM     15  C   UNL     1      13.256   1.052  73.290  0.00  0.00    +0.000 A 
ATOM     16  C   UNL     1      13.078   2.435  73.351  0.00  0.00    +0.000 A 
ATOM     17  C   UNL     1      12.719   0.259  74.317  0.00  0.00    +0.000 A 
ATOM     18  C   UNL     1      12.373   3.020  74.416  0.00  0.00    +0.000 A 
ATOM     19  C   UNL     1      12.039   0.846  75.391  0.00  0.00    +0.000 A 
ATOM     20  C   UNL     1      11.856   2.225  75.434  0.00  0.00    +0.000 A 
ENDROOT
BRANCH   4  21
ATOM     21  O   UNL     1      16.007   3.076  65.930  0.00  0.00    +0.000 OA
ATOM     22  H   UNL     1      16.101   3.775  65.249  0.00  0.00    +0.000 HD
ENDBRANCH   4  21
BRANCH   9  23
ATOM     23  O   UNL     1      15.584  -0.535  69.959  0.00  0.00    +0.000 OA
ATOM     24  H   UNL     1      14.962  -1.004  70.564  0.00  0.00    +0.000 HD
ENDBRANCH   9  23
BRANCH  10  25
ATOM     25  O   UNL     1      14.865   4.930  70.263  0.00  0.00    +0.000 OA
ATOM     26  H   UNL     1      15.696   5.326  70.611  0.00  0.00    +0.000 HD
ENDBRANCH  10  25
BRANCH   4  28
ATOM     27  O   UNL     1      18.197   5.444  66.741  0.00  0.00    +0.000 OA
ATOM     28  C   UNL     1      18.026   4.298  66.312  0.00  0.00    +0.000 C 
BRANCH  28  29
ATOM     29  C   UNL     1      18.828   3.805  65.109  0.00  0.00    +0.000 C 
BRANCH  29  30
ATOM     30  O   UNL     1      18.006   3.683  63.954  0.00  0.00    +0.000 OA
ATOM     31  H   UNL     1      18.326   2.891  63.476  0.00  0.00    +0.000 HD
ENDBRANCH  29  30
ENDBRANCH  28  29
ENDBRANCH   4  28
BRANCH  17  32
ATOM     32  O   UNL     1      12.923  -1.094  74.372  0.00  0.00    +0.000 OA
ATOM     33  C   UNL     1      13.729  -1.436  75.502  0.00  0.00    +0.000 C 
ENDBRANCH  17  32
BRANCH   3  34
ATOM     34  O   UNL     1      15.766   0.634  66.965  0.00  0.00    +0.000 OA
BRANCH  34  36
ATOM     35  O   UNL     1      16.838  -0.527  65.219  0.00  0.00    +0.000 OA
ATOM     36  C   UNL     1      16.047  -0.649  66.399  0.00  0.00    +0.000 C 
ATOM     37  C   UNL     1      14.729  -1.382  66.138  0.00  0.00    +0.000 C 
ATOM     38  C   UNL     1      13.960  -0.733  64.984  0.00  0.00    +0.000 C 
ATOM     39  C   UNL     1      14.870  -0.641  63.743  0.00  0.00    +0.000 C 
ATOM     40  C   UNL     1      16.161   0.106  64.126  0.00  0.00    +0.000 C 
ATOM     41  C   UNL     1      17.156   0.183  62.972  0.00  0.00    +0.000 C 
BRANCH  38  42
ATOM     42  N   UNL     1      12.739  -1.500  64.675  0.00  0.00    +0.000 NA
ATOM     43  H   UNL     1      12.224  -1.046  63.923  0.00  0.00    +0.000 HD
ATOM     44  H   UNL     1      12.137  -1.447  65.504  0.00  0.00    +0.000 HD
ENDBRANCH  38  42
BRANCH  39  45
ATOM     45  O   UNL     1      15.145  -1.977  63.285  0.00  0.00    +0.000 OA
ATOM     46  H   UNL     1      14.826  -2.044  62.369  0.00  0.00    +0.000 HD
ENDBRANCH  39  45
ENDBRANCH  34  36
ENDBRANCH   3  34
TORSDOF 11
ENDMDL
MODEL 7
REMARK VINA RESULT:      -4.7     19.018     23.271
REMARK  Name = 
REMARK  13 active torsions:
REMARK  status: ('A' for Active; 'I' for Inactive)
REMARK    1  A    between atoms: O_1  and  C_13
REMARK    2  A    between atoms: O_1  and  C_19
REMARK    3  A    between atoms: O_3  and  C_14
REMARK    4  A    between atoms: O_4  and  C_22
REMARK    5  A    between atoms: O_5  and  C_24
REMARK    6  A    between atoms: O_6  and  C_26
REMARK    7  A    between atoms: O_8  and  C_30
REMARK    8  A    between atoms: O_11  and  C_35
REMARK    9  A    between atoms: O_11  and  C_39
REMARK   10  A    between atoms: N_12  and  C_21
REMARK   11  A    between atoms: C_14  and  C_25
REMARK   12  A    between atoms: C_23  and  C_29
REMARK   13  A    between atoms: C_25  and  C_30
REMARK                            x       y       z     vdW  Elec       q    Type
REMARK                         _______ _______ _______ _____ _____    ______ ____
ROOT
ATOM      1  O   UNL     1      12.310   5.243  75.476  0.00  0.00    +0.000 OA
ATOM      2  O   UNL     1      11.682   0.250  73.760  0.00  0.00    +0.000 OA
ATOM      3  C   UNL     1       8.230   3.622  78.129  0.00  0.00    +0.000 C 
ATOM      4  C   UNL     1       6.833   1.510  78.046  0.00  0.00    +0.000 C 
ATOM      5  C   UNL     1       7.501   2.556  78.948  0.00  0.00    +0.000 C 
ATOM      6  C   UNL     1       7.876   0.809  77.163  0.00  0.00    +0.000 C 
ATOM      7  C   UNL     1       9.185   3.009  77.124  0.00  0.00    +0.000 A 
ATOM      8  C   UNL     1       8.993   1.699  76.645  0.00  0.00    +0.000 A 
ATOM      9  C   UNL     1      10.253   3.770  76.613  0.00  0.00    +0.000 A 
ATOM     10  C   UNL     1       9.887   1.180  75.692  0.00  0.00    +0.000 A 
ATOM     11  C   UNL     1      11.137   3.247  75.649  0.00  0.00    +0.000 A 
ATOM     12  C   UNL     1      10.952   1.948  75.192  0.00  0.00    +0.000 A 
ATOM     13  C   UNL     1      12.244   4.072  75.116  0.00  0.00    +0.000 C 
ATOM     14  C   UNL     1      11.872   1.386  74.185  0.00  0.00    +0.000 C 
ATOM     15  C   UNL     1      13.214   3.487  74.158  0.00  0.00    +0.000 A 
ATOM     16  C   UNL     1      13.015   2.182  73.703  0.00  0.00    +0.000 A 
ATOM     17  C   UNL     1      14.324   4.203  73.682  0.00  0.00    +0.000 A 
ATOM     18  C   UNL     1      13.904   1.600  72.787  0.00  0.00    +0.000 A 
ATOM     19  C   UNL     1      15.224   3.612  72.788  0.00  0.00    +0.000 A 
ATOM     20  C   UNL     1      15.009   2.315  72.332  0.00  0.00    +0.000 A 
ENDROOT
BRANCH   4  21
ATOM     21  O   UNL     1       5.828   2.120  77.227  0.00  0.00    +0.000 OA
ATOM     22  H   UNL     1       5.914   3.090  77.339  0.00  0.00    +0.000 HD
ENDBRANCH   4  21
BRANCH   9  23
ATOM     23  O   UNL     1      10.394   5.049  77.098  0.00  0.00    +0.000 OA
ATOM     24  H   UNL     1      11.182   5.463  76.673  0.00  0.00    +0.000 HD
ENDBRANCH   9  23
BRANCH  10  25
ATOM     25  O   UNL     1       9.668  -0.113  75.281  0.00  0.00    +0.000 OA
ATOM     26  H   UNL     1      10.293  -0.325  74.550  0.00  0.00    +0.000 HD
ENDBRANCH  10  25
BRANCH   4  28
ATOM     27  O   UNL     1       5.890   0.617  80.111  0.00  0.00    +0.000 OA
ATOM     28  C   UNL     1       6.130   0.449  78.910  0.00  0.00    +0.000 C 
BRANCH  28  29
ATOM     29  C   UNL     1       5.742  -0.861  78.229  0.00  0.00    +0.000 C 
BRANCH  29  30
ATOM     30  O   UNL     1       4.652  -0.677  77.334  0.00  0.00    +0.000 OA
ATOM     31  H   UNL     1       3.888  -1.139  77.738  0.00  0.00    +0.000 HD
ENDBRANCH  29  30
ENDBRANCH  28  29
ENDBRANCH   4  28
BRANCH  17  32
ATOM     32  O   UNL     1      14.634   5.454  74.144  0.00  0.00    +0.000 OA
ATOM     33  C   UNL     1      14.698   6.388  73.064  0.00  0.00    +0.000 C 
ENDBRANCH  17  32
BRANCH   3  34
ATOM     34  O   UNL     1       7.261   4.360  77.365  0.00  0.00    +0.000 OA
BRANCH  34  36
ATOM     35  O   UNL     1       5.127   5.117  78.012  0.00  0.00    +0.000 OA
ATOM     36  C   UNL     1       6.533   5.294  78.167  0.00  0.00    +0.000 C 
ATOM     37  C   UNL     1       6.979   6.714  77.813  0.00  0.00    +0.000 C 
ATOM     38  C   UNL     1       6.492   7.110  76.417  0.00  0.00    +0.000 C 
ATOM     39  C   UNL     1       4.966   6.902  76.323  0.00  0.00    +0.000 C 
ATOM     40  C   UNL     1       4.637   5.446  76.706  0.00  0.00    +0.000 C 
ATOM     41  C   UNL     1       3.138   5.167  76.710  0.00  0.00    +0.000 C 
BRANCH  38  42
ATOM     42  N   UNL     1       6.841   8.511  76.120  0.00  0.00    +0.000 NA
ATOM     43  H   UNL     1       7.743   8.740  76.533  0.00  0.00    +0.000 HD
ATOM     44  H   UNL     1       6.152   9.097  76.603  0.00  0.00    +0.000 HD
ENDBRANCH  38  42
BRANCH  39  45
ATOM     45  O   UNL     1       4.327   7.841  77.207  0.00  0.00    +0.000 OA
ATOM     46  H   UNL     1       4.806   8.684  77.133  0.00  0.00    +0.000 HD
ENDBRANCH  39  45
ENDBRANCH  34  36
ENDBRANCH   3  34
TORSDOF 11
ENDMDL
MODEL 8
REMARK VINA RESULT:      -4.7      9.349     13.631
REMARK  Name = 
REMARK  13 active torsions:
REMARK  status: ('A' for Active; 'I' for Inactive)
REMARK    1  A    between atoms: O_1  and  C_13
REMARK    2  A    between atoms: O_1  and  C_19
REMARK    3  A    between atoms: O_3  and  C_14
REMARK    4  A    between atoms: O_4  and  C_22
REMARK    5  A    between atoms: O_5  and  C_24
REMARK    6  A    between atoms: O_6  and  C_26
REMARK    7  A    between atoms: O_8  and  C_30
REMARK    8  A    between atoms: O_11  and  C_35
REMARK    9  A    between atoms: O_11  and  C_39
REMARK   10  A    between atoms: N_12  and  C_21
REMARK   11  A    between atoms: C_14  and  C_25
REMARK   12  A    between atoms: C_23  and  C_29
REMARK   13  A    between atoms: C_25  and  C_30
REMARK                            x       y       z     vdW  Elec       q    Type
REMARK                         _______ _______ _______ _____ _____    ______ ____
ROOT
ATOM      1  O   UNL     1      15.308   1.615  69.525  0.00  0.00    +0.000 OA
ATOM      2  O   UNL     1      16.841   6.461  67.967  0.00  0.00    +0.000 OA
ATOM      3  C   UNL     1      17.795   0.676  65.139  0.00  0.00    +0.000 C 
ATOM      4  C   UNL     1      18.792   2.174  63.355  0.00  0.00    +0.000 C 
ATOM      5  C   UNL     1      18.976   0.902  64.193  0.00  0.00    +0.000 C 
ATOM      6  C   UNL     1      18.660   3.407  64.261  0.00  0.00    +0.000 C 
ATOM      7  C   UNL     1      17.502   1.903  65.979  0.00  0.00    +0.000 A 
ATOM      8  C   UNL     1      17.878   3.189  65.544  0.00  0.00    +0.000 A 
ATOM      9  C   UNL     1      16.794   1.775  67.189  0.00  0.00    +0.000 A 
ATOM     10  C   UNL     1      17.560   4.303  66.343  0.00  0.00    +0.000 A 
ATOM     11  C   UNL     1      16.469   2.896  67.977  0.00  0.00    +0.000 A 
ATOM     12  C   UNL     1      16.857   4.161  67.551  0.00  0.00    +0.000 A 
ATOM     13  C   UNL     1      15.712   2.737  69.239  0.00  0.00    +0.000 C 
ATOM     14  C   UNL     1      16.526   5.344  68.367  0.00  0.00    +0.000 C 
ATOM     15  C   UNL     1      15.441   3.915  70.098  0.00  0.00    +0.000 A 
ATOM     16  C   UNL     1      15.832   5.181  69.657  0.00  0.00    +0.000 A 
ATOM     17  C   UNL     1      14.795   3.806  71.339  0.00  0.00    +0.000 A 
ATOM     18  C   UNL     1      15.580   6.320  70.437  0.00  0.00    +0.000 A 
ATOM     19  C   UNL     1      14.568   4.940  72.128  0.00  0.00    +0.000 A 
ATOM     20  C   UNL     1      14.950   6.198  71.672  0.00  0.00    +0.000 A 
ENDROOT
BRANCH   4  21
ATOM     21  O   UNL     1      17.640   2.060  62.511  0.00  0.00    +0.000 OA
ATOM     22  H   UNL     1      17.053   1.385  62.914  0.00  0.00    +0.000 HD
ENDBRANCH   4  21
BRANCH   9  23
ATOM     23  O   UNL     1      16.435   0.503  67.568  0.00  0.00    +0.000 OA
ATOM     24  H   UNL     1      17.109  -0.130  67.225  0.00  0.00    +0.000 HD
ENDBRANCH   9  23
BRANCH  10  25
ATOM     25  O   UNL     1      17.975   5.529  65.883  0.00  0.00    +0.000 OA
ATOM     26  H   UNL     1      17.190   6.114  65.784  0.00  0.00    +0.000 HD
ENDBRANCH  10  25
BRANCH   4  28
ATOM     27  O   UNL     1      19.908   2.783  61.272  0.00  0.00    +0.000 OA
ATOM     28  C   UNL     1      20.008   2.371  62.433  0.00  0.00    +0.000 C 
BRANCH  28  29
ATOM     29  C   UNL     1      21.380   2.014  63.001  0.00  0.00    +0.000 C 
BRANCH  29  30
ATOM     30  O   UNL     1      22.098   3.179  63.389  0.00  0.00    +0.000 OA
ATOM     31  H   UNL     1      23.007   2.880  63.599  0.00  0.00    +0.000 HD
ENDBRANCH  29  30
ENDBRANCH  28  29
ENDBRANCH   4  28
BRANCH  17  32
ATOM     32  O   UNL     1      14.457   2.594  71.879  0.00  0.00    +0.000 OA
ATOM     33  C   UNL     1      13.451   2.751  72.882  0.00  0.00    +0.000 C 
ENDBRANCH  17  32
BRANCH   3  34
ATOM     34  O   UNL     1      16.615   0.434  64.355  0.00  0.00    +0.000 OA
BRANCH  34  36
ATOM     35  O   UNL     1      16.389  -0.823  62.376  0.00  0.00    +0.000 OA
ATOM     36  C   UNL     1      16.601  -0.878  63.785  0.00  0.00    +0.000 C 
ATOM     37  C   UNL     1      15.542  -1.723  64.496  0.00  0.00    +0.000 C 
ATOM     38  C   UNL     1      14.131  -1.250  64.137  0.00  0.00    +0.000 C 
ATOM     39  C   UNL     1      13.969  -1.223  62.604  0.00  0.00    +0.000 C 
ATOM     40  C   UNL     1      15.088  -0.353  62.000  0.00  0.00    +0.000 C 
ATOM     41  C   UNL     1      15.049  -0.327  60.475  0.00  0.00    +0.000 C 
BRANCH  38  42
ATOM     42  N   UNL     1      13.116  -2.127  64.749  0.00  0.00    +0.000 NA
ATOM     43  H   UNL     1      12.673  -1.653  65.534  0.00  0.00    +0.000 HD
ATOM     44  H   UNL     1      13.617  -2.928  65.147  0.00  0.00    +0.000 HD
ENDBRANCH  38  42
BRANCH  39  45
ATOM     45  O   UNL     1      14.029  -2.578  62.120  0.00  0.00    +0.000 OA
ATOM     46  H   UNL     1      14.662  -3.060  62.678  0.00  0.00    +0.000 HD
ENDBRANCH  39  45
ENDBRANCH  34  36
ENDBRANCH   3  34
TORSDOF 11
ENDMDL
MODEL 9
REMARK VINA RESULT:      -4.7     12.408     14.548
REMARK  Name = 
REMARK  13 active torsions:
REMARK  status: ('A' for Active; 'I' for Inactive)
REMARK    1  A    between atoms: O_1  and  C_13
REMARK    2  A    between atoms: O_1  and  C_19
REMARK    3  A    between atoms: O_3  and  C_14
REMARK    4  A    between atoms: O_4  and  C_22
REMARK    5  A    between atoms: O_5  and  C_24
REMARK    6  A    between atoms: O_6  and  C_26
REMARK    7  A    between atoms: O_8  and  C_30
REMARK    8  A    between atoms: O_11  and  C_35
REMARK    9  A    between atoms: O_11  and  C_39
REMARK   10  A    between atoms: N_12  and  C_21
REMARK   11  A    between atoms: C_14  and  C_25
REMARK   12  A    between atoms: C_23  and  C_29
REMARK   13  A    between atoms: C_25  and  C_30
REMARK                            x       y       z     vdW  Elec       q    Type
REMARK                         _______ _______ _______ _____ _____    ______ ____
ROOT
ATOM      1  O   UNL     1      16.957  12.616  63.611  0.00  0.00    +0.000 OA
ATOM      2  O   UNL     1      18.845   9.106  60.092  0.00  0.00    +0.000 OA
ATOM      3  C   UNL     1      18.803   8.877  66.598  0.00  0.00    +0.000 C 
ATOM      4  C   UNL     1      19.753   6.579  66.113  0.00  0.00    +0.000 C 
ATOM      5  C   UNL     1      19.885   7.856  66.953  0.00  0.00    +0.000 C 
ATOM      6  C   UNL     1      19.867   6.899  64.616  0.00  0.00    +0.000 C 
ATOM      7  C   UNL     1      18.749   9.149  65.108  0.00  0.00    +0.000 A 
ATOM      8  C   UNL     1      19.217   8.200  64.178  0.00  0.00    +0.000 A 
ATOM      9  C   UNL     1      18.175  10.342  64.630  0.00  0.00    +0.000 A 
ATOM     10  C   UNL     1      19.122   8.483  62.804  0.00  0.00    +0.000 A 
ATOM     11  C   UNL     1      18.073  10.612  63.252  0.00  0.00    +0.000 A 
ATOM     12  C   UNL     1      18.550   9.679  62.339  0.00  0.00    +0.000 A 
ATOM     13  C   UNL     1      17.452  11.868  62.773  0.00  0.00    +0.000 C 
ATOM     14  C   UNL     1      18.453   9.950  60.893  0.00  0.00    +0.000 C 
ATOM     15  C   UNL     1      17.417  12.176  61.324  0.00  0.00    +0.000 A 
ATOM     16  C   UNL     1      17.896  11.229  60.417  0.00  0.00    +0.000 A 
ATOM     17  C   UNL     1      16.908  13.386  60.825  0.00  0.00    +0.000 A 
ATOM     18  C   UNL     1      17.867  11.480  59.036  0.00  0.00    +0.000 A 
ATOM     19  C   UNL     1      16.904  13.646  59.449  0.00  0.00    +0.000 A 
ATOM     20  C   UNL     1      17.373  12.688  58.554  0.00  0.00    +0.000 A 
ENDROOT
BRANCH   4  21
ATOM     21  O   UNL     1      18.506   5.926  66.382  0.00  0.00    +0.000 OA
ATOM     22  H   UNL     1      18.563   5.561  67.291  0.00  0.00    +0.000 HD
ENDBRANCH   4  21
BRANCH   9  23
ATOM     23  O   UNL     1      17.719  11.234  65.573  0.00  0.00    +0.000 OA
ATOM     24  H   UNL     1      17.403  12.046  65.112  0.00  0.00    +0.000 HD
ENDBRANCH   9  23
BRANCH  10  25
ATOM     25  O   UNL     1      19.619   7.533  61.944  0.00  0.00    +0.000 OA
ATOM     26  H   UNL     1      20.373   7.074  62.378  0.00  0.00    +0.000 HD
ENDBRANCH  10  25
BRANCH   4  28
ATOM     27  O   UNL     1      21.613   5.760  67.464  0.00  0.00    +0.000 OA
ATOM     28  C   UNL     1      20.870   5.591  66.490  0.00  0.00    +0.000 C 
BRANCH  28  29
ATOM     29  C   UNL     1      21.056   4.371  65.591  0.00  0.00    +0.000 C 
BRANCH  29  30
ATOM     30  O   UNL     1      19.957   3.473  65.703  0.00  0.00    +0.000 OA
ATOM     31  H   UNL     1      19.168   4.030  65.864  0.00  0.00    +0.000 HD
ENDBRANCH  29  30
ENDBRANCH  28  29
ENDBRANCH   4  28
BRANCH  17  32
ATOM     32  O   UNL     1      16.498  14.397  61.652  0.00  0.00    +0.000 OA
ATOM     33  C   UNL     1      17.353  15.535  61.518  0.00  0.00    +0.000 C 
ENDBRANCH  17  32
BRANCH   3  34
ATOM     34  O   UNL     1      17.521   8.333  66.954  0.00  0.00    +0.000 OA
BRANCH  34  36
ATOM     35  O   UNL     1      16.861   7.184  68.901  0.00  0.00    +0.000 OA
ATOM     36  C   UNL     1      17.254   8.441  68.355  0.00  0.00    +0.000 C 
ATOM     37  C   UNL     1      16.199   9.526  68.583  0.00  0.00    +0.000 C 
ATOM     38  C   UNL     1      14.828   9.072  68.075  0.00  0.00    +0.000 C 
ATOM     39  C   UNL     1      14.464   7.715  68.710  0.00  0.00    +0.000 C 
ATOM     40  C   UNL     1      15.596   6.710  68.423  0.00  0.00    +0.000 C 
ATOM     41  C   UNL     1      15.354   5.354  69.077  0.00  0.00    +0.000 C 
BRANCH  38  42
ATOM     42  N   UNL     1      13.798  10.080  68.383  0.00  0.00    +0.000 NA
ATOM     43  H   UNL     1      14.192  11.016  68.308  0.00  0.00    +0.000 HD
ATOM     44  H   UNL     1      13.548   9.957  69.371  0.00  0.00    +0.000 HD
ENDBRANCH  38  42
BRANCH  39  45
ATOM     45  O   UNL     1      14.276   7.914  70.124  0.00  0.00    +0.000 OA
ATOM     46  H   UNL     1      13.374   8.251  70.254  0.00  0.00    +0.000 HD
ENDBRANCH  39  45
ENDBRANCH  34  36
ENDBRANCH   3  34
TORSDOF 11
ENDMDL
