MODEL 1
REMARK VINA RESULT:      -4.6      0.000      0.000
REMARK  Name = Dronabinol.pdbqt.pdb
REMARK  3 active torsions:
REMARK  status: ('A' for Active; 'I' for Inactive)
REMARK    1  A    between atoms: C_13  and  O_18
REMARK    2  A    between atoms: C_16  and  C_20
REMARK    3  A    between atoms: C_21  and  C_22
REMARK                            x       y       z     vdW  Elec       q    Type
REMARK                         _______ _______ _______ _____ _____    ______ ____
ROOT
ATOM      1  O   UNL     1      16.955   2.730  52.242  0.00  0.00    +0.000 OA
ATOM      2  C   UNL     1      19.349   2.718  52.828  0.00  0.00    +0.000 A 
ATOM      3  C   UNL     1      19.055   1.618  53.780  0.00  0.00    +0.000 A 
ATOM      4  C   UNL     1      18.297   3.052  51.806  0.00  0.00    +0.000 C 
ATOM      5  C   UNL     1      20.720   3.154  52.893  0.00  0.00    +0.000 A 
ATOM      6  C   UNL     1      17.736   0.990  53.788  0.00  0.00    +0.000 A 
ATOM      7  C   UNL     1      21.772   2.588  53.865  0.00  0.00    +0.000 A 
ATOM      8  C   UNL     1      20.195   1.261  54.596  0.00  0.00    +0.000 A 
ATOM      9  C   UNL     1      21.457   1.551  54.805  0.00  0.00    +0.000 A 
ATOM     10  C   UNL     1      16.751   1.601  52.997  0.00  0.00    +0.000 A 
ATOM     11  C   UNL     1      18.305   4.583  51.543  0.00  0.00    +0.000 C 
ATOM     12  C   UNL     1      18.589   2.276  50.488  0.00  0.00    +0.000 C 
ATOM     13  C   UNL     1      17.386  -0.146  54.529  0.00  0.00    +0.000 A 
ATOM     14  C   UNL     1      15.446   1.106  52.980  0.00  0.00    +0.000 A 
ATOM     15  C   UNL     1      22.008   1.601  56.195  0.00  0.00    +0.000 C 
ATOM     16  C   UNL     1      15.116  -0.022  53.723  0.00  0.00    +0.000 A 
ATOM     17  C   UNL     1      16.084  -0.652  54.496  0.00  0.00    +0.000 A 
ENDROOT
BRANCH  13  18
ATOM     18  O   UNL     1      18.316  -0.789  55.295  0.00  0.00    +0.000 OA
ATOM     19  H   UNL     1      18.728  -0.150  55.905  0.00  0.00    +0.000 HD
ENDBRANCH  13  18
BRANCH  16  20
ATOM     20  C   UNL     1      13.790  -0.538  53.682  0.00  0.00    +0.000 C 
ATOM     21  C   UNL     1      12.359  -1.087  53.649  0.00  0.00    +0.000 C 
BRANCH  21  22
ATOM     22  C   UNL     1      10.926  -1.627  53.623  0.00  0.00    +0.000 C 
ATOM     23  C   UNL     1       9.492  -2.166  53.592  0.00  0.00    +0.000 C 
ATOM     24  C   UNL     1       8.059  -2.706  53.559  0.00  0.00    +0.000 C 
ENDBRANCH  21  22
ENDBRANCH  16  20
TORSDOF 3
ENDMDL
MODEL 2
REMARK VINA RESULT:      -4.4     14.038     15.109
REMARK  Name = Dronabinol.pdbqt.pdb
REMARK  3 active torsions:
REMARK  status: ('A' for Active; 'I' for Inactive)
REMARK    1  A    between atoms: C_13  and  O_18
REMARK    2  A    between atoms: C_16  and  C_20
REMARK    3  A    between atoms: C_21  and  C_22
REMARK                            x       y       z     vdW  Elec       q    Type
REMARK                         _______ _______ _______ _____ _____    ______ ____
ROOT
ATOM      1  O   UNL     1      12.628  12.024  61.228  0.00  0.00    +0.000 OA
ATOM      2  C   UNL     1      13.740  12.516  59.084  0.00  0.00    +0.000 A 
ATOM      3  C   UNL     1      12.398  12.513  58.451  0.00  0.00    +0.000 A 
ATOM      4  C   UNL     1      13.798  12.584  60.587  0.00  0.00    +0.000 C 
ATOM      5  C   UNL     1      14.803  12.682  58.129  0.00  0.00    +0.000 A 
ATOM      6  C   UNL     1      11.197  12.446  59.279  0.00  0.00    +0.000 A 
ATOM      7  C   UNL     1      14.600  12.801  56.607  0.00  0.00    +0.000 A 
ATOM      8  C   UNL     1      12.458  12.628  57.009  0.00  0.00    +0.000 A 
ATOM      9  C   UNL     1      13.296  12.757  56.009  0.00  0.00    +0.000 A 
ATOM     10  C   UNL     1      11.397  12.203  60.646  0.00  0.00    +0.000 A 
ATOM     11  C   UNL     1      15.004  11.746  61.091  0.00  0.00    +0.000 C 
ATOM     12  C   UNL     1      13.946  14.068  61.034  0.00  0.00    +0.000 C 
ATOM     13  C   UNL     1       9.883  12.584  58.812  0.00  0.00    +0.000 A 
ATOM     14  C   UNL     1      10.309  12.067  61.510  0.00  0.00    +0.000 A 
ATOM     15  C   UNL     1      13.078  12.012  54.730  0.00  0.00    +0.000 C 
ATOM     16  C   UNL     1       9.012  12.207  61.028  0.00  0.00    +0.000 A 
ATOM     17  C   UNL     1       8.796  12.468  59.681  0.00  0.00    +0.000 A 
ENDROOT
BRANCH  13  18
ATOM     18  O   UNL     1       9.639  12.844  57.493  0.00  0.00    +0.000 OA
ATOM     19  H   UNL     1      10.255  12.326  56.944  0.00  0.00    +0.000 HD
ENDBRANCH  13  18
BRANCH  16  20
ATOM     20  C   UNL     1       7.906  12.095  61.918  0.00  0.00    +0.000 C 
ATOM     21  C   UNL     1       6.724  11.966  62.885  0.00  0.00    +0.000 C 
BRANCH  21  22
ATOM     22  C   UNL     1       5.549  11.834  63.859  0.00  0.00    +0.000 C 
ATOM     23  C   UNL     1       4.372  11.699  64.830  0.00  0.00    +0.000 C 
ATOM     24  C   UNL     1       3.195  11.562  65.802  0.00  0.00    +0.000 C 
ENDBRANCH  21  22
ENDBRANCH  16  20
TORSDOF 3
ENDMDL
MODEL 3
REMARK VINA RESULT:      -4.3      3.332      3.807
REMARK  Name = Dronabinol.pdbqt.pdb
REMARK  3 active torsions:
REMARK  status: ('A' for Active; 'I' for Inactive)
REMARK    1  A    between atoms: C_13  and  O_18
REMARK    2  A    between atoms: C_16  and  C_20
REMARK    3  A    between atoms: C_21  and  C_22
REMARK                            x       y       z     vdW  Elec       q    Type
REMARK                         _______ _______ _______ _____ _____    ______ ____
ROOT
ATOM      1  O   UNL     1      17.571   0.970  53.681  0.00  0.00    +0.000 OA
ATOM      2  C   UNL     1      19.710   2.159  53.391  0.00  0.00    +0.000 A 
ATOM      3  C   UNL     1      20.175   1.516  54.644  0.00  0.00    +0.000 A 
ATOM      4  C   UNL     1      18.473   1.601  52.742  0.00  0.00    +0.000 C 
ATOM      5  C   UNL     1      20.666   3.097  52.862  0.00  0.00    +0.000 A 
ATOM      6  C   UNL     1      19.372   0.470  55.273  0.00  0.00    +0.000 A 
ATOM      7  C   UNL     1      22.011   3.444  53.528  0.00  0.00    +0.000 A 
ATOM      8  C   UNL     1      21.463   2.008  55.084  0.00  0.00    +0.000 A 
ATOM      9  C   UNL     1      22.425   2.838  54.762  0.00  0.00    +0.000 A 
ATOM     10  C   UNL     1      18.093   0.260  54.734  0.00  0.00    +0.000 A 
ATOM     11  C   UNL     1      17.669   2.760  52.090  0.00  0.00    +0.000 C 
ATOM     12  C   UNL     1      18.879   0.553  51.665  0.00  0.00    +0.000 C 
ATOM     13  C   UNL     1      19.770  -0.310  56.366  0.00  0.00    +0.000 A 
ATOM     14  C   UNL     1      17.230  -0.680  55.300  0.00  0.00    +0.000 A 
ATOM     15  C   UNL     1      23.109   3.657  55.811  0.00  0.00    +0.000 C 
ATOM     16  C   UNL     1      17.643  -1.445  56.385  0.00  0.00    +0.000 A 
ATOM     17  C   UNL     1      18.913  -1.264  56.919  0.00  0.00    +0.000 A 
ENDROOT
BRANCH  13  18
ATOM     18  O   UNL     1      21.014  -0.158  56.910  0.00  0.00    +0.000 OA
ATOM     19  H   UNL     1      21.350  -1.028  57.192  0.00  0.00    +0.000 HD
ENDBRANCH  13  18
BRANCH  16  20
ATOM     20  C   UNL     1      16.768  -2.420  56.942  0.00  0.00    +0.000 C 
ATOM     21  C   UNL     1      15.817  -3.461  57.544  0.00  0.00    +0.000 C 
BRANCH  21  22
ATOM     22  C   UNL     1      14.859  -4.494  58.145  0.00  0.00    +0.000 C 
ATOM     23  C   UNL     1      13.900  -5.523  58.750  0.00  0.00    +0.000 C 
ATOM     24  C   UNL     1      12.938  -6.551  59.355  0.00  0.00    +0.000 C 
ENDBRANCH  21  22
ENDBRANCH  16  20
TORSDOF 3
ENDMDL
MODEL 4
REMARK VINA RESULT:      -4.3     10.371     11.727
REMARK  Name = Dronabinol.pdbqt.pdb
REMARK  3 active torsions:
REMARK  status: ('A' for Active; 'I' for Inactive)
REMARK    1  A    between atoms: C_13  and  O_18
REMARK    2  A    between atoms: C_16  and  C_20
REMARK    3  A    between atoms: C_21  and  C_22
REMARK                            x       y       z     vdW  Elec       q    Type
REMARK                         _______ _______ _______ _____ _____    ______ ____
ROOT
ATOM      1  O   UNL     1      17.485  11.676  56.748  0.00  0.00    +0.000 OA
ATOM      2  C   UNL     1      19.298  10.034  56.442  0.00  0.00    +0.000 A 
ATOM      3  C   UNL     1      19.117   9.651  57.864  0.00  0.00    +0.000 A 
ATOM      4  C   UNL     1      18.214  10.859  55.802  0.00  0.00    +0.000 C 
ATOM      5  C   UNL     1      20.403   9.351  55.821  0.00  0.00    +0.000 A 
ATOM      6  C   UNL     1      17.988  10.177  58.627  0.00  0.00    +0.000 A 
ATOM      7  C   UNL     1      21.336   8.361  56.543  0.00  0.00    +0.000 A 
ATOM      8  C   UNL     1      20.120   8.715  58.325  0.00  0.00    +0.000 A 
ATOM      9  C   UNL     1      21.168   8.033  57.929  0.00  0.00    +0.000 A 
ATOM     10  C   UNL     1      17.227  11.177  58.002  0.00  0.00    +0.000 A 
ATOM     11  C   UNL     1      18.853  11.846  54.788  0.00  0.00    +0.000 C 
ATOM     12  C   UNL     1      17.205   9.919  55.079  0.00  0.00    +0.000 C 
ATOM     13  C   UNL     1      17.629   9.778  59.920  0.00  0.00    +0.000 A 
ATOM     14  C   UNL     1      16.161  11.780  58.670  0.00  0.00    +0.000 A 
ATOM     15  C   UNL     1      22.362   7.887  58.819  0.00  0.00    +0.000 C 
ATOM     16  C   UNL     1      15.819  11.371  59.954  0.00  0.00    +0.000 A 
ATOM     17  C   UNL     1      16.549  10.368  60.581  0.00  0.00    +0.000 A 
ENDROOT
BRANCH  13  18
ATOM     18  O   UNL     1      18.325   8.792  60.561  0.00  0.00    +0.000 OA
ATOM     19  H   UNL     1      17.814   8.488  61.333  0.00  0.00    +0.000 HD
ENDBRANCH  13  18
BRANCH  16  20
ATOM     20  C   UNL     1      14.715  11.972  60.622  0.00  0.00    +0.000 C 
ATOM     21  C   UNL     1      13.522  12.606  61.347  0.00  0.00    +0.000 C 
BRANCH  21  22
ATOM     22  C   UNL     1      12.330  13.231  62.078  0.00  0.00    +0.000 C 
ATOM     23  C   UNL     1      11.135  13.853  62.807  0.00  0.00    +0.000 C 
ATOM     24  C   UNL     1       9.939  14.472  63.538  0.00  0.00    +0.000 C 
ENDBRANCH  21  22
ENDBRANCH  16  20
TORSDOF 3
ENDMDL
MODEL 5
REMARK VINA RESULT:      -4.1      3.203      3.949
REMARK  Name = Dronabinol.pdbqt.pdb
REMARK  3 active torsions:
REMARK  status: ('A' for Active; 'I' for Inactive)
REMARK    1  A    between atoms: C_13  and  O_18
REMARK    2  A    between atoms: C_16  and  C_20
REMARK    3  A    between atoms: C_21  and  C_22
REMARK                            x       y       z     vdW  Elec       q    Type
REMARK                         _______ _______ _______ _____ _____    ______ ____
ROOT
ATOM      1  O   UNL     1      19.993   3.345  52.642  0.00  0.00    +0.000 OA
ATOM      2  C   UNL     1      21.250   2.159  54.399  0.00  0.00    +0.000 A 
ATOM      3  C   UNL     1      20.022   1.370  54.669  0.00  0.00    +0.000 A 
ATOM      4  C   UNL     1      21.300   2.950  53.120  0.00  0.00    +0.000 C 
ATOM      5  C   UNL     1      22.314   1.859  55.321  0.00  0.00    +0.000 A 
ATOM      6  C   UNL     1      18.871   1.479  53.776  0.00  0.00    +0.000 A 
ATOM      7  C   UNL     1      22.202   0.865  56.493  0.00  0.00    +0.000 A 
ATOM      8  C   UNL     1      20.149   0.511  55.826  0.00  0.00    +0.000 A 
ATOM      9  C   UNL     1      20.992   0.141  56.760  0.00  0.00    +0.000 A 
ATOM     10  C   UNL     1      18.936   2.482  52.797  0.00  0.00    +0.000 A 
ATOM     11  C   UNL     1      22.083   4.269  53.364  0.00  0.00    +0.000 C 
ATOM     12  C   UNL     1      21.997   2.105  52.014  0.00  0.00    +0.000 C 
ATOM     13  C   UNL     1      17.720   0.683  53.839  0.00  0.00    +0.000 A 
ATOM     14  C   UNL     1      17.862   2.700  51.932  0.00  0.00    +0.000 A 
ATOM     15  C   UNL     1      20.530  -0.061  58.168  0.00  0.00    +0.000 C 
ATOM     16  C   UNL     1      16.728   1.900  52.009  0.00  0.00    +0.000 A 
ATOM     17  C   UNL     1      16.655   0.889  52.959  0.00  0.00    +0.000 A 
ENDROOT
BRANCH  13  18
ATOM     18  O   UNL     1      17.620  -0.321  54.760  0.00  0.00    +0.000 OA
ATOM     19  H   UNL     1      17.919   0.007  55.627  0.00  0.00    +0.000 HD
ENDBRANCH  13  18
BRANCH  16  20
ATOM     20  C   UNL     1      15.647   2.109  51.107  0.00  0.00    +0.000 C 
ATOM     21  C   UNL     1      14.473   2.330  50.145  0.00  0.00    +0.000 C 
BRANCH  21  22
ATOM     22  C   UNL     1      13.295   2.551  49.192  0.00  0.00    +0.000 C 
ATOM     23  C   UNL     1      12.113   2.773  48.243  0.00  0.00    +0.000 C 
ATOM     24  C   UNL     1      10.931   2.999  47.294  0.00  0.00    +0.000 C 
ENDBRANCH  21  22
ENDBRANCH  16  20
TORSDOF 3
ENDMDL
MODEL 6
REMARK VINA RESULT:      -4.1     22.250     23.561
REMARK  Name = Dronabinol.pdbqt.pdb
REMARK  3 active torsions:
REMARK  status: ('A' for Active; 'I' for Inactive)
REMARK    1  A    between atoms: C_13  and  O_18
REMARK    2  A    between atoms: C_16  and  C_20
REMARK    3  A    between atoms: C_21  and  C_22
REMARK                            x       y       z     vdW  Elec       q    Type
REMARK                         _______ _______ _______ _____ _____    ______ ____
ROOT
ATOM      1  O   UNL     1      10.821   0.104  74.294  0.00  0.00    +0.000 OA
ATOM      2  C   UNL     1      12.466   1.939  74.272  0.00  0.00    +0.000 A 
ATOM      3  C   UNL     1      11.525   2.720  75.113  0.00  0.00    +0.000 A 
ATOM      4  C   UNL     1      12.214   0.462  74.137  0.00  0.00    +0.000 C 
ATOM      5  C   UNL     1      13.628   2.699  73.891  0.00  0.00    +0.000 A 
ATOM      6  C   UNL     1      10.334   2.080  75.667  0.00  0.00    +0.000 A 
ATOM      7  C   UNL     1      13.870   4.173  74.264  0.00  0.00    +0.000 A 
ATOM      8  C   UNL     1      11.958   4.085  75.322  0.00  0.00    +0.000 A 
ATOM      9  C   UNL     1      12.928   4.923  75.045  0.00  0.00    +0.000 A 
ATOM     10  C   UNL     1      10.057   0.782  75.212  0.00  0.00    +0.000 A 
ATOM     11  C   UNL     1      12.615   0.003  72.708  0.00  0.00    +0.000 C 
ATOM     12  C   UNL     1      13.047  -0.307  75.205  0.00  0.00    +0.000 C 
ATOM     13  C   UNL     1       9.456   2.665  76.588  0.00  0.00    +0.000 A 
ATOM     14  C   UNL     1       8.912   0.108  75.642  0.00  0.00    +0.000 A 
ATOM     15  C   UNL     1      12.629   6.348  74.703  0.00  0.00    +0.000 C 
ATOM     16  C   UNL     1       8.051   0.705  76.556  0.00  0.00    +0.000 A 
ATOM     17  C   UNL     1       8.322   1.982  77.033  0.00  0.00    +0.000 A 
ENDROOT
BRANCH  13  18
ATOM     18  O   UNL     1       9.696   3.918  77.078  0.00  0.00    +0.000 OA
ATOM     19  H   UNL     1       8.938   4.494  76.872  0.00  0.00    +0.000 HD
ENDBRANCH  13  18
BRANCH  16  20
ATOM     20  C   UNL     1       6.900   0.003  77.012  0.00  0.00    +0.000 C 
ATOM     21  C   UNL     1       5.661  -0.747  77.516  0.00  0.00    +0.000 C 
BRANCH  21  22
ATOM     22  C   UNL     1       4.424  -1.490  78.027  0.00  0.00    +0.000 C 
ATOM     23  C   UNL     1       3.187  -2.238  78.536  0.00  0.00    +0.000 C 
ATOM     24  C   UNL     1       1.951  -2.987  79.045  0.00  0.00    +0.000 C 
ENDBRANCH  21  22
ENDBRANCH  16  20
TORSDOF 3
ENDMDL
MODEL 7
REMARK VINA RESULT:      -4.1     24.078     25.467
REMARK  Name = Dronabinol.pdbqt.pdb
REMARK  3 active torsions:
REMARK  status: ('A' for Active; 'I' for Inactive)
REMARK    1  A    between atoms: C_13  and  O_18
REMARK    2  A    between atoms: C_16  and  C_20
REMARK    3  A    between atoms: C_21  and  C_22
REMARK                            x       y       z     vdW  Elec       q    Type
REMARK                         _______ _______ _______ _____ _____    ______ ____
ROOT
ATOM      1  O   UNL     1       8.100   0.774  76.015  0.00  0.00    +0.000 OA
ATOM      2  C   UNL     1      10.416   1.348  75.396  0.00  0.00    +0.000 A 
ATOM      3  C   UNL     1      10.172   2.700  75.955  0.00  0.00    +0.000 A 
ATOM      4  C   UNL     1       9.426   0.266  75.739  0.00  0.00    +0.000 C 
ATOM      5  C   UNL     1      11.712   1.227  74.782  0.00  0.00    +0.000 A 
ATOM      6  C   UNL     1       8.944   2.977  76.696  0.00  0.00    +0.000 A 
ATOM      7  C   UNL     1      12.734   2.374  74.665  0.00  0.00    +0.000 A 
ATOM      8  C   UNL     1      11.270   3.612  75.716  0.00  0.00    +0.000 A 
ATOM      9  C   UNL     1      12.464   3.686  75.178  0.00  0.00    +0.000 A 
ATOM     10  C   UNL     1       7.967   1.970  76.679  0.00  0.00    +0.000 A 
ATOM     11  C   UNL     1       9.273  -0.691  74.525  0.00  0.00    +0.000 C 
ATOM     12  C   UNL     1       9.926  -0.519  76.987  0.00  0.00    +0.000 C 
ATOM     13  C   UNL     1       8.668   4.160  77.393  0.00  0.00    +0.000 A 
ATOM     14  C   UNL     1       6.738   2.161  77.312  0.00  0.00    +0.000 A 
ATOM     15  C   UNL     1      12.878   4.898  74.405  0.00  0.00    +0.000 C 
ATOM     16  C   UNL     1       6.482   3.343  77.998  0.00  0.00    +0.000 A 
ATOM     17  C   UNL     1       7.446   4.343  78.043  0.00  0.00    +0.000 A 
ENDROOT
BRANCH  13  18
ATOM     18  O   UNL     1       9.597   5.160  77.457  0.00  0.00    +0.000 OA
ATOM     19  H   UNL     1       9.187   5.998  77.174  0.00  0.00    +0.000 HD
ENDBRANCH  13  18
BRANCH  16  20
ATOM     20  C   UNL     1       5.237   3.523  78.665  0.00  0.00    +0.000 C 
ATOM     21  C   UNL     1       3.901   3.728  79.389  0.00  0.00    +0.000 C 
BRANCH  21  22
ATOM     22  C   UNL     1       2.570   3.942  80.116  0.00  0.00    +0.000 C 
ATOM     23  C   UNL     1       1.241   4.159  80.847  0.00  0.00    +0.000 C 
ATOM     24  C   UNL     1      -0.087   4.378  81.578  0.00  0.00    +0.000 C 
ENDBRANCH  21  22
ENDBRANCH  16  20
TORSDOF 3
ENDMDL
MODEL 8
REMARK VINA RESULT:      -4.0     25.153     27.803
REMARK  Name = Dronabinol.pdbqt.pdb
REMARK  3 active torsions:
REMARK  status: ('A' for Active; 'I' for Inactive)
REMARK    1  A    between atoms: C_13  and  O_18
REMARK    2  A    between atoms: C_16  and  C_20
REMARK    3  A    between atoms: C_21  and  C_22
REMARK                            x       y       z     vdW  Elec       q    Type
REMARK                         _______ _______ _______ _____ _____    ______ ____
ROOT
ATOM      1  O   UNL     1       1.941   6.343  77.841  0.00  0.00    +0.000 OA
ATOM      2  C   UNL     1       0.719   7.941  76.417  0.00  0.00    +0.000 A 
ATOM      3  C   UNL     1       1.784   7.766  75.400  0.00  0.00    +0.000 A 
ATOM      4  C   UNL     1       0.657   6.939  77.538  0.00  0.00    +0.000 C 
ATOM      5  C   UNL     1      -0.249   8.937  76.039  0.00  0.00    +0.000 A 
ATOM      6  C   UNL     1       2.802   6.733  75.575  0.00  0.00    +0.000 A 
ATOM      7  C   UNL     1      -0.184   9.774  74.747  0.00  0.00    +0.000 A 
ATOM      8  C   UNL     1       1.643   8.669  74.277  0.00  0.00    +0.000 A 
ATOM      9  C   UNL     1       0.877   9.617  73.794  0.00  0.00    +0.000 A 
ATOM     10  C   UNL     1       2.810   6.072  76.813  0.00  0.00    +0.000 A 
ATOM     11  C   UNL     1       0.200   7.654  78.839  0.00  0.00    +0.000 C 
ATOM     12  C   UNL     1      -0.341   5.804  77.166  0.00  0.00    +0.000 C 
ATOM     13  C   UNL     1       3.764   6.374  74.622  0.00  0.00    +0.000 A 
ATOM     14  C   UNL     1       3.778   5.107  77.096  0.00  0.00    +0.000 A 
ATOM     15  C   UNL     1       1.476  10.815  73.128  0.00  0.00    +0.000 C 
ATOM     16  C   UNL     1       4.725   4.764  76.138  0.00  0.00    +0.000 A 
ATOM     17  C   UNL     1       4.719   5.394  74.899  0.00  0.00    +0.000 A 
ENDROOT
BRANCH  13  18
ATOM     18  O   UNL     1       3.781   6.973  73.394  0.00  0.00    +0.000 OA
ATOM     19  H   UNL     1       4.534   7.590  73.348  0.00  0.00    +0.000 HD
ENDBRANCH  13  18
BRANCH  16  20
ATOM     20  C   UNL     1       5.694   3.760  76.422  0.00  0.00    +0.000 C 
ATOM     21  C   UNL     1       6.740   2.678  76.714  0.00  0.00    +0.000 C 
BRANCH  21  22
ATOM     22  C   UNL     1       7.790   1.600  76.997  0.00  0.00    +0.000 C 
ATOM     23  C   UNL     1       8.842   0.521  77.275  0.00  0.00    +0.000 C 
ATOM     24  C   UNL     1       9.896  -0.556  77.552  0.00  0.00    +0.000 C 
ENDBRANCH  21  22
ENDBRANCH  16  20
TORSDOF 3
ENDMDL
MODEL 9
REMARK VINA RESULT:      -4.0     23.352     24.972
REMARK  Name = Dronabinol.pdbqt.pdb
REMARK  3 active torsions:
REMARK  status: ('A' for Active; 'I' for Inactive)
REMARK    1  A    between atoms: C_13  and  O_18
REMARK    2  A    between atoms: C_16  and  C_20
REMARK    3  A    between atoms: C_21  and  C_22
REMARK                            x       y       z     vdW  Elec       q    Type
REMARK                         _______ _______ _______ _____ _____    ______ ____
ROOT
ATOM      1  O   UNL     1       7.109   1.929  78.046  0.00  0.00    +0.000 OA
ATOM      2  C   UNL     1       8.972   3.212  77.067  0.00  0.00    +0.000 A 
ATOM      3  C   UNL     1       9.315   2.005  76.276  0.00  0.00    +0.000 A 
ATOM      4  C   UNL     1       7.622   3.245  77.733  0.00  0.00    +0.000 C 
ATOM      5  C   UNL     1       9.917   4.282  76.885  0.00  0.00    +0.000 A 
ATOM      6  C   UNL     1       8.417   0.853  76.268  0.00  0.00    +0.000 A 
ATOM      7  C   UNL     1      11.179   4.193  76.005  0.00  0.00    +0.000 A 
ATOM      8  C   UNL     1      10.550   2.152  75.535  0.00  0.00    +0.000 A 
ATOM      9  C   UNL     1      11.515   3.003  75.278  0.00  0.00    +0.000 A 
ATOM     10  C   UNL     1       7.346   0.895  77.174  0.00  0.00    +0.000 A 
ATOM     11  C   UNL     1       7.738   3.993  79.089  0.00  0.00    +0.000 C 
ATOM     12  C   UNL     1       6.602   3.966  76.804  0.00  0.00    +0.000 C 
ATOM     13  C   UNL     1       8.555  -0.276  75.452  0.00  0.00    +0.000 A 
ATOM     14  C   UNL     1       6.464  -0.182  77.280  0.00  0.00    +0.000 A 
ATOM     15  C   UNL     1      12.936   2.542  75.200  0.00  0.00    +0.000 C 
ATOM     16  C   UNL     1       6.617  -1.295  76.461  0.00  0.00    +0.000 A 
ATOM     17  C   UNL     1       7.661  -1.344  75.544  0.00  0.00    +0.000 A 
ENDROOT
BRANCH  13  18
ATOM     18  O   UNL     1       9.569  -0.352  74.538  0.00  0.00    +0.000 OA
ATOM     19  H   UNL     1      10.374   0.043  74.919  0.00  0.00    +0.000 HD
ENDBRANCH  13  18
BRANCH  16  20
ATOM     20  C   UNL     1       5.699  -2.380  76.555  0.00  0.00    +0.000 C 
ATOM     21  C   UNL     1       4.701  -3.539  76.650  0.00  0.00    +0.000 C 
BRANCH  21  22
ATOM     22  C   UNL     1       3.697  -4.692  76.739  0.00  0.00    +0.000 C 
ATOM     23  C   UNL     1       2.692  -5.845  76.823  0.00  0.00    +0.000 C 
ATOM     24  C   UNL     1       1.690  -7.001  76.905  0.00  0.00    +0.000 C 
ENDBRANCH  21  22
ENDBRANCH  16  20
TORSDOF 3
ENDMDL
