MODEL 1
REMARK VINA RESULT:      -5.1      0.000      0.000
REMARK  Name = Ellipticine.pdbqt.pdb
REMARK  0 active torsions:
REMARK  status: ('A' for Active; 'I' for Inactive)
REMARK                            x       y       z     vdW  Elec       q    Type
REMARK                         _______ _______ _______ _____ _____    ______ ____
ROOT
ATOM      1  N   UNL     1      20.159   1.229  54.857  0.00  0.00    +0.000 N 
ATOM      2  N   UNL     1      16.059   3.221  50.335  0.00  0.00    +0.000 NA
ATOM      3  C   UNL     1      18.075   0.875  54.116  0.00  0.00    +0.000 A 
ATOM      4  C   UNL     1      19.239   1.620  53.906  0.00  0.00    +0.000 A 
ATOM      5  C   UNL     1      16.969   1.096  53.256  0.00  0.00    +0.000 A 
ATOM      6  C   UNL     1      18.336   0.014  55.240  0.00  0.00    +0.000 A 
ATOM      7  C   UNL     1      19.361   2.575  52.885  0.00  0.00    +0.000 A 
ATOM      8  C   UNL     1      18.262   2.793  52.032  0.00  0.00    +0.000 A 
ATOM      9  C   UNL     1      17.074   2.055  52.221  0.00  0.00    +0.000 A 
ATOM     10  C   UNL     1      19.636   0.260  55.673  0.00  0.00    +0.000 A 
ATOM     11  C   UNL     1      15.693   0.306  53.454  0.00  0.00    +0.000 C 
ATOM     12  C   UNL     1      17.577  -0.955  55.927  0.00  0.00    +0.000 A 
ATOM     13  C   UNL     1      20.666   3.324  52.749  0.00  0.00    +0.000 C 
ATOM     14  C   UNL     1      20.221  -0.407  56.755  0.00  0.00    +0.000 A 
ATOM     15  C   UNL     1      18.311   3.732  50.990  0.00  0.00    +0.000 A 
ATOM     16  C   UNL     1      16.024   2.321  51.341  0.00  0.00    +0.000 A 
ATOM     17  C   UNL     1      18.142  -1.633  57.010  0.00  0.00    +0.000 A 
ATOM     18  C   UNL     1      19.443  -1.360  57.414  0.00  0.00    +0.000 A 
ATOM     19  C   UNL     1      17.204   3.908  50.181  0.00  0.00    +0.000 A 
ATOM     20  H   UNL     1      21.094   1.614  54.932  0.00  0.00    +0.000 HD
ENDROOT
TORSDOF 0
ENDMDL
MODEL 2
REMARK VINA RESULT:      -5.0      1.675      4.107
REMARK  Name = Ellipticine.pdbqt.pdb
REMARK  0 active torsions:
REMARK  status: ('A' for Active; 'I' for Inactive)
REMARK                            x       y       z     vdW  Elec       q    Type
REMARK                         _______ _______ _______ _____ _____    ______ ____
ROOT
ATOM      1  N   UNL     1      19.635   0.226  55.689  0.00  0.00    +0.000 N 
ATOM      2  N   UNL     1      14.313   0.314  52.098  0.00  0.00    +0.000 NA
ATOM      3  C   UNL     1      18.743   1.273  53.921  0.00  0.00    +0.000 A 
ATOM      4  C   UNL     1      18.515   0.287  54.886  0.00  0.00    +0.000 A 
ATOM      5  C   UNL     1      17.726   1.528  52.966  0.00  0.00    +0.000 A 
ATOM      6  C   UNL     1      20.055   1.806  54.180  0.00  0.00    +0.000 A 
ATOM      7  C   UNL     1      17.328  -0.460  54.949  0.00  0.00    +0.000 A 
ATOM      8  C   UNL     1      16.320  -0.204  54.000  0.00  0.00    +0.000 A 
ATOM      9  C   UNL     1      16.523   0.786  53.015  0.00  0.00    +0.000 A 
ATOM     10  C   UNL     1      20.578   1.134  55.282  0.00  0.00    +0.000 A 
ATOM     11  C   UNL     1      17.939   2.589  51.907  0.00  0.00    +0.000 C 
ATOM     12  C   UNL     1      20.843   2.803  53.571  0.00  0.00    +0.000 A 
ATOM     13  C   UNL     1      17.189  -1.501  56.034  0.00  0.00    +0.000 C 
ATOM     14  C   UNL     1      21.845   1.403  55.810  0.00  0.00    +0.000 A 
ATOM     15  C   UNL     1      15.108  -0.911  54.003  0.00  0.00    +0.000 A 
ATOM     16  C   UNL     1      15.484   0.987  52.106  0.00  0.00    +0.000 A 
ATOM     17  C   UNL     1      22.112   3.087  54.083  0.00  0.00    +0.000 A 
ATOM     18  C   UNL     1      22.601   2.396  55.185  0.00  0.00    +0.000 A 
ATOM     19  C   UNL     1      14.150  -0.623  53.048  0.00  0.00    +0.000 A 
ATOM     20  H   UNL     1      19.737  -0.409  56.472  0.00  0.00    +0.000 HD
ENDROOT
TORSDOF 0
ENDMDL
MODEL 3
REMARK VINA RESULT:      -5.0      1.191      2.979
REMARK  Name = Ellipticine.pdbqt.pdb
REMARK  0 active torsions:
REMARK  status: ('A' for Active; 'I' for Inactive)
REMARK                            x       y       z     vdW  Elec       q    Type
REMARK                         _______ _______ _______ _____ _____    ______ ____
ROOT
ATOM      1  N   UNL     1      17.488   0.081  54.643  0.00  0.00    +0.000 N 
ATOM      2  N   UNL     1      16.758   4.016  49.622  0.00  0.00    +0.000 NA
ATOM      3  C   UNL     1      18.591   1.647  53.481  0.00  0.00    +0.000 A 
ATOM      4  C   UNL     1      17.385   0.946  53.573  0.00  0.00    +0.000 A 
ATOM      5  C   UNL     1      18.734   2.608  52.448  0.00  0.00    +0.000 A 
ATOM      6  C   UNL     1      19.430   1.164  54.547  0.00  0.00    +0.000 A 
ATOM      7  C   UNL     1      16.313   1.151  52.691  0.00  0.00    +0.000 A 
ATOM      8  C   UNL     1      16.458   2.106  51.666  0.00  0.00    +0.000 A 
ATOM      9  C   UNL     1      17.664   2.828  51.549  0.00  0.00    +0.000 A 
ATOM     10  C   UNL     1      18.714   0.195  55.246  0.00  0.00    +0.000 A 
ATOM     11  C   UNL     1      20.027   3.385  52.319  0.00  0.00    +0.000 C 
ATOM     12  C   UNL     1      20.737   1.467  54.978  0.00  0.00    +0.000 A 
ATOM     13  C   UNL     1      15.055   0.338  52.883  0.00  0.00    +0.000 C 
ATOM     14  C   UNL     1      19.231  -0.489  56.352  0.00  0.00    +0.000 A 
ATOM     15  C   UNL     1      15.429   2.364  50.747  0.00  0.00    +0.000 A 
ATOM     16  C   UNL     1      17.740   3.758  50.512  0.00  0.00    +0.000 A 
ATOM     17  C   UNL     1      21.272   0.797  56.080  0.00  0.00    +0.000 A 
ATOM     18  C   UNL     1      20.529  -0.164  56.753  0.00  0.00    +0.000 A 
ATOM     19  C   UNL     1      15.621   3.312  49.759  0.00  0.00    +0.000 A 
ATOM     20  H   UNL     1      16.751  -0.550  54.935  0.00  0.00    +0.000 HD
ENDROOT
TORSDOF 0
ENDMDL
MODEL 4
REMARK VINA RESULT:      -4.9      1.594      5.807
REMARK  Name = Ellipticine.pdbqt.pdb
REMARK  0 active torsions:
REMARK  status: ('A' for Active; 'I' for Inactive)
REMARK                            x       y       z     vdW  Elec       q    Type
REMARK                         _______ _______ _______ _____ _____    ______ ____
ROOT
ATOM      1  N   UNL     1      15.994  -0.063  53.524  0.00  0.00    +0.000 N 
ATOM      2  N   UNL     1      21.795   1.636  55.689  0.00  0.00    +0.000 NA
ATOM      3  C   UNL     1      17.698   1.311  53.048  0.00  0.00    +0.000 A 
ATOM      4  C   UNL     1      17.244   0.339  53.945  0.00  0.00    +0.000 A 
ATOM      5  C   UNL     1      18.976   1.887  53.268  0.00  0.00    +0.000 A 
ATOM      6  C   UNL     1      16.661   1.477  52.063  0.00  0.00    +0.000 A 
ATOM      7  C   UNL     1      17.996  -0.090  55.051  0.00  0.00    +0.000 A 
ATOM      8  C   UNL     1      19.263   0.484  55.267  0.00  0.00    +0.000 A 
ATOM      9  C   UNL     1      19.747   1.467  54.377  0.00  0.00    +0.000 A 
ATOM     10  C   UNL     1      15.621   0.611  52.389  0.00  0.00    +0.000 A 
ATOM     11  C   UNL     1      19.498   2.941  52.316  0.00  0.00    +0.000 C 
ATOM     12  C   UNL     1      16.517   2.290  50.921  0.00  0.00    +0.000 A 
ATOM     13  C   UNL     1      17.407  -1.146  55.956  0.00  0.00    +0.000 C 
ATOM     14  C   UNL     1      14.444   0.511  51.639  0.00  0.00    +0.000 A 
ATOM     15  C   UNL     1      20.070   0.104  56.351  0.00  0.00    +0.000 A 
ATOM     16  C   UNL     1      21.010   1.992  54.650  0.00  0.00    +0.000 A 
ATOM     17  C   UNL     1      15.351   2.207  50.157  0.00  0.00    +0.000 A 
ATOM     18  C   UNL     1      14.334   1.330  50.514  0.00  0.00    +0.000 A 
ATOM     19  C   UNL     1      21.307   0.697  56.519  0.00  0.00    +0.000 A 
ATOM     20  H   UNL     1      15.434  -0.763  53.998  0.00  0.00    +0.000 HD
ENDROOT
TORSDOF 0
ENDMDL
MODEL 5
REMARK VINA RESULT:      -4.8      1.870      4.167
REMARK  Name = Ellipticine.pdbqt.pdb
REMARK  0 active torsions:
REMARK  status: ('A' for Active; 'I' for Inactive)
REMARK                            x       y       z     vdW  Elec       q    Type
REMARK                         _______ _______ _______ _____ _____    ______ ____
ROOT
ATOM      1  N   UNL     1      20.533   0.631  55.940  0.00  0.00    +0.000 N 
ATOM      2  N   UNL     1      15.408   0.839  52.076  0.00  0.00    +0.000 NA
ATOM      3  C   UNL     1      19.762   1.691  54.124  0.00  0.00    +0.000 A 
ATOM      4  C   UNL     1      19.458   0.716  55.079  0.00  0.00    +0.000 A 
ATOM      5  C   UNL     1      18.803   1.968  53.116  0.00  0.00    +0.000 A 
ATOM      6  C   UNL     1      21.072   2.191  54.448  0.00  0.00    +0.000 A 
ATOM      7  C   UNL     1      18.250   0.002  55.084  0.00  0.00    +0.000 A 
ATOM      8  C   UNL     1      17.300   0.279  54.083  0.00  0.00    +0.000 A 
ATOM      9  C   UNL     1      17.579   1.258  53.105  0.00  0.00    +0.000 A 
ATOM     10  C   UNL     1      21.520   1.512  55.579  0.00  0.00    +0.000 A 
ATOM     11  C   UNL     1      19.099   3.017  52.066  0.00  0.00    +0.000 C 
ATOM     12  C   UNL     1      21.918   3.163  53.878  0.00  0.00    +0.000 A 
ATOM     13  C   UNL     1      18.027  -1.030  56.165  0.00  0.00    +0.000 C 
ATOM     14  C   UNL     1      22.765   1.749  56.172  0.00  0.00    +0.000 A 
ATOM     15  C   UNL     1      16.071  -0.396  54.025  0.00  0.00    +0.000 A 
ATOM     16  C   UNL     1      16.595   1.481  52.143  0.00  0.00    +0.000 A 
ATOM     17  C   UNL     1      23.165   3.417  54.453  0.00  0.00    +0.000 A 
ATOM     18  C   UNL     1      23.578   2.719  55.582  0.00  0.00    +0.000 A 
ATOM     19  C   UNL     1      15.172  -0.088  53.021  0.00  0.00    +0.000 A 
ATOM     20  H   UNL     1      20.577  -0.003  56.730  0.00  0.00    +0.000 HD
ENDROOT
TORSDOF 0
ENDMDL
MODEL 6
REMARK VINA RESULT:      -4.8      1.463      6.196
REMARK  Name = Ellipticine.pdbqt.pdb
REMARK  0 active torsions:
REMARK  status: ('A' for Active; 'I' for Inactive)
REMARK                            x       y       z     vdW  Elec       q    Type
REMARK                         _______ _______ _______ _____ _____    ______ ____
ROOT
ATOM      1  N   UNL     1      16.992   0.793  53.400  0.00  0.00    +0.000 N 
ATOM      2  N   UNL     1      22.228   0.523  57.107  0.00  0.00    +0.000 NA
ATOM      3  C   UNL     1      19.026   1.706  53.611  0.00  0.00    +0.000 A 
ATOM      4  C   UNL     1      18.141   0.775  54.163  0.00  0.00    +0.000 A 
ATOM      5  C   UNL     1      20.294   1.876  54.225  0.00  0.00    +0.000 A 
ATOM      6  C   UNL     1      18.357   2.287  52.477  0.00  0.00    +0.000 A 
ATOM      7  C   UNL     1      18.450   0.004  55.294  0.00  0.00    +0.000 A 
ATOM      8  C   UNL     1      19.709   0.174  55.901  0.00  0.00    +0.000 A 
ATOM      9  C   UNL     1      20.623   1.107  55.366  0.00  0.00    +0.000 A 
ATOM     10  C   UNL     1      17.099   1.698  52.376  0.00  0.00    +0.000 A 
ATOM     11  C   UNL     1      21.277   2.875  53.654  0.00  0.00    +0.000 C 
ATOM     12  C   UNL     1      18.713   3.265  51.526  0.00  0.00    +0.000 A 
ATOM     13  C   UNL     1      17.418  -0.973  55.806  0.00  0.00    +0.000 C 
ATOM     14  C   UNL     1      16.176   2.031  51.378  0.00  0.00    +0.000 A 
ATOM     15  C   UNL     1      20.087  -0.562  57.034  0.00  0.00    +0.000 A 
ATOM     16  C   UNL     1      21.851   1.225  56.016  0.00  0.00    +0.000 A 
ATOM     17  C   UNL     1      17.807   3.612  50.521  0.00  0.00    +0.000 A 
ATOM     18  C   UNL     1      16.560   3.003  50.452  0.00  0.00    +0.000 A 
ATOM     19  C   UNL     1      21.335  -0.358  57.593  0.00  0.00    +0.000 A 
ATOM     20  H   UNL     1      16.182   0.210  53.580  0.00  0.00    +0.000 HD
ENDROOT
TORSDOF 0
ENDMDL
MODEL 7
REMARK VINA RESULT:      -4.7      1.676      5.540
REMARK  Name = Ellipticine.pdbqt.pdb
REMARK  0 active torsions:
REMARK  status: ('A' for Active; 'I' for Inactive)
REMARK                            x       y       z     vdW  Elec       q    Type
REMARK                         _______ _______ _______ _____ _____    ______ ____
ROOT
ATOM      1  N   UNL     1      20.649   2.248  54.071  0.00  0.00    +0.000 N 
ATOM      2  N   UNL     1      16.995  -2.188  56.934  0.00  0.00    +0.000 NA
ATOM      3  C   UNL     1      18.656   1.243  53.878  0.00  0.00    +0.000 A 
ATOM      4  C   UNL     1      19.824   1.304  54.645  0.00  0.00    +0.000 A 
ATOM      5  C   UNL     1      17.639   0.335  54.270  0.00  0.00    +0.000 A 
ATOM      6  C   UNL     1      18.815   2.196  52.811  0.00  0.00    +0.000 A 
ATOM      7  C   UNL     1      20.033   0.509  55.783  0.00  0.00    +0.000 A 
ATOM      8  C   UNL     1      19.022  -0.392  56.170  0.00  0.00    +0.000 A 
ATOM      9  C   UNL     1      17.833  -0.474  55.414  0.00  0.00    +0.000 A 
ATOM     10  C   UNL     1      20.062   2.800  52.962  0.00  0.00    +0.000 A 
ATOM     11  C   UNL     1      16.363   0.243  53.463  0.00  0.00    +0.000 C 
ATOM     12  C   UNL     1      18.007   2.598  51.729  0.00  0.00    +0.000 A 
ATOM     13  C   UNL     1      21.333   0.657  56.538  0.00  0.00    +0.000 C 
ATOM     14  C   UNL     1      20.545   3.783  52.091  0.00  0.00    +0.000 A 
ATOM     15  C   UNL     1      19.161  -1.218  57.295  0.00  0.00    +0.000 A 
ATOM     16  C   UNL     1      16.873  -1.387  55.853  0.00  0.00    +0.000 A 
ATOM     17  C   UNL     1      18.470   3.578  50.848  0.00  0.00    +0.000 A 
ATOM     18  C   UNL     1      19.720   4.159  51.030  0.00  0.00    +0.000 A 
ATOM     19  C   UNL     1      18.139  -2.086  57.633  0.00  0.00    +0.000 A 
ATOM     20  H   UNL     1      21.566   2.493  54.428  0.00  0.00    +0.000 HD
ENDROOT
TORSDOF 0
ENDMDL
MODEL 8
REMARK VINA RESULT:      -4.6     21.635     24.272
REMARK  Name = Ellipticine.pdbqt.pdb
REMARK  0 active torsions:
REMARK  status: ('A' for Active; 'I' for Inactive)
REMARK                            x       y       z     vdW  Elec       q    Type
REMARK                         _______ _______ _______ _____ _____    ______ ____
ROOT
ATOM      1  N   UNL     1      10.478   4.455  76.454  0.00  0.00    +0.000 N 
ATOM      2  N   UNL     1       7.001  -0.944  76.497  0.00  0.00    +0.000 NA
ATOM      3  C   UNL     1      10.492   2.366  75.643  0.00  0.00    +0.000 A 
ATOM      4  C   UNL     1       9.771   3.271  76.429  0.00  0.00    +0.000 A 
ATOM      5  C   UNL     1       9.965   1.062  75.463  0.00  0.00    +0.000 A 
ATOM      6  C   UNL     1      11.669   3.061  75.193  0.00  0.00    +0.000 A 
ATOM      7  C   UNL     1       8.552   2.944  77.045  0.00  0.00    +0.000 A 
ATOM      8  C   UNL     1       8.032   1.649  76.865  0.00  0.00    +0.000 A 
ATOM      9  C   UNL     1       8.738   0.715  76.077  0.00  0.00    +0.000 A 
ATOM     10  C   UNL     1      11.628   4.352  75.714  0.00  0.00    +0.000 A 
ATOM     11  C   UNL     1      10.720   0.058  74.619  0.00  0.00    +0.000 C 
ATOM     12  C   UNL     1      12.769   2.703  74.387  0.00  0.00    +0.000 A 
ATOM     13  C   UNL     1       7.858   4.000  77.873  0.00  0.00    +0.000 C 
ATOM     14  C   UNL     1      12.623   5.306  75.475  0.00  0.00    +0.000 A 
ATOM     15  C   UNL     1       6.820   1.252  77.450  0.00  0.00    +0.000 A 
ATOM     16  C   UNL     1       8.166  -0.549  75.939  0.00  0.00    +0.000 A 
ATOM     17  C   UNL     1      13.773   3.641  74.136  0.00  0.00    +0.000 A 
ATOM     18  C   UNL     1      13.698   4.920  74.673  0.00  0.00    +0.000 A 
ATOM     19  C   UNL     1       6.352  -0.032  77.242  0.00  0.00    +0.000 A 
ATOM     20  H   UNL     1      10.178   5.284  76.954  0.00  0.00    +0.000 HD
ENDROOT
TORSDOF 0
ENDMDL
MODEL 9
REMARK VINA RESULT:      -4.6     21.620     23.842
REMARK  Name = Ellipticine.pdbqt.pdb
REMARK  0 active torsions:
REMARK  status: ('A' for Active; 'I' for Inactive)
REMARK                            x       y       z     vdW  Elec       q    Type
REMARK                         _______ _______ _______ _____ _____    ______ ____
ROOT
ATOM      1  N   UNL     1       8.380   2.503  77.009  0.00  0.00    +0.000 N 
ATOM      2  N   UNL     1      13.923   4.551  74.496  0.00  0.00    +0.000 NA
ATOM      3  C   UNL     1      10.067   1.807  75.711  0.00  0.00    +0.000 A 
ATOM      4  C   UNL     1       9.577   2.891  76.444  0.00  0.00    +0.000 A 
ATOM      5  C   UNL     1      11.302   1.958  75.028  0.00  0.00    +0.000 A 
ATOM      6  C   UNL     1       9.109   0.743  75.859  0.00  0.00    +0.000 A 
ATOM      7  C   UNL     1      10.251   4.120  76.534  0.00  0.00    +0.000 A 
ATOM      8  C   UNL     1      11.476   4.267  75.856  0.00  0.00    +0.000 A 
ATOM      9  C   UNL     1      11.995   3.189  75.108  0.00  0.00    +0.000 A 
ATOM     10  C   UNL     1       8.076   1.210  76.669  0.00  0.00    +0.000 A 
ATOM     11  C   UNL     1      11.862   0.804  74.225  0.00  0.00    +0.000 C 
ATOM     12  C   UNL     1       9.029  -0.578  75.374  0.00  0.00    +0.000 A 
ATOM     13  C   UNL     1       9.629   5.225  77.355  0.00  0.00    +0.000 C 
ATOM     14  C   UNL     1       6.969   0.431  77.022  0.00  0.00    +0.000 A 
ATOM     15  C   UNL     1      12.204   5.465  75.901  0.00  0.00    +0.000 A 
ATOM     16  C   UNL     1      13.212   3.403  74.461  0.00  0.00    +0.000 A 
ATOM     17  C   UNL     1       7.932  -1.373  75.714  0.00  0.00    +0.000 A 
ATOM     18  C   UNL     1       6.921  -0.873  76.525  0.00  0.00    +0.000 A 
ATOM     19  C   UNL     1      13.402   5.560  75.217  0.00  0.00    +0.000 A 
ATOM     20  H   UNL     1       7.809   3.102  77.595  0.00  0.00    +0.000 HD
ENDROOT
TORSDOF 0
ENDMDL
