MODEL 1
REMARK VINA RESULT:      -4.4      0.000      0.000
REMARK  Name = Enterolactone.pdbqt.pdb
REMARK  2 active torsions:
REMARK  status: ('A' for Active; 'I' for Inactive)
REMARK    1  A    between atoms: C_10  and  O_14
REMARK    2  A    between atoms: C_19  and  O_23
REMARK                            x       y       z     vdW  Elec       q    Type
REMARK                         _______ _______ _______ _____ _____    ______ ____
ROOT
ATOM      1  O   UNL     1       3.410   3.336  62.914  0.00  0.00    +0.000 OA
ATOM      2  O   UNL     1       3.896   1.325  61.840  0.00  0.00    +0.000 OA
ATOM      3  C   UNL     1       5.046   4.720  61.901  0.00  0.00    +0.000 C 
ATOM      4  C   UNL     1       5.148   3.382  61.370  0.00  0.00    +0.000 C 
ATOM      5  C   UNL     1       3.978   4.524  62.777  0.00  0.00    +0.000 C 
ATOM      6  C   UNL     1       4.101   2.508  62.037  0.00  0.00    +0.000 C 
ATOM      7  C   UNL     1       5.515   5.896  61.285  0.00  0.00    +0.000 C 
ATOM      8  C   UNL     1       6.004   7.075  60.652  0.00  0.00    +0.000 C 
ATOM      9  C   UNL     1       6.035   7.152  59.261  0.00  0.00    +0.000 C 
ATOM     10  C   UNL     1       6.525   8.304  58.655  0.00  0.00    +0.000 C 
ATOM     11  C   UNL     1       6.980   9.375  59.417  0.00  0.00    +0.000 C 
ATOM     12  C   UNL     1       6.947   9.292  60.806  0.00  0.00    +0.000 C 
ATOM     13  C   UNL     1       6.458   8.142  61.425  0.00  0.00    +0.000 C 
ATOM     14  C   UNL     1       6.018   2.965  60.338  0.00  0.00    +0.000 C 
ATOM     15  C   UNL     1       6.896   2.555  59.293  0.00  0.00    +0.000 C 
ATOM     16  C   UNL     1       8.190   3.063  59.236  0.00  0.00    +0.000 C 
ATOM     17  C   UNL     1       9.033   2.663  58.204  0.00  0.00    +0.000 C 
ATOM     18  C   UNL     1       8.600   1.766  57.234  0.00  0.00    +0.000 C 
ATOM     19  C   UNL     1       7.304   1.260  57.297  0.00  0.00    +0.000 C 
ATOM     20  C   UNL     1       6.450   1.654  58.327  0.00  0.00    +0.000 C 
ENDROOT
BRANCH  10  21
ATOM     21  O   UNL     1       6.569   8.412  57.295  0.00  0.00    +0.000 OA
ATOM     22  H   UNL     1       7.422   8.062  56.984  0.00  0.00    +0.000 HD
ENDBRANCH  10  21
BRANCH  17  23
ATOM     23  O   UNL     1      10.307   3.143  58.118  0.00  0.00    +0.000 OA
ATOM     24  H   UNL     1      10.919   2.455  58.434  0.00  0.00    +0.000 HD
ENDBRANCH  17  23
TORSDOF 2
ENDMDL
MODEL 2
REMARK VINA RESULT:      -4.3      2.063      5.104
REMARK  Name = Enterolactone.pdbqt.pdb
REMARK  2 active torsions:
REMARK  status: ('A' for Active; 'I' for Inactive)
REMARK    1  A    between atoms: C_10  and  O_14
REMARK    2  A    between atoms: C_19  and  O_23
REMARK                            x       y       z     vdW  Elec       q    Type
REMARK                         _______ _______ _______ _____ _____    ______ ____
ROOT
ATOM      1  O   UNL     1       8.269   3.892  57.417  0.00  0.00    +0.000 OA
ATOM      2  O   UNL     1       7.349   1.994  58.410  0.00  0.00    +0.000 OA
ATOM      3  C   UNL     1       7.022   5.562  58.548  0.00  0.00    +0.000 C 
ATOM      4  C   UNL     1       6.622   4.257  59.017  0.00  0.00    +0.000 C 
ATOM      5  C   UNL     1       7.997   5.170  57.629  0.00  0.00    +0.000 C 
ATOM      6  C   UNL     1       7.422   3.202  58.276  0.00  0.00    +0.000 C 
ATOM      7  C   UNL     1       6.853   6.779  59.233  0.00  0.00    +0.000 C 
ATOM      8  C   UNL     1       6.666   8.004  59.938  0.00  0.00    +0.000 C 
ATOM      9  C   UNL     1       6.682   8.011  61.330  0.00  0.00    +0.000 C 
ATOM     10  C   UNL     1       6.487   9.212  62.006  0.00  0.00    +0.000 C 
ATOM     11  C   UNL     1       6.278  10.398  61.311  0.00  0.00    +0.000 C 
ATOM     12  C   UNL     1       6.263  10.384  59.918  0.00  0.00    +0.000 C 
ATOM     13  C   UNL     1       6.457   9.187  59.231  0.00  0.00    +0.000 C 
ATOM     14  C   UNL     1       5.700   3.999  60.056  0.00  0.00    +0.000 C 
ATOM     15  C   UNL     1       4.772   3.748  61.108  0.00  0.00    +0.000 C 
ATOM     16  C   UNL     1       3.634   4.539  61.231  0.00  0.00    +0.000 C 
ATOM     17  C   UNL     1       2.741   4.290  62.270  0.00  0.00    +0.000 C 
ATOM     18  C   UNL     1       2.973   3.266  63.182  0.00  0.00    +0.000 C 
ATOM     19  C   UNL     1       4.114   2.477  63.052  0.00  0.00    +0.000 C 
ATOM     20  C   UNL     1       5.015   2.718  62.016  0.00  0.00    +0.000 C 
ENDROOT
BRANCH  10  21
ATOM     21  O   UNL     1       6.497   9.253  63.370  0.00  0.00    +0.000 OA
ATOM     22  H   UNL     1       7.227   9.829  63.658  0.00  0.00    +0.000 HD
ENDBRANCH  10  21
BRANCH  17  23
ATOM     23  O   UNL     1       1.617   5.047  62.420  0.00  0.00    +0.000 OA
ATOM     24  H   UNL     1       1.289   5.293  61.536  0.00  0.00    +0.000 HD
ENDBRANCH  17  23
TORSDOF 2
ENDMDL
MODEL 3
REMARK VINA RESULT:      -4.2      4.416      8.175
REMARK  Name = Enterolactone.pdbqt.pdb
REMARK  2 active torsions:
REMARK  status: ('A' for Active; 'I' for Inactive)
REMARK    1  A    between atoms: C_10  and  O_14
REMARK    2  A    between atoms: C_19  and  O_23
REMARK                            x       y       z     vdW  Elec       q    Type
REMARK                         _______ _______ _______ _____ _____    ______ ____
ROOT
ATOM      1  O   UNL     1       2.635   1.253  66.476  0.00  0.00    +0.000 OA
ATOM      2  O   UNL     1       1.851   2.439  68.323  0.00  0.00    +0.000 OA
ATOM      3  C   UNL     1       2.759   3.024  64.905  0.00  0.00    +0.000 C 
ATOM      4  C   UNL     1       2.291   3.532  66.172  0.00  0.00    +0.000 C 
ATOM      5  C   UNL     1       2.924   1.684  65.258  0.00  0.00    +0.000 C 
ATOM      6  C   UNL     1       2.208   2.385  67.161  0.00  0.00    +0.000 C 
ATOM      7  C   UNL     1       3.361   3.776  63.879  0.00  0.00    +0.000 C 
ATOM      8  C   UNL     1       3.962   4.555  62.847  0.00  0.00    +0.000 C 
ATOM      9  C   UNL     1       4.714   5.680  63.178  0.00  0.00    +0.000 C 
ATOM     10  C   UNL     1       5.286   6.438  62.161  0.00  0.00    +0.000 C 
ATOM     11  C   UNL     1       5.116   6.087  60.826  0.00  0.00    +0.000 C 
ATOM     12  C   UNL     1       4.364   4.961  60.502  0.00  0.00    +0.000 C 
ATOM     13  C   UNL     1       3.786   4.195  61.513  0.00  0.00    +0.000 C 
ATOM     14  C   UNL     1       2.032   4.888  66.474  0.00  0.00    +0.000 C 
ATOM     15  C   UNL     1       1.778   6.258  66.772  0.00  0.00    +0.000 C 
ATOM     16  C   UNL     1       1.185   7.077  65.815  0.00  0.00    +0.000 C 
ATOM     17  C   UNL     1       0.952   8.416  66.115  0.00  0.00    +0.000 C 
ATOM     18  C   UNL     1       1.304   8.943  67.353  0.00  0.00    +0.000 C 
ATOM     19  C   UNL     1       1.896   8.118  68.306  0.00  0.00    +0.000 C 
ATOM     20  C   UNL     1       2.134   6.775  68.017  0.00  0.00    +0.000 C 
ENDROOT
BRANCH  10  21
ATOM     21  O   UNL     1       6.028   7.546  62.450  0.00  0.00    +0.000 OA
ATOM     22  H   UNL     1       6.335   7.482  63.371  0.00  0.00    +0.000 HD
ENDBRANCH  10  21
BRANCH  17  23
ATOM     23  O   UNL     1       0.374   9.245  65.199  0.00  0.00    +0.000 OA
ATOM     24  H   UNL     1       0.130  10.076  65.646  0.00  0.00    +0.000 HD
ENDBRANCH  17  23
TORSDOF 2
ENDMDL
MODEL 4
REMARK VINA RESULT:      -4.1      8.440     11.764
REMARK  Name = Enterolactone.pdbqt.pdb
REMARK  2 active torsions:
REMARK  status: ('A' for Active; 'I' for Inactive)
REMARK    1  A    between atoms: C_10  and  O_14
REMARK    2  A    between atoms: C_19  and  O_23
REMARK                            x       y       z     vdW  Elec       q    Type
REMARK                         _______ _______ _______ _____ _____    ______ ____
ROOT
ATOM      1  O   UNL     1       2.680   1.714  67.214  0.00  0.00    +0.000 OA
ATOM      2  O   UNL     1       1.214   0.531  68.587  0.00  0.00    +0.000 OA
ATOM      3  C   UNL     1       1.633   3.840  67.273  0.00  0.00    +0.000 C 
ATOM      4  C   UNL     1       0.886   2.909  68.085  0.00  0.00    +0.000 C 
ATOM      5  C   UNL     1       2.652   2.986  66.849  0.00  0.00    +0.000 C 
ATOM      6  C   UNL     1       1.565   1.553  68.028  0.00  0.00    +0.000 C 
ATOM      7  C   UNL     1       1.605   5.243  67.378  0.00  0.00    +0.000 C 
ATOM      8  C   UNL     1       1.557   6.663  67.492  0.00  0.00    +0.000 C 
ATOM      9  C   UNL     1       1.322   7.250  68.734  0.00  0.00    +0.000 C 
ATOM     10  C   UNL     1       1.268   8.637  68.830  0.00  0.00    +0.000 C 
ATOM     11  C   UNL     1       1.445   9.439  67.708  0.00  0.00    +0.000 C 
ATOM     12  C   UNL     1       1.680   8.847  66.470  0.00  0.00    +0.000 C 
ATOM     13  C   UNL     1       1.736   7.458  66.362  0.00  0.00    +0.000 C 
ATOM     14  C   UNL     1      -0.242   3.223  68.875  0.00  0.00    +0.000 C 
ATOM     15  C   UNL     1      -1.377   3.548  69.674  0.00  0.00    +0.000 C 
ATOM     16  C   UNL     1      -2.324   4.448  69.196  0.00  0.00    +0.000 C 
ATOM     17  C   UNL     1      -3.422   4.766  69.991  0.00  0.00    +0.000 C 
ATOM     18  C   UNL     1      -3.582   4.198  71.250  0.00  0.00    +0.000 C 
ATOM     19  C   UNL     1      -2.630   3.296  71.721  0.00  0.00    +0.000 C 
ATOM     20  C   UNL     1      -1.526   2.971  70.935  0.00  0.00    +0.000 C 
ENDROOT
BRANCH  10  21
ATOM     21  O   UNL     1       1.039   9.243  70.031  0.00  0.00    +0.000 OA
ATOM     22  H   UNL     1       0.122   9.570  70.044  0.00  0.00    +0.000 HD
ENDBRANCH  10  21
BRANCH  17  23
ATOM     23  O   UNL     1      -4.368   5.646  69.554  0.00  0.00    +0.000 OA
ATOM     24  H   UNL     1      -4.452   6.361  70.210  0.00  0.00    +0.000 HD
ENDBRANCH  17  23
TORSDOF 2
ENDMDL
MODEL 5
REMARK VINA RESULT:      -4.1     13.237     14.913
REMARK  Name = Enterolactone.pdbqt.pdb
REMARK  2 active torsions:
REMARK  status: ('A' for Active; 'I' for Inactive)
REMARK    1  A    between atoms: C_10  and  O_14
REMARK    2  A    between atoms: C_19  and  O_23
REMARK                            x       y       z     vdW  Elec       q    Type
REMARK                         _______ _______ _______ _____ _____    ______ ____
ROOT
ATOM      1  O   UNL     1      18.993  -1.941  57.611  0.00  0.00    +0.000 OA
ATOM      2  O   UNL     1      19.970   0.131  57.178  0.00  0.00    +0.000 OA
ATOM      3  C   UNL     1      17.436  -2.014  55.825  0.00  0.00    +0.000 C 
ATOM      4  C   UNL     1      18.190  -0.786  55.760  0.00  0.00    +0.000 C 
ATOM      5  C   UNL     1      18.037  -2.576  56.952  0.00  0.00    +0.000 C 
ATOM      6  C   UNL     1      19.174  -0.752  56.915  0.00  0.00    +0.000 C 
ATOM      7  C   UNL     1      16.748  -2.625  54.760  0.00  0.00    +0.000 C 
ATOM      8  C   UNL     1      16.050  -3.224  53.671  0.00  0.00    +0.000 C 
ATOM      9  C   UNL     1      16.527  -3.066  52.372  0.00  0.00    +0.000 C 
ATOM     10  C   UNL     1      15.830  -3.648  51.317  0.00  0.00    +0.000 C 
ATOM     11  C   UNL     1      14.670  -4.381  51.544  0.00  0.00    +0.000 C 
ATOM     12  C   UNL     1      14.199  -4.536  52.845  0.00  0.00    +0.000 C 
ATOM     13  C   UNL     1      14.889  -3.957  53.910  0.00  0.00    +0.000 C 
ATOM     14  C   UNL     1      18.095   0.190  54.743  0.00  0.00    +0.000 C 
ATOM     15  C   UNL     1      17.996   1.167  53.710  0.00  0.00    +0.000 C 
ATOM     16  C   UNL     1      16.752   1.480  53.170  0.00  0.00    +0.000 C 
ATOM     17  C   UNL     1      16.670   2.428  52.154  0.00  0.00    +0.000 C 
ATOM     18  C   UNL     1      17.811   3.062  51.675  0.00  0.00    +0.000 C 
ATOM     19  C   UNL     1      19.053   2.745  52.221  0.00  0.00    +0.000 C 
ATOM     20  C   UNL     1      19.147   1.797  53.238  0.00  0.00    +0.000 C 
ENDROOT
BRANCH  10  21
ATOM     21  O   UNL     1      16.270  -3.512  50.032  0.00  0.00    +0.000 OA
ATOM     22  H   UNL     1      15.508  -3.601  49.433  0.00  0.00    +0.000 HD
ENDBRANCH  10  21
BRANCH  17  23
ATOM     23  O   UNL     1      15.467   2.757  51.602  0.00  0.00    +0.000 OA
ATOM     24  H   UNL     1      14.874   1.987  51.672  0.00  0.00    +0.000 HD
ENDBRANCH  17  23
TORSDOF 2
ENDMDL
MODEL 6
REMARK VINA RESULT:      -4.0     11.897     13.537
REMARK  Name = Enterolactone.pdbqt.pdb
REMARK  2 active torsions:
REMARK  status: ('A' for Active; 'I' for Inactive)
REMARK    1  A    between atoms: C_10  and  O_14
REMARK    2  A    between atoms: C_19  and  O_23
REMARK                            x       y       z     vdW  Elec       q    Type
REMARK                         _______ _______ _______ _____ _____    ______ ____
ROOT
ATOM      1  O   UNL     1      14.956  -5.028  57.455  0.00  0.00    +0.000 OA
ATOM      2  O   UNL     1      14.770  -5.140  59.776  0.00  0.00    +0.000 OA
ATOM      3  C   UNL     1      16.014  -2.916  57.254  0.00  0.00    +0.000 C 
ATOM      4  C   UNL     1      15.795  -3.218  58.648  0.00  0.00    +0.000 C 
ATOM      5  C   UNL     1      15.478  -4.078  56.696  0.00  0.00    +0.000 C 
ATOM      6  C   UNL     1      15.110  -4.567  58.757  0.00  0.00    +0.000 C 
ATOM      7  C   UNL     1      16.958  -2.008  56.737  0.00  0.00    +0.000 C 
ATOM      8  C   UNL     1      17.913  -1.079  56.233  0.00  0.00    +0.000 C 
ATOM      9  C   UNL     1      19.105  -0.869  56.923  0.00  0.00    +0.000 C 
ATOM     10  C   UNL     1      20.025   0.049  56.425  0.00  0.00    +0.000 C 
ATOM     11  C   UNL     1      19.770   0.754  55.254  0.00  0.00    +0.000 C 
ATOM     12  C   UNL     1      18.577   0.539  54.569  0.00  0.00    +0.000 C 
ATOM     13  C   UNL     1      17.648  -0.378  55.058  0.00  0.00    +0.000 C 
ATOM     14  C   UNL     1      16.224  -2.432  59.741  0.00  0.00    +0.000 C 
ATOM     15  C   UNL     1      16.665  -1.636  60.838  0.00  0.00    +0.000 C 
ATOM     16  C   UNL     1      16.600  -0.248  60.756  0.00  0.00    +0.000 C 
ATOM     17  C   UNL     1      17.044   0.518  61.830  0.00  0.00    +0.000 C 
ATOM     18  C   UNL     1      17.549  -0.084  62.977  0.00  0.00    +0.000 C 
ATOM     19  C   UNL     1      17.611  -1.474  63.053  0.00  0.00    +0.000 C 
ATOM     20  C   UNL     1      17.169  -2.251  61.983  0.00  0.00    +0.000 C 
ENDROOT
BRANCH  10  21
ATOM     21  O   UNL     1      21.202   0.278  57.076  0.00  0.00    +0.000 OA
ATOM     22  H   UNL     1      21.650   1.031  56.652  0.00  0.00    +0.000 HD
ENDBRANCH  10  21
BRANCH  17  23
ATOM     23  O   UNL     1      16.996   1.880  61.782  0.00  0.00    +0.000 OA
ATOM     24  H   UNL     1      16.062   2.156  61.769  0.00  0.00    +0.000 HD
ENDBRANCH  17  23
TORSDOF 2
ENDMDL
MODEL 7
REMARK VINA RESULT:      -4.0     13.865     14.740
REMARK  Name = Enterolactone.pdbqt.pdb
REMARK  2 active torsions:
REMARK  status: ('A' for Active; 'I' for Inactive)
REMARK    1  A    between atoms: C_10  and  O_14
REMARK    2  A    between atoms: C_19  and  O_23
REMARK                            x       y       z     vdW  Elec       q    Type
REMARK                         _______ _______ _______ _____ _____    ______ ____
ROOT
ATOM      1  O   UNL     1      13.023   1.127  73.249  0.00  0.00    +0.000 OA
ATOM      2  O   UNL     1      14.173   0.718  71.264  0.00  0.00    +0.000 OA
ATOM      3  C   UNL     1      13.472   3.442  73.486  0.00  0.00    +0.000 C 
ATOM      4  C   UNL     1      14.095   2.948  72.282  0.00  0.00    +0.000 C 
ATOM      5  C   UNL     1      12.879   2.257  73.923  0.00  0.00    +0.000 C 
ATOM      6  C   UNL     1      13.806   1.464  72.152  0.00  0.00    +0.000 C 
ATOM      7  C   UNL     1      13.141   4.782  73.760  0.00  0.00    +0.000 C 
ATOM      8  C   UNL     1      12.820   6.146  74.025  0.00  0.00    +0.000 C 
ATOM      9  C   UNL     1      12.484   6.995  72.973  0.00  0.00    +0.000 C 
ATOM     10  C   UNL     1      12.183   8.326  73.244  0.00  0.00    +0.000 C 
ATOM     11  C   UNL     1      12.213   8.816  74.545  0.00  0.00    +0.000 C 
ATOM     12  C   UNL     1      12.549   7.962  75.593  0.00  0.00    +0.000 C 
ATOM     13  C   UNL     1      12.853   6.626  75.333  0.00  0.00    +0.000 C 
ATOM     14  C   UNL     1      14.790   3.728  71.330  0.00  0.00    +0.000 C 
ATOM     15  C   UNL     1      15.484   4.523  70.373  0.00  0.00    +0.000 C 
ATOM     16  C   UNL     1      16.304   5.564  70.800  0.00  0.00    +0.000 C 
ATOM     17  C   UNL     1      16.968   6.340  69.854  0.00  0.00    +0.000 C 
ATOM     18  C   UNL     1      16.822   6.089  68.495  0.00  0.00    +0.000 C 
ATOM     19  C   UNL     1      16.001   5.045  68.073  0.00  0.00    +0.000 C 
ATOM     20  C   UNL     1      15.331   4.262  69.012  0.00  0.00    +0.000 C 
ENDROOT
BRANCH  10  21
ATOM     21  O   UNL     1      11.850   9.184  72.236  0.00  0.00    +0.000 OA
ATOM     22  H   UNL     1      11.713   8.669  71.422  0.00  0.00    +0.000 HD
ENDBRANCH  10  21
BRANCH  17  23
ATOM     23  O   UNL     1      17.777   7.368  70.240  0.00  0.00    +0.000 OA
ATOM     24  H   UNL     1      18.701   7.117  70.062  0.00  0.00    +0.000 HD
ENDBRANCH  17  23
TORSDOF 2
ENDMDL
MODEL 8
REMARK VINA RESULT:      -3.9     11.018     13.341
REMARK  Name = Enterolactone.pdbqt.pdb
REMARK  2 active torsions:
REMARK  status: ('A' for Active; 'I' for Inactive)
REMARK    1  A    between atoms: C_10  and  O_14
REMARK    2  A    between atoms: C_19  and  O_23
REMARK                            x       y       z     vdW  Elec       q    Type
REMARK                         _______ _______ _______ _____ _____    ______ ____
ROOT
ATOM      1  O   UNL     1      20.155   9.096  59.824  0.00  0.00    +0.000 OA
ATOM      2  O   UNL     1      20.254   8.703  57.528  0.00  0.00    +0.000 OA
ATOM      3  C   UNL     1      18.439  10.730  59.863  0.00  0.00    +0.000 C 
ATOM      4  C   UNL     1      18.679  10.312  58.502  0.00  0.00    +0.000 C 
ATOM      5  C   UNL     1      19.372   9.917  60.506  0.00  0.00    +0.000 C 
ATOM      6  C   UNL     1      19.786   9.275  58.496  0.00  0.00    +0.000 C 
ATOM      7  C   UNL     1      17.264  11.332  60.352  0.00  0.00    +0.000 C 
ATOM      8  C   UNL     1      16.071  11.949  60.828  0.00  0.00    +0.000 C 
ATOM      9  C   UNL     1      14.848  11.637  60.239  0.00  0.00    +0.000 C 
ATOM     10  C   UNL     1      13.691  12.254  60.706  0.00  0.00    +0.000 C 
ATOM     11  C   UNL     1      13.742  13.172  61.749  0.00  0.00    +0.000 C 
ATOM     12  C   UNL     1      14.968  13.480  62.335  0.00  0.00    +0.000 C 
ATOM     13  C   UNL     1      16.133  12.868  61.874  0.00  0.00    +0.000 C 
ATOM     14  C   UNL     1      17.950  10.732  57.368  0.00  0.00    +0.000 C 
ATOM     15  C   UNL     1      17.206  11.157  56.229  0.00  0.00    +0.000 C 
ATOM     16  C   UNL     1      16.787  12.480  56.129  0.00  0.00    +0.000 C 
ATOM     17  C   UNL     1      16.051  12.879  55.017  0.00  0.00    +0.000 C 
ATOM     18  C   UNL     1      15.731  11.976  54.010  0.00  0.00    +0.000 C 
ATOM     19  C   UNL     1      16.155  10.653  54.115  0.00  0.00    +0.000 C 
ATOM     20  C   UNL     1      16.892  10.241  55.225  0.00  0.00    +0.000 C 
ENDROOT
BRANCH  10  21
ATOM     21  O   UNL     1      12.477  11.971  60.151  0.00  0.00    +0.000 OA
ATOM     22  H   UNL     1      11.820  11.895  60.864  0.00  0.00    +0.000 HD
ENDBRANCH  10  21
BRANCH  17  23
ATOM     23  O   UNL     1      15.624  14.168  54.889  0.00  0.00    +0.000 OA
ATOM     24  H   UNL     1      14.694  14.215  55.175  0.00  0.00    +0.000 HD
ENDBRANCH  17  23
TORSDOF 2
ENDMDL
MODEL 9
REMARK VINA RESULT:      -3.9     13.705     15.973
REMARK  Name = Enterolactone.pdbqt.pdb
REMARK  2 active torsions:
REMARK  status: ('A' for Active; 'I' for Inactive)
REMARK    1  A    between atoms: C_10  and  O_14
REMARK    2  A    between atoms: C_19  and  O_23
REMARK                            x       y       z     vdW  Elec       q    Type
REMARK                         _______ _______ _______ _____ _____    ______ ____
ROOT
ATOM      1  O   UNL     1      15.216   3.171  72.485  0.00  0.00    +0.000 OA
ATOM      2  O   UNL     1      14.329   3.993  74.478  0.00  0.00    +0.000 OA
ATOM      3  C   UNL     1      13.786   1.308  72.165  0.00  0.00    +0.000 C 
ATOM      4  C   UNL     1      13.413   2.004  73.373  0.00  0.00    +0.000 C 
ATOM      5  C   UNL     1      14.844   2.125  71.765  0.00  0.00    +0.000 C 
ATOM      6  C   UNL     1      14.344   3.186  73.567  0.00  0.00    +0.000 C 
ATOM      7  C   UNL     1      12.963   0.448  71.414  0.00  0.00    +0.000 C 
ATOM      8  C   UNL     1      12.119  -0.426  70.669  0.00  0.00    +0.000 C 
ATOM      9  C   UNL     1      10.743  -0.207  70.647  0.00  0.00    +0.000 C 
ATOM     10  C   UNL     1       9.929  -1.074  69.925  0.00  0.00    +0.000 C 
ATOM     11  C   UNL     1      10.469  -2.151  69.230  0.00  0.00    +0.000 C 
ATOM     12  C   UNL     1      11.845  -2.365  69.256  0.00  0.00    +0.000 C 
ATOM     13  C   UNL     1      12.671  -1.502  69.976  0.00  0.00    +0.000 C 
ATOM     14  C   UNL     1      12.310   1.693  74.199  0.00  0.00    +0.000 C 
ATOM     15  C   UNL     1      11.192   1.375  75.025  0.00  0.00    +0.000 C 
ATOM     16  C   UNL     1      10.861   0.044  75.260  0.00  0.00    +0.000 C 
ATOM     17  C   UNL     1       9.760  -0.252  76.058  0.00  0.00    +0.000 C 
ATOM     18  C   UNL     1       8.991   0.761  76.621  0.00  0.00    +0.000 C 
ATOM     19  C   UNL     1       9.329   2.091  76.382  0.00  0.00    +0.000 C 
ATOM     20  C   UNL     1      10.429   2.400  75.583  0.00  0.00    +0.000 C 
ENDROOT
BRANCH  10  21
ATOM     21  O   UNL     1       8.578  -0.887  69.882  0.00  0.00    +0.000 OA
ATOM     22  H   UNL     1       8.287  -0.935  68.954  0.00  0.00    +0.000 HD
ENDBRANCH  10  21
BRANCH  17  23
ATOM     23  O   UNL     1       9.407  -1.546  76.308  0.00  0.00    +0.000 OA
ATOM     24  H   UNL     1       9.103  -1.950  75.475  0.00  0.00    +0.000 HD
ENDBRANCH  17  23
TORSDOF 2
ENDMDL
