MODEL 1
REMARK VINA RESULT:      -5.4      0.000      0.000
REMARK  Name = Estradiol.pdbqt.pdb
REMARK  2 active torsions:
REMARK  status: ('A' for Active; 'I' for Inactive)
REMARK    1  A    between atoms: C_5  and  O_19
REMARK    2  A    between atoms: C_18  and  O_21
REMARK                            x       y       z     vdW  Elec       q    Type
REMARK                         _______ _______ _______ _____ _____    ______ ____
ROOT
ATOM      1  C   UNL     1      15.586  -1.695  54.944  0.00  0.00    +0.000 C 
ATOM      2  C   UNL     1      16.829  -1.483  55.938  0.00  0.00    +0.000 C 
ATOM      3  C   UNL     1      17.949  -0.595  55.590  0.00  0.00    +0.000 A 
ATOM      4  C   UNL     1      17.989   0.391  54.442  0.00  0.00    +0.000 A 
ATOM      5  C   UNL     1      14.373  -1.619  55.895  0.00  0.00    +0.000 C 
ATOM      6  C   UNL     1      15.652  -0.599  53.976  0.00  0.00    +0.000 C 
ATOM      7  C   UNL     1      16.302  -1.483  57.270  0.00  0.00    +0.000 C 
ATOM      8  C   UNL     1      16.778   0.370  53.706  0.00  0.00    +0.000 C 
ATOM      9  C   UNL     1      14.795  -1.534  57.249  0.00  0.00    +0.000 C 
ATOM     10  C   UNL     1      19.140  -0.543  56.360  0.00  0.00    +0.000 A 
ATOM     11  C   UNL     1      15.692  -3.104  54.305  0.00  0.00    +0.000 C 
ATOM     12  C   UNL     1      19.159   1.278  54.129  0.00  0.00    +0.000 A 
ATOM     13  C   UNL     1      20.308   0.359  56.050  0.00  0.00    +0.000 A 
ATOM     14  C   UNL     1      20.331   1.259  54.945  0.00  0.00    +0.000 A 
ATOM     15  C   UNL     1      19.131   2.139  53.032  0.00  0.00    +0.000 A 
ATOM     16  C   UNL     1      21.427   2.065  54.667  0.00  0.00    +0.000 A 
ATOM     17  C   UNL     1      20.229   2.951  52.747  0.00  0.00    +0.000 A 
ATOM     18  C   UNL     1      21.361   2.906  53.563  0.00  0.00    +0.000 A 
ENDROOT
BRANCH   5  19
ATOM     19  O   UNL     1      13.124  -1.208  55.484  0.00  0.00    +0.000 OA
ATOM     20  H   UNL     1      12.916  -1.529  54.588  0.00  0.00    +0.000 HD
ENDBRANCH   5  19
BRANCH  18  21
ATOM     21  O   UNL     1      22.441   3.695  53.288  0.00  0.00    +0.000 OA
ATOM     22  H   UNL     1      23.043   3.668  54.053  0.00  0.00    +0.000 HD
ENDBRANCH  18  21
TORSDOF 2
ENDMDL
MODEL 2
REMARK VINA RESULT:      -5.1     19.279     22.643
REMARK  Name = Estradiol.pdbqt.pdb
REMARK  2 active torsions:
REMARK  status: ('A' for Active; 'I' for Inactive)
REMARK    1  A    between atoms: C_5  and  O_19
REMARK    2  A    between atoms: C_18  and  O_21
REMARK                            x       y       z     vdW  Elec       q    Type
REMARK                         _______ _______ _______ _____ _____    ______ ____
ROOT
ATOM      1  C   UNL     1      13.521   3.675  74.772  0.00  0.00    +0.000 C 
ATOM      2  C   UNL     1      12.898   2.283  74.270  0.00  0.00    +0.000 C 
ATOM      3  C   UNL     1      11.619   1.779  74.794  0.00  0.00    +0.000 A 
ATOM      4  C   UNL     1      10.627   2.553  75.634  0.00  0.00    +0.000 A 
ATOM      5  C   UNL     1      13.992   4.330  73.457  0.00  0.00    +0.000 C 
ATOM      6  C   UNL     1      12.428   4.390  75.434  0.00  0.00    +0.000 C 
ATOM      7  C   UNL     1      13.192   2.175  72.872  0.00  0.00    +0.000 C 
ATOM      8  C   UNL     1      11.078   3.876  75.872  0.00  0.00    +0.000 C 
ATOM      9  C   UNL     1      13.834   3.440  72.361  0.00  0.00    +0.000 C 
ATOM     10  C   UNL     1      11.149   0.470  74.511  0.00  0.00    +0.000 A 
ATOM     11  C   UNL     1      14.729   3.376  75.697  0.00  0.00    +0.000 C 
ATOM     12  C   UNL     1       9.331   1.993  76.144  0.00  0.00    +0.000 A 
ATOM     13  C   UNL     1       9.840  -0.085  75.014  0.00  0.00    +0.000 A 
ATOM     14  C   UNL     1       8.936   0.657  75.829  0.00  0.00    +0.000 A 
ATOM     15  C   UNL     1       8.483   2.761  76.942  0.00  0.00    +0.000 A 
ATOM     16  C   UNL     1       7.746   0.117  76.298  0.00  0.00    +0.000 A 
ATOM     17  C   UNL     1       7.286   2.225  77.416  0.00  0.00    +0.000 A 
ATOM     18  C   UNL     1       6.931   0.914  77.092  0.00  0.00    +0.000 A 
ENDROOT
BRANCH   5  19
ATOM     19  O   UNL     1      14.084   5.696  73.292  0.00  0.00    +0.000 OA
ATOM     20  H   UNL     1      14.402   5.931  72.402  0.00  0.00    +0.000 HD
ENDBRANCH   5  19
BRANCH  18  21
ATOM     21  O   UNL     1       5.763   0.380  77.557  0.00  0.00    +0.000 OA
ATOM     22  H   UNL     1       5.274   0.008  76.802  0.00  0.00    +0.000 HD
ENDBRANCH  18  21
TORSDOF 2
ENDMDL
MODEL 3
REMARK VINA RESULT:      -4.9      2.959      6.166
REMARK  Name = Estradiol.pdbqt.pdb
REMARK  2 active torsions:
REMARK  status: ('A' for Active; 'I' for Inactive)
REMARK    1  A    between atoms: C_5  and  O_19
REMARK    2  A    between atoms: C_18  and  O_21
REMARK                            x       y       z     vdW  Elec       q    Type
REMARK                         _______ _______ _______ _____ _____    ______ ____
ROOT
ATOM      1  C   UNL     1      22.078   0.624  56.017  0.00  0.00    +0.000 C 
ATOM      2  C   UNL     1      21.942   1.799  54.931  0.00  0.00    +0.000 C 
ATOM      3  C   UNL     1      20.718   1.969  54.131  0.00  0.00    +0.000 A 
ATOM      4  C   UNL     1      19.391   1.279  54.365  0.00  0.00    +0.000 A 
ATOM      5  C   UNL     1      22.718   1.347  57.221  0.00  0.00    +0.000 C 
ATOM      6  C   UNL     1      20.718   0.144  56.266  0.00  0.00    +0.000 C 
ATOM      7  C   UNL     1      22.609   2.945  55.472  0.00  0.00    +0.000 C 
ATOM      8  C   UNL     1      19.453   0.416  55.487  0.00  0.00    +0.000 C 
ATOM      9  C   UNL     1      23.059   2.685  56.887  0.00  0.00    +0.000 C 
ATOM     10  C   UNL     1      20.649   2.872  53.039  0.00  0.00    +0.000 A 
ATOM     11  C   UNL     1      23.036  -0.461  55.460  0.00  0.00    +0.000 C 
ATOM     12  C   UNL     1      18.169   1.489  53.519  0.00  0.00    +0.000 A 
ATOM     13  C   UNL     1      19.414   3.089  52.200  0.00  0.00    +0.000 A 
ATOM     14  C   UNL     1      18.184   2.405  52.424  0.00  0.00    +0.000 A 
ATOM     15  C   UNL     1      16.990   0.790  53.780  0.00  0.00    +0.000 A 
ATOM     16  C   UNL     1      17.067   2.606  51.624  0.00  0.00    +0.000 A 
ATOM     17  C   UNL     1      15.864   0.987  52.981  0.00  0.00    +0.000 A 
ATOM     18  C   UNL     1      15.913   1.888  51.915  0.00  0.00    +0.000 A 
ENDROOT
BRANCH   5  19
ATOM     19  O   UNL     1      22.538   0.934  58.524  0.00  0.00    +0.000 OA
ATOM     20  H   UNL     1      22.250   1.666  59.098  0.00  0.00    +0.000 HD
ENDBRANCH   5  19
BRANCH  18  21
ATOM     21  O   UNL     1      14.816   2.083  51.125  0.00  0.00    +0.000 OA
ATOM     22  H   UNL     1      15.112   2.140  50.199  0.00  0.00    +0.000 HD
ENDBRANCH  18  21
TORSDOF 2
ENDMDL
MODEL 4
REMARK VINA RESULT:      -4.7     20.569     22.496
REMARK  Name = Estradiol.pdbqt.pdb
REMARK  2 active torsions:
REMARK  status: ('A' for Active; 'I' for Inactive)
REMARK    1  A    between atoms: C_5  and  O_19
REMARK    2  A    between atoms: C_18  and  O_21
REMARK                            x       y       z     vdW  Elec       q    Type
REMARK                         _______ _______ _______ _____ _____    ______ ____
ROOT
ATOM      1  C   UNL     1      10.630  -0.684  74.852  0.00  0.00    +0.000 C 
ATOM      2  C   UNL     1       9.413   0.099  75.549  0.00  0.00    +0.000 C 
ATOM      3  C   UNL     1       9.540   1.505  75.963  0.00  0.00    +0.000 A 
ATOM      4  C   UNL     1      10.662   2.450  75.594  0.00  0.00    +0.000 A 
ATOM      5  C   UNL     1       9.934  -1.436  73.698  0.00  0.00    +0.000 C 
ATOM      6  C   UNL     1      11.571   0.345  74.409  0.00  0.00    +0.000 C 
ATOM      7  C   UNL     1       8.210  -0.358  74.920  0.00  0.00    +0.000 C 
ATOM      8  C   UNL     1      11.621   1.811  74.768  0.00  0.00    +0.000 C 
ATOM      9  C   UNL     1       8.524  -1.273  73.764  0.00  0.00    +0.000 C 
ATOM     10  C   UNL     1       8.553   2.153  76.749  0.00  0.00    +0.000 A 
ATOM     11  C   UNL     1      11.229  -1.686  75.874  0.00  0.00    +0.000 C 
ATOM     12  C   UNL     1      10.745   3.881  76.041  0.00  0.00    +0.000 A 
ATOM     13  C   UNL     1       8.633   3.595  77.185  0.00  0.00    +0.000 A 
ATOM     14  C   UNL     1       9.716   4.457  76.847  0.00  0.00    +0.000 A 
ATOM     15  C   UNL     1      11.831   4.681  75.684  0.00  0.00    +0.000 A 
ATOM     16  C   UNL     1       9.778   5.775  77.279  0.00  0.00    +0.000 A 
ATOM     17  C   UNL     1      11.899   6.006  76.115  0.00  0.00    +0.000 A 
ATOM     18  C   UNL     1      10.878   6.538  76.904  0.00  0.00    +0.000 A 
ENDROOT
BRANCH   5  19
ATOM     19  O   UNL     1      10.583  -1.786  72.534  0.00  0.00    +0.000 OA
ATOM     20  H   UNL     1       9.958  -2.080  71.847  0.00  0.00    +0.000 HD
ENDBRANCH   5  19
BRANCH  18  21
ATOM     21  O   UNL     1      10.940   7.833  77.333  0.00  0.00    +0.000 OA
ATOM     22  H   UNL     1      10.728   8.415  76.583  0.00  0.00    +0.000 HD
ENDBRANCH  18  21
TORSDOF 2
ENDMDL
MODEL 5
REMARK VINA RESULT:      -4.7      1.681      2.999
REMARK  Name = Estradiol.pdbqt.pdb
REMARK  2 active torsions:
REMARK  status: ('A' for Active; 'I' for Inactive)
REMARK    1  A    between atoms: C_5  and  O_19
REMARK    2  A    between atoms: C_18  and  O_21
REMARK                            x       y       z     vdW  Elec       q    Type
REMARK                         _______ _______ _______ _____ _____    ______ ____
ROOT
ATOM      1  C   UNL     1      17.197  -1.953  57.128  0.00  0.00    +0.000 C 
ATOM      2  C   UNL     1      16.833  -1.362  55.680  0.00  0.00    +0.000 C 
ATOM      3  C   UNL     1      17.670  -0.338  55.035  0.00  0.00    +0.000 A 
ATOM      4  C   UNL     1      19.048   0.103  55.478  0.00  0.00    +0.000 A 
ATOM      5  C   UNL     1      16.968  -3.468  56.944  0.00  0.00    +0.000 C 
ATOM      6  C   UNL     1      18.593  -1.588  57.374  0.00  0.00    +0.000 C 
ATOM      7  C   UNL     1      16.304  -2.446  54.909  0.00  0.00    +0.000 C 
ATOM      8  C   UNL     1      19.468  -0.607  56.631  0.00  0.00    +0.000 C 
ATOM      9  C   UNL     1      16.414  -3.745  55.666  0.00  0.00    +0.000 C 
ATOM     10  C   UNL     1      17.266   0.333  53.853  0.00  0.00    +0.000 A 
ATOM     11  C   UNL     1      16.204  -1.373  58.168  0.00  0.00    +0.000 C 
ATOM     12  C   UNL     1      19.865   1.153  54.781  0.00  0.00    +0.000 A 
ATOM     13  C   UNL     1      18.095   1.378  53.148  0.00  0.00    +0.000 A 
ATOM     14  C   UNL     1      19.379   1.797  53.603  0.00  0.00    +0.000 A 
ATOM     15  C   UNL     1      21.116   1.528  55.272  0.00  0.00    +0.000 A 
ATOM     16  C   UNL     1      20.114   2.776  52.949  0.00  0.00    +0.000 A 
ATOM     17  C   UNL     1      21.860   2.511  54.620  0.00  0.00    +0.000 A 
ATOM     18  C   UNL     1      21.355   3.123  53.471  0.00  0.00    +0.000 A 
ENDROOT
BRANCH   5  19
ATOM     19  O   UNL     1      17.637  -4.421  57.682  0.00  0.00    +0.000 OA
ATOM     20  H   UNL     1      17.908  -4.077  58.552  0.00  0.00    +0.000 HD
ENDBRANCH   5  19
BRANCH  18  21
ATOM     21  O   UNL     1      22.076   4.091  52.831  0.00  0.00    +0.000 OA
ATOM     22  H   UNL     1      21.475   4.582  52.242  0.00  0.00    +0.000 HD
ENDBRANCH  18  21
TORSDOF 2
ENDMDL
MODEL 6
REMARK VINA RESULT:      -4.6     19.570     22.846
REMARK  Name = Estradiol.pdbqt.pdb
REMARK  2 active torsions:
REMARK  status: ('A' for Active; 'I' for Inactive)
REMARK    1  A    between atoms: C_5  and  O_19
REMARK    2  A    between atoms: C_18  and  O_21
REMARK                            x       y       z     vdW  Elec       q    Type
REMARK                         _______ _______ _______ _____ _____    ______ ____
ROOT
ATOM      1  C   UNL     1      12.940   1.029  73.809  0.00  0.00    +0.000 C 
ATOM      2  C   UNL     1      12.696   2.352  74.686  0.00  0.00    +0.000 C 
ATOM      3  C   UNL     1      11.417   2.596  75.371  0.00  0.00    +0.000 A 
ATOM      4  C   UNL     1      10.298   1.596  75.563  0.00  0.00    +0.000 A 
ATOM      5  C   UNL     1      14.356   0.592  74.239  0.00  0.00    +0.000 C 
ATOM      6  C   UNL     1      11.885   0.090  74.194  0.00  0.00    +0.000 C 
ATOM      7  C   UNL     1      13.932   2.645  75.348  0.00  0.00    +0.000 C 
ATOM      8  C   UNL     1      10.626   0.342  74.989  0.00  0.00    +0.000 C 
ATOM      9  C   UNL     1      14.943   1.554  75.104  0.00  0.00    +0.000 C 
ATOM     10  C   UNL     1      11.115   3.837  75.987  0.00  0.00    +0.000 A 
ATOM     11  C   UNL     1      12.920   1.416  72.307  0.00  0.00    +0.000 C 
ATOM     12  C   UNL     1       9.010   1.894  76.274  0.00  0.00    +0.000 A 
ATOM     13  C   UNL     1       9.824   4.129  76.712  0.00  0.00    +0.000 A 
ATOM     14  C   UNL     1       8.773   3.177  76.853  0.00  0.00    +0.000 A 
ATOM     15  C   UNL     1       8.011   0.926  76.381  0.00  0.00    +0.000 A 
ATOM     16  C   UNL     1       7.585   3.476  77.507  0.00  0.00    +0.000 A 
ATOM     17  C   UNL     1       6.815   1.219  77.036  0.00  0.00    +0.000 A 
ATOM     18  C   UNL     1       6.614   2.485  77.590  0.00  0.00    +0.000 A 
ENDROOT
BRANCH   5  19
ATOM     19  O   UNL     1      14.780  -0.719  74.195  0.00  0.00    +0.000 OA
ATOM     20  H   UNL     1      15.128  -1.014  75.055  0.00  0.00    +0.000 HD
ENDBRANCH   5  19
BRANCH  18  21
ATOM     21  O   UNL     1       5.444   2.782  78.228  0.00  0.00    +0.000 OA
ATOM     22  H   UNL     1       5.486   2.418  79.130  0.00  0.00    +0.000 HD
ENDBRANCH  18  21
TORSDOF 2
ENDMDL
MODEL 7
REMARK VINA RESULT:      -4.5     15.253     18.779
REMARK  Name = Estradiol.pdbqt.pdb
REMARK  2 active torsions:
REMARK  status: ('A' for Active; 'I' for Inactive)
REMARK    1  A    between atoms: C_5  and  O_19
REMARK    2  A    between atoms: C_18  and  O_21
REMARK                            x       y       z     vdW  Elec       q    Type
REMARK                         _______ _______ _______ _____ _____    ______ ____
ROOT
ATOM      1  C   UNL     1       9.280  -1.484  73.906  0.00  0.00    +0.000 C 
ATOM      2  C   UNL     1      10.462  -1.081  72.896  0.00  0.00    +0.000 C 
ATOM      3  C   UNL     1      10.250  -1.044  71.440  0.00  0.00    +0.000 A 
ATOM      4  C   UNL     1       8.918  -1.120  70.726  0.00  0.00    +0.000 A 
ATOM      5  C   UNL     1       9.419  -0.432  75.027  0.00  0.00    +0.000 C 
ATOM      6  C   UNL     1       8.039  -1.374  73.139  0.00  0.00    +0.000 C 
ATOM      7  C   UNL     1      11.224  -0.050  73.536  0.00  0.00    +0.000 C 
ATOM      8  C   UNL     1       7.847  -1.233  71.648  0.00  0.00    +0.000 C 
ATOM      9  C   UNL     1      10.572   0.374  74.827  0.00  0.00    +0.000 C 
ATOM     10  C   UNL     1      11.321  -0.881  70.525  0.00  0.00    +0.000 A 
ATOM     11  C   UNL     1       9.557  -2.908  74.455  0.00  0.00    +0.000 C 
ATOM     12  C   UNL     1       8.754  -1.076  69.234  0.00  0.00    +0.000 A 
ATOM     13  C   UNL     1      11.151  -0.824  69.027  0.00  0.00    +0.000 A 
ATOM     14  C   UNL     1       9.887  -0.927  68.377  0.00  0.00    +0.000 A 
ATOM     15  C   UNL     1       7.492  -1.184  68.650  0.00  0.00    +0.000 A 
ATOM     16  C   UNL     1       9.758  -0.893  66.995  0.00  0.00    +0.000 A 
ATOM     17  C   UNL     1       7.356  -1.151  67.262  0.00  0.00    +0.000 A 
ATOM     18  C   UNL     1       8.484  -1.007  66.452  0.00  0.00    +0.000 A 
ENDROOT
BRANCH   5  19
ATOM     19  O   UNL     1       8.358  -0.024  75.805  0.00  0.00    +0.000 OA
ATOM     20  H   UNL     1       8.211  -0.624  76.558  0.00  0.00    +0.000 HD
ENDBRANCH   5  19
BRANCH  18  21
ATOM     21  O   UNL     1       8.358  -0.979  65.092  0.00  0.00    +0.000 OA
ATOM     22  H   UNL     1       9.173  -0.600  64.717  0.00  0.00    +0.000 HD
ENDBRANCH  18  21
TORSDOF 2
ENDMDL
MODEL 8
REMARK VINA RESULT:      -4.5     18.809     21.841
REMARK  Name = Estradiol.pdbqt.pdb
REMARK  2 active torsions:
REMARK  status: ('A' for Active; 'I' for Inactive)
REMARK    1  A    between atoms: C_5  and  O_19
REMARK    2  A    between atoms: C_18  and  O_21
REMARK                            x       y       z     vdW  Elec       q    Type
REMARK                         _______ _______ _______ _____ _____    ______ ____
ROOT
ATOM      1  C   UNL     1      12.637   0.095  72.874  0.00  0.00    +0.000 C 
ATOM      2  C   UNL     1      13.117   1.505  73.474  0.00  0.00    +0.000 C 
ATOM      3  C   UNL     1      12.264   2.283  74.386  0.00  0.00    +0.000 A 
ATOM      4  C   UNL     1      11.000   1.800  75.064  0.00  0.00    +0.000 A 
ATOM      5  C   UNL     1      13.896  -0.784  73.023  0.00  0.00    +0.000 C 
ATOM      6  C   UNL     1      11.510  -0.334  73.704  0.00  0.00    +0.000 C 
ATOM      7  C   UNL     1      14.523   1.392  73.728  0.00  0.00    +0.000 C 
ATOM      8  C   UNL     1      10.712   0.457  74.713  0.00  0.00    +0.000 C 
ATOM      9  C   UNL     1      14.999  -0.017  73.484  0.00  0.00    +0.000 C 
ATOM     10  C   UNL     1      12.584   3.610  74.772  0.00  0.00    +0.000 A 
ATOM     11  C   UNL     1      12.278   0.287  71.378  0.00  0.00    +0.000 C 
ATOM     12  C   UNL     1      10.165   2.635  75.990  0.00  0.00    +0.000 A 
ATOM     13  C   UNL     1      11.749   4.442  75.714  0.00  0.00    +0.000 A 
ATOM     14  C   UNL     1      10.546   3.972  76.316  0.00  0.00    +0.000 A 
ATOM     15  C   UNL     1       8.993   2.126  76.551  0.00  0.00    +0.000 A 
ATOM     16  C   UNL     1       9.782   4.763  77.164  0.00  0.00    +0.000 A 
ATOM     17  C   UNL     1       8.221   2.916  77.403  0.00  0.00    +0.000 A 
ATOM     18  C   UNL     1       8.620   4.220  77.699  0.00  0.00    +0.000 A 
ENDROOT
BRANCH   5  19
ATOM     19  O   UNL     1      13.840  -2.154  73.161  0.00  0.00    +0.000 OA
ATOM     20  H   UNL     1      13.813  -2.603  72.297  0.00  0.00    +0.000 HD
ENDBRANCH   5  19
BRANCH  18  21
ATOM     21  O   UNL     1       7.867   5.002  78.528  0.00  0.00    +0.000 OA
ATOM     22  H   UNL     1       8.187   4.879  79.440  0.00  0.00    +0.000 HD
ENDBRANCH  18  21
TORSDOF 2
ENDMDL
MODEL 9
REMARK VINA RESULT:      -4.4      1.829      2.872
REMARK  Name = Estradiol.pdbqt.pdb
REMARK  2 active torsions:
REMARK  status: ('A' for Active; 'I' for Inactive)
REMARK    1  A    between atoms: C_5  and  O_19
REMARK    2  A    between atoms: C_18  and  O_21
REMARK                            x       y       z     vdW  Elec       q    Type
REMARK                         _______ _______ _______ _____ _____    ______ ____
ROOT
ATOM      1  C   UNL     1      17.774  -1.192  54.920  0.00  0.00    +0.000 C 
ATOM      2  C   UNL     1      19.161  -0.411  55.138  0.00  0.00    +0.000 C 
ATOM      3  C   UNL     1      19.500   0.786  54.354  0.00  0.00    +0.000 A 
ATOM      4  C   UNL     1      18.560   1.573  53.466  0.00  0.00    +0.000 A 
ATOM      5  C   UNL     1      17.310  -1.469  56.365  0.00  0.00    +0.000 C 
ATOM      6  C   UNL     1      16.906  -0.273  54.182  0.00  0.00    +0.000 C 
ATOM      7  C   UNL     1      19.447  -0.455  56.541  0.00  0.00    +0.000 C 
ATOM      8  C   UNL     1      17.259   1.010  53.470  0.00  0.00    +0.000 C 
ATOM      9  C   UNL     1      18.302  -1.074  57.302  0.00  0.00    +0.000 C 
ATOM     10  C   UNL     1      20.791   1.374  54.393  0.00  0.00    +0.000 A 
ATOM     11  C   UNL     1      18.062  -2.521  54.174  0.00  0.00    +0.000 C 
ATOM     12  C   UNL     1      18.956   2.794  52.686  0.00  0.00    +0.000 A 
ATOM     13  C   UNL     1      21.181   2.608  53.618  0.00  0.00    +0.000 A 
ATOM     14  C   UNL     1      20.284   3.314  52.765  0.00  0.00    +0.000 A 
ATOM     15  C   UNL     1      18.038   3.445  51.863  0.00  0.00    +0.000 A 
ATOM     16  C   UNL     1      20.672   4.436  52.046  0.00  0.00    +0.000 A 
ATOM     17  C   UNL     1      18.422   4.573  51.137  0.00  0.00    +0.000 A 
ATOM     18  C   UNL     1      19.728   5.055  51.234  0.00  0.00    +0.000 A 
ENDROOT
BRANCH   5  19
ATOM     19  O   UNL     1      15.983  -1.613  56.710  0.00  0.00    +0.000 OA
ATOM     20  H   UNL     1      15.452  -0.848  56.425  0.00  0.00    +0.000 HD
ENDBRANCH   5  19
BRANCH  18  21
ATOM     21  O   UNL     1      20.113   6.156  50.523  0.00  0.00    +0.000 OA
ATOM     22  H   UNL     1      19.561   6.908  50.800  0.00  0.00    +0.000 HD
ENDBRANCH  18  21
TORSDOF 2
ENDMDL
