MODEL 1
REMARK VINA RESULT:      -4.7      0.000      0.000
REMARK  Name = 
REMARK  11 active torsions:
REMARK  status: ('A' for Active; 'I' for Inactive)
REMARK    1  A    between atoms: O_1  and  C_16
REMARK    2  A    between atoms: O_1  and  C_22
REMARK    3  A    between atoms: O_6  and  C_24
REMARK    4  A    between atoms: O_8  and  C_26
REMARK    5  A    between atoms: O_11  and  C_36
REMARK    6  A    between atoms: O_11  and  C_41
REMARK    7  A    between atoms: O_12  and  C_37
REMARK    8  A    between atoms: O_12  and  C_42
REMARK    9  A    between atoms: O_13  and  C_39
REMARK   10  A    between atoms: C_17  and  C_23
REMARK   11  A    between atoms: C_35  and  C_40
REMARK                            x       y       z     vdW  Elec       q    Type
REMARK                         _______ _______ _______ _____ _____    ______ ____
ROOT
ATOM      1  O   UNL     1       5.164  13.203  62.242  0.00  0.00    +0.000 OA
ATOM      2  O   UNL     1       5.005  13.480  59.972  0.00  0.00    +0.000 OA
ATOM      3  O   UNL     1      13.478  12.343  61.294  0.00  0.00    +0.000 OA
ATOM      4  O   UNL     1      12.834  12.170  58.976  0.00  0.00    +0.000 OA
ATOM      5  C   UNL     1       7.409  12.648  62.397  0.00  0.00    +0.000 C 
ATOM      6  C   UNL     1       7.177  13.312  61.053  0.00  0.00    +0.000 C 
ATOM      7  C   UNL     1       8.823  12.927  62.890  0.00  0.00    +0.000 C 
ATOM      8  C   UNL     1       7.988  12.621  59.958  0.00  0.00    +0.000 C 
ATOM      9  C   UNL     1       9.842  12.690  61.777  0.00  0.00    +0.000 A 
ATOM     10  C   UNL     1       9.462  12.585  60.398  0.00  0.00    +0.000 A 
ATOM     11  C   UNL     1       6.248  13.197  63.187  0.00  0.00    +0.000 C 
ATOM     12  C   UNL     1       5.680  13.313  60.975  0.00  0.00    +0.000 C 
ATOM     13  C   UNL     1      11.205  12.612  62.124  0.00  0.00    +0.000 A 
ATOM     14  C   UNL     1      10.449  12.407  59.408  0.00  0.00    +0.000 A 
ATOM     15  C   UNL     1      12.133  12.438  61.120  0.00  0.00    +0.000 A 
ATOM     16  C   UNL     1      11.767  12.339  59.802  0.00  0.00    +0.000 A 
ATOM     17  C   UNL     1      13.917  12.171  59.930  0.00  0.00    +0.000 C 
ENDROOT
BRANCH   8  18
ATOM     18  C   UNL     1       7.456  11.252  59.528  0.00  0.00    +0.000 A 
ATOM     19  C   UNL     1       7.517  10.116  60.354  0.00  0.00    +0.000 A 
ATOM     20  C   UNL     1       6.867  11.114  58.259  0.00  0.00    +0.000 A 
ATOM     21  C   UNL     1       6.338   9.891  57.845  0.00  0.00    +0.000 A 
ATOM     22  C   UNL     1       7.011   8.871  59.951  0.00  0.00    +0.000 A 
ATOM     23  C   UNL     1       6.421   8.772  58.690  0.00  0.00    +0.000 A 
BRANCH  21  24
ATOM     24  O   UNL     1       5.723   9.657  56.637  0.00  0.00    +0.000 OA
ATOM     25  C   UNL     1       4.768  10.628  56.216  0.00  0.00    +0.000 C 
ENDBRANCH  21  24
BRANCH  22  26
ATOM     26  O   UNL     1       7.167   7.899  60.902  0.00  0.00    +0.000 OA
ATOM     27  C   UNL     1       6.055   7.590  61.729  0.00  0.00    +0.000 C 
ENDBRANCH  22  26
BRANCH  23  28
ATOM     28  O   UNL     1       5.888   7.595  58.227  0.00  0.00    +0.000 OA
ATOM     29  H   UNL     1       4.953   7.800  58.034  0.00  0.00    +0.000 HD
ENDBRANCH  23  28
ENDBRANCH   8  18
BRANCH   7  30
ATOM     30  O   UNL     1       8.935  14.301  63.261  0.00  0.00    +0.000 OA
BRANCH  30  34
ATOM     31  O   UNL     1       9.441  13.209  65.266  0.00  0.00    +0.000 OA
ATOM     32  O   UNL     1       8.968  14.157  68.788  0.00  0.00    +0.000 OA
ATOM     33  O   UNL     1      10.256  12.178  68.699  0.00  0.00    +0.000 OA
ATOM     34  C   UNL     1       9.316  14.483  64.631  0.00  0.00    +0.000 C 
ATOM     35  C   UNL     1       8.224  15.359  65.287  0.00  0.00    +0.000 C 
ATOM     36  C   UNL     1       8.644  14.053  67.398  0.00  0.00    +0.000 C 
ATOM     37  C   UNL     1       8.424  15.446  66.807  0.00  0.00    +0.000 C 
ATOM     38  C   UNL     1       9.773  13.356  66.644  0.00  0.00    +0.000 C 
ATOM     39  C   UNL     1      10.000  12.001  67.307  0.00  0.00    +0.000 C 
ATOM     40  C   UNL     1       9.181  12.857  69.347  0.00  0.00    +0.000 C 
ATOM     41  C   UNL     1       9.547  13.031  70.809  0.00  0.00    +0.000 C 
BRANCH  35  42
ATOM     42  O   UNL     1       8.265  16.674  64.710  0.00  0.00    +0.000 OA
ATOM     43  H   UNL     1       7.347  16.882  64.447  0.00  0.00    +0.000 HD
ENDBRANCH  35  42
BRANCH  37  44
ATOM     44  O   UNL     1       7.263  16.024  67.427  0.00  0.00    +0.000 OA
ATOM     45  H   UNL     1       7.056  15.454  68.191  0.00  0.00    +0.000 HD
ENDBRANCH  37  44
ENDBRANCH  30  34
ENDBRANCH   7  30
TORSDOF 8
ENDMDL
MODEL 2
REMARK VINA RESULT:      -4.4      6.162     13.069
REMARK  Name = 
REMARK  11 active torsions:
REMARK  status: ('A' for Active; 'I' for Inactive)
REMARK    1  A    between atoms: O_1  and  C_16
REMARK    2  A    between atoms: O_1  and  C_22
REMARK    3  A    between atoms: O_6  and  C_24
REMARK    4  A    between atoms: O_8  and  C_26
REMARK    5  A    between atoms: O_11  and  C_36
REMARK    6  A    between atoms: O_11  and  C_41
REMARK    7  A    between atoms: O_12  and  C_37
REMARK    8  A    between atoms: O_12  and  C_42
REMARK    9  A    between atoms: O_13  and  C_39
REMARK   10  A    between atoms: C_17  and  C_23
REMARK   11  A    between atoms: C_35  and  C_40
REMARK                            x       y       z     vdW  Elec       q    Type
REMARK                         _______ _______ _______ _____ _____    ______ ____
ROOT
ATOM      1  O   UNL     1      21.044  11.253  60.946  0.00  0.00    +0.000 OA
ATOM      2  O   UNL     1      21.057  13.061  62.356  0.00  0.00    +0.000 OA
ATOM      3  O   UNL     1      12.684  12.032  60.440  0.00  0.00    +0.000 OA
ATOM      4  O   UNL     1      13.070  13.521  62.297  0.00  0.00    +0.000 OA
ATOM      5  C   UNL     1      18.757  10.946  60.748  0.00  0.00    +0.000 C 
ATOM      6  C   UNL     1      19.003  12.350  61.267  0.00  0.00    +0.000 C 
ATOM      7  C   UNL     1      17.481  10.903  59.917  0.00  0.00    +0.000 C 
ATOM      8  C   UNL     1      17.971  12.725  62.330  0.00  0.00    +0.000 C 
ATOM      9  C   UNL     1      16.340  11.623  60.634  0.00  0.00    +0.000 A 
ATOM     10  C   UNL     1      16.567  12.507  61.739  0.00  0.00    +0.000 A 
ATOM     11  C   UNL     1      20.072  10.662  60.068  0.00  0.00    +0.000 C 
ATOM     12  C   UNL     1      20.454  12.282  61.637  0.00  0.00    +0.000 C 
ATOM     13  C   UNL     1      15.028  11.433  60.160  0.00  0.00    +0.000 A 
ATOM     14  C   UNL     1      15.481  13.177  62.339  0.00  0.00    +0.000 A 
ATOM     15  C   UNL     1      13.999  12.110  60.778  0.00  0.00    +0.000 A 
ATOM     16  C   UNL     1      14.218  12.957  61.835  0.00  0.00    +0.000 A 
ATOM     17  C   UNL     1      12.101  12.929  61.408  0.00  0.00    +0.000 C 
ENDROOT
BRANCH   8  18
ATOM     18  C   UNL     1      18.165  12.043  63.686  0.00  0.00    +0.000 A 
ATOM     19  C   UNL     1      17.942  10.669  63.888  0.00  0.00    +0.000 A 
ATOM     20  C   UNL     1      18.596  12.808  64.783  0.00  0.00    +0.000 A 
ATOM     21  C   UNL     1      18.819  12.216  66.026  0.00  0.00    +0.000 A 
ATOM     22  C   UNL     1      18.139  10.055  65.133  0.00  0.00    +0.000 A 
ATOM     23  C   UNL     1      18.580  10.842  66.198  0.00  0.00    +0.000 A 
BRANCH  21  24
ATOM     24  O   UNL     1      19.261  12.870  67.153  0.00  0.00    +0.000 OA
ATOM     25  C   UNL     1      18.474  13.973  67.593  0.00  0.00    +0.000 C 
ENDBRANCH  21  24
BRANCH  22  26
ATOM     26  O   UNL     1      17.869   8.714  65.115  0.00  0.00    +0.000 OA
ATOM     27  C   UNL     1      18.950   7.818  64.901  0.00  0.00    +0.000 C 
ENDBRANCH  22  26
BRANCH  23  28
ATOM     28  O   UNL     1      18.811  10.316  67.445  0.00  0.00    +0.000 OA
ATOM     29  H   UNL     1      18.489  10.996  68.068  0.00  0.00    +0.000 HD
ENDBRANCH  23  28
ENDBRANCH   8  18
BRANCH   7  30
ATOM     30  O   UNL     1      17.692  11.596  58.686  0.00  0.00    +0.000 OA
BRANCH  30  34
ATOM     31  O   UNL     1      18.544  10.235  56.987  0.00  0.00    +0.000 OA
ATOM     32  O   UNL     1      17.475   9.644  53.518  0.00  0.00    +0.000 OA
ATOM     33  O   UNL     1      19.191   8.110  54.057  0.00  0.00    +0.000 OA
ATOM     34  C   UNL     1      17.357  10.811  57.535  0.00  0.00    +0.000 C 
ATOM     35  C   UNL     1      16.653  11.759  56.536  0.00  0.00    +0.000 C 
ATOM     36  C   UNL     1      17.724  10.399  54.709  0.00  0.00    +0.000 C 
ATOM     37  C   UNL     1      16.435  11.071  55.181  0.00  0.00    +0.000 C 
ATOM     38  C   UNL     1      18.253   9.485  55.811  0.00  0.00    +0.000 C 
ATOM     39  C   UNL     1      19.499   8.789  55.273  0.00  0.00    +0.000 C 
ATOM     40  C   UNL     1      18.677   9.008  53.073  0.00  0.00    +0.000 C 
ATOM     41  C   UNL     1      18.346   8.203  51.829  0.00  0.00    +0.000 C 
BRANCH  35  42
ATOM     42  O   UNL     1      15.391  12.171  57.087  0.00  0.00    +0.000 OA
ATOM     43  H   UNL     1      15.071  12.895  56.514  0.00  0.00    +0.000 HD
ENDBRANCH  35  42
BRANCH  37  44
ATOM     44  O   UNL     1      16.038  12.036  54.193  0.00  0.00    +0.000 OA
ATOM     45  H   UNL     1      16.857  12.489  53.917  0.00  0.00    +0.000 HD
ENDBRANCH  37  44
ENDBRANCH  30  34
ENDBRANCH   7  30
TORSDOF 8
ENDMDL
MODEL 3
REMARK VINA RESULT:      -4.4      5.883     10.018
REMARK  Name = 
REMARK  11 active torsions:
REMARK  status: ('A' for Active; 'I' for Inactive)
REMARK    1  A    between atoms: O_1  and  C_16
REMARK    2  A    between atoms: O_1  and  C_22
REMARK    3  A    between atoms: O_6  and  C_24
REMARK    4  A    between atoms: O_8  and  C_26
REMARK    5  A    between atoms: O_11  and  C_36
REMARK    6  A    between atoms: O_11  and  C_41
REMARK    7  A    between atoms: O_12  and  C_37
REMARK    8  A    between atoms: O_12  and  C_42
REMARK    9  A    between atoms: O_13  and  C_39
REMARK   10  A    between atoms: C_17  and  C_23
REMARK   11  A    between atoms: C_35  and  C_40
REMARK                            x       y       z     vdW  Elec       q    Type
REMARK                         _______ _______ _______ _____ _____    ______ ____
ROOT
ATOM      1  O   UNL     1       4.274   2.376  57.942  0.00  0.00    +0.000 OA
ATOM      2  O   UNL     1       3.227   3.876  56.560  0.00  0.00    +0.000 OA
ATOM      3  O   UNL     1       5.739   8.708  63.282  0.00  0.00    +0.000 OA
ATOM      4  O   UNL     1       5.040  10.005  61.372  0.00  0.00    +0.000 OA
ATOM      5  C   UNL     1       5.109   3.844  59.528  0.00  0.00    +0.000 C 
ATOM      6  C   UNL     1       4.007   4.551  58.763  0.00  0.00    +0.000 C 
ATOM      7  C   UNL     1       5.183   4.367  60.957  0.00  0.00    +0.000 C 
ATOM      8  C   UNL     1       4.377   6.010  58.500  0.00  0.00    +0.000 C 
ATOM      9  C   UNL     1       5.148   5.895  60.978  0.00  0.00    +0.000 A 
ATOM     10  C   UNL     1       4.734   6.668  59.844  0.00  0.00    +0.000 A 
ATOM     11  C   UNL     1       4.726   2.402  59.306  0.00  0.00    +0.000 C 
ATOM     12  C   UNL     1       3.802   3.621  57.605  0.00  0.00    +0.000 C 
ATOM     13  C   UNL     1       5.499   6.554  62.171  0.00  0.00    +0.000 A 
ATOM     14  C   UNL     1       4.682   8.074  59.932  0.00  0.00    +0.000 A 
ATOM     15  C   UNL     1       5.432   7.930  62.209  0.00  0.00    +0.000 A 
ATOM     16  C   UNL     1       5.035   8.668  61.123  0.00  0.00    +0.000 A 
ATOM     17  C   UNL     1       5.489  10.024  62.743  0.00  0.00    +0.000 C 
ENDROOT
BRANCH   8  18
ATOM     18  C   UNL     1       5.447   6.221  57.425  0.00  0.00    +0.000 A 
ATOM     19  C   UNL     1       6.818   6.018  57.663  0.00  0.00    +0.000 A 
ATOM     20  C   UNL     1       5.054   6.621  56.137  0.00  0.00    +0.000 A 
ATOM     21  C   UNL     1       5.995   6.788  55.121  0.00  0.00    +0.000 A 
ATOM     22  C   UNL     1       7.784   6.200  56.663  0.00  0.00    +0.000 A 
ATOM     23  C   UNL     1       7.359   6.586  55.392  0.00  0.00    +0.000 A 
BRANCH  21  24
ATOM     24  O   UNL     1       5.713   7.154  53.825  0.00  0.00    +0.000 OA
ATOM     25  C   UNL     1       5.220   8.478  53.636  0.00  0.00    +0.000 C 
ENDBRANCH  21  24
BRANCH  22  26
ATOM     26  O   UNL     1       9.057   5.950  57.101  0.00  0.00    +0.000 OA
ATOM     27  C   UNL     1       9.225   5.037  58.176  0.00  0.00    +0.000 C 
ENDBRANCH  22  26
BRANCH  23  28
ATOM     28  O   UNL     1       8.239   6.771  54.355  0.00  0.00    +0.000 OA
ATOM     29  H   UNL     1       8.807   5.976  54.362  0.00  0.00    +0.000 HD
ENDBRANCH  23  28
ENDBRANCH   8  18
BRANCH   7  30
ATOM     30  O   UNL     1       4.039   3.922  61.686  0.00  0.00    +0.000 OA
BRANCH  30  34
ATOM     31  O   UNL     1       4.944   2.103  62.843  0.00  0.00    +0.000 OA
ATOM     32  O   UNL     1       4.258   0.697  66.172  0.00  0.00    +0.000 OA
ATOM     33  O   UNL     1       6.154  -0.384  65.266  0.00  0.00    +0.000 OA
ATOM     34  C   UNL     1       4.366   3.403  62.981  0.00  0.00    +0.000 C 
ATOM     35  C   UNL     1       3.054   3.375  63.798  0.00  0.00    +0.000 C 
ATOM     36  C   UNL     1       3.956   1.306  64.912  0.00  0.00    +0.000 C 
ATOM     37  C   UNL     1       3.248   2.643  65.133  0.00  0.00    +0.000 C 
ATOM     38  C   UNL     1       5.238   1.536  64.117  0.00  0.00    +0.000 C 
ATOM     39  C   UNL     1       5.941   0.190  63.977  0.00  0.00    +0.000 C 
ATOM     40  C   UNL     1       4.925  -0.552  65.972  0.00  0.00    +0.000 C 
ATOM     41  C   UNL     1       5.243  -1.135  67.337  0.00  0.00    +0.000 C 
BRANCH  35  42
ATOM     42  O   UNL     1       2.618   4.724  64.035  0.00  0.00    +0.000 OA
ATOM     43  H   UNL     1       3.431   5.256  64.132  0.00  0.00    +0.000 HD
ENDBRANCH  35  42
BRANCH  37  44
ATOM     44  O   UNL     1       1.975   2.386  65.748  0.00  0.00    +0.000 OA
ATOM     45  H   UNL     1       1.391   2.070  65.033  0.00  0.00    +0.000 HD
ENDBRANCH  37  44
ENDBRANCH  30  34
ENDBRANCH   7  30
TORSDOF 8
ENDMDL
MODEL 4
REMARK VINA RESULT:      -4.3      7.670     12.610
REMARK  Name = 
REMARK  11 active torsions:
REMARK  status: ('A' for Active; 'I' for Inactive)
REMARK    1  A    between atoms: O_1  and  C_16
REMARK    2  A    between atoms: O_1  and  C_22
REMARK    3  A    between atoms: O_6  and  C_24
REMARK    4  A    between atoms: O_8  and  C_26
REMARK    5  A    between atoms: O_11  and  C_36
REMARK    6  A    between atoms: O_11  and  C_41
REMARK    7  A    between atoms: O_12  and  C_37
REMARK    8  A    between atoms: O_12  and  C_42
REMARK    9  A    between atoms: O_13  and  C_39
REMARK   10  A    between atoms: C_17  and  C_23
REMARK   11  A    between atoms: C_35  and  C_40
REMARK                            x       y       z     vdW  Elec       q    Type
REMARK                         _______ _______ _______ _____ _____    ______ ____
ROOT
ATOM      1  O   UNL     1       0.820  10.360  65.432  0.00  0.00    +0.000 OA
ATOM      2  O   UNL     1      -1.311  10.242  66.271  0.00  0.00    +0.000 OA
ATOM      3  O   UNL     1       1.845   2.298  67.601  0.00  0.00    +0.000 OA
ATOM      4  O   UNL     1      -0.203   2.732  68.799  0.00  0.00    +0.000 OA
ATOM      5  C   UNL     1       1.603   8.284  66.099  0.00  0.00    +0.000 C 
ATOM      6  C   UNL     1       0.087   8.256  66.146  0.00  0.00    +0.000 C 
ATOM      7  C   UNL     1       2.150   6.897  65.783  0.00  0.00    +0.000 C 
ATOM      8  C   UNL     1      -0.405   7.483  67.369  0.00  0.00    +0.000 C 
ATOM      9  C   UNL     1       1.469   5.836  66.645  0.00  0.00    +0.000 A 
ATOM     10  C   UNL     1       0.252   6.092  67.359  0.00  0.00    +0.000 A 
ATOM     11  C   UNL     1       1.833   9.394  65.105  0.00  0.00    +0.000 C 
ATOM     12  C   UNL     1      -0.244   9.711  66.010  0.00  0.00    +0.000 C 
ATOM     13  C   UNL     1       2.045   4.552  66.702  0.00  0.00    +0.000 A 
ATOM     14  C   UNL     1      -0.354   5.063  68.107  0.00  0.00    +0.000 A 
ATOM     15  C   UNL     1       1.415   3.578  67.447  0.00  0.00    +0.000 A 
ATOM     16  C   UNL     1       0.250   3.826  68.129  0.00  0.00    +0.000 A 
ATOM     17  C   UNL     1       0.815   1.767  68.461  0.00  0.00    +0.000 C 
ENDROOT
BRANCH   8  18
ATOM     18  C   UNL     1      -0.240   8.215  68.704  0.00  0.00    +0.000 A 
ATOM     19  C   UNL     1      -1.325   8.752  69.418  0.00  0.00    +0.000 A 
ATOM     20  C   UNL     1       1.045   8.352  69.256  0.00  0.00    +0.000 A 
ATOM     21  C   UNL     1       1.231   8.981  70.487  0.00  0.00    +0.000 A 
ATOM     22  C   UNL     1      -1.160   9.407  70.647  0.00  0.00    +0.000 A 
ATOM     23  C   UNL     1       0.127   9.514  71.174  0.00  0.00    +0.000 A 
BRANCH  21  24
ATOM     24  O   UNL     1       2.440   9.146  71.124  0.00  0.00    +0.000 OA
ATOM     25  C   UNL     1       3.455   8.197  70.806  0.00  0.00    +0.000 C 
ENDBRANCH  21  24
BRANCH  22  26
ATOM     26  O   UNL     1      -2.341   9.853  71.176  0.00  0.00    +0.000 OA
ATOM     27  C   UNL     1      -3.547   9.472  70.530  0.00  0.00    +0.000 C 
ENDBRANCH  22  26
BRANCH  23  28
ATOM     28  O   UNL     1       0.373  10.126  72.377  0.00  0.00    +0.000 OA
ATOM     29  H   UNL     1      -0.453  10.603  72.590  0.00  0.00    +0.000 HD
ENDBRANCH  23  28
ENDBRANCH   8  18
BRANCH   7  30
ATOM     30  O   UNL     1       1.858   6.569  64.424  0.00  0.00    +0.000 OA
BRANCH  30  34
ATOM     31  O   UNL     1       3.751   7.465  63.386  0.00  0.00    +0.000 OA
ATOM     32  O   UNL     1       5.641   6.464  60.393  0.00  0.00    +0.000 OA
ATOM     33  O   UNL     1       6.824   8.185  61.500  0.00  0.00    +0.000 OA
ATOM     34  C   UNL     1       3.028   6.263  63.656  0.00  0.00    +0.000 C 
ATOM     35  C   UNL     1       2.546   5.568  62.362  0.00  0.00    +0.000 C 
ATOM     36  C   UNL     1       4.484   6.685  61.208  0.00  0.00    +0.000 C 
ATOM     37  C   UNL     1       3.704   5.381  61.370  0.00  0.00    +0.000 C 
ATOM     38  C   UNL     1       4.898   7.202  62.583  0.00  0.00    +0.000 C 
ATOM     39  C   UNL     1       5.727   8.465  62.368  0.00  0.00    +0.000 C 
ATOM     40  C   UNL     1       6.379   7.680  60.241  0.00  0.00    +0.000 C 
ATOM     41  C   UNL     1       7.604   7.380  59.396  0.00  0.00    +0.000 C 
BRANCH  35  42
ATOM     42  O   UNL     1       1.975   4.292  62.697  0.00  0.00    +0.000 OA
ATOM     43  H   UNL     1       2.576   3.892  63.354  0.00  0.00    +0.000 HD
ENDBRANCH  35  42
BRANCH  37  44
ATOM     44  O   UNL     1       3.196   4.992  60.084  0.00  0.00    +0.000 OA
ATOM     45  H   UNL     1       3.465   5.697  59.465  0.00  0.00    +0.000 HD
ENDBRANCH  37  44
ENDBRANCH  30  34
ENDBRANCH   7  30
TORSDOF 8
ENDMDL
MODEL 5
REMARK VINA RESULT:      -4.3      6.869     11.670
REMARK  Name = 
REMARK  11 active torsions:
REMARK  status: ('A' for Active; 'I' for Inactive)
REMARK    1  A    between atoms: O_1  and  C_16
REMARK    2  A    between atoms: O_1  and  C_22
REMARK    3  A    between atoms: O_6  and  C_24
REMARK    4  A    between atoms: O_8  and  C_26
REMARK    5  A    between atoms: O_11  and  C_36
REMARK    6  A    between atoms: O_11  and  C_41
REMARK    7  A    between atoms: O_12  and  C_37
REMARK    8  A    between atoms: O_12  and  C_42
REMARK    9  A    between atoms: O_13  and  C_39
REMARK   10  A    between atoms: C_17  and  C_23
REMARK   11  A    between atoms: C_35  and  C_40
REMARK                            x       y       z     vdW  Elec       q    Type
REMARK                         _______ _______ _______ _____ _____    ______ ____
ROOT
ATOM      1  O   UNL     1      17.822  11.625  65.189  0.00  0.00    +0.000 OA
ATOM      2  O   UNL     1      18.089  13.810  64.547  0.00  0.00    +0.000 OA
ATOM      3  O   UNL     1      18.031   9.481  57.058  0.00  0.00    +0.000 OA
ATOM      4  O   UNL     1      17.789  11.866  56.793  0.00  0.00    +0.000 OA
ATOM      5  C   UNL     1      17.557  10.650  63.104  0.00  0.00    +0.000 C 
ATOM      6  C   UNL     1      18.193  12.014  62.912  0.00  0.00    +0.000 C 
ATOM      7  C   UNL     1      18.010   9.694  62.009  0.00  0.00    +0.000 C 
ATOM      8  C   UNL     1      17.616  12.714  61.682  0.00  0.00    +0.000 C 
ATOM      9  C   UNL     1      17.911  10.354  60.635  0.00  0.00    +0.000 A 
ATOM     10  C   UNL     1      17.765  11.772  60.475  0.00  0.00    +0.000 A 
ATOM     11  C   UNL     1      17.950  10.354  64.530  0.00  0.00    +0.000 C 
ATOM     12  C   UNL     1      18.004  12.626  64.267  0.00  0.00    +0.000 C 
ATOM     13  C   UNL     1      18.005   9.537  59.492  0.00  0.00    +0.000 A 
ATOM     14  C   UNL     1      17.719  12.332  59.182  0.00  0.00    +0.000 A 
ATOM     15  C   UNL     1      17.955  10.131  58.250  0.00  0.00    +0.000 A 
ATOM     16  C   UNL     1      17.817  11.488  58.099  0.00  0.00    +0.000 A 
ATOM     17  C   UNL     1      17.924  10.587  56.138  0.00  0.00    +0.000 C 
ENDROOT
BRANCH   8  18
ATOM     18  C   UNL     1      16.193  13.250  61.853  0.00  0.00    +0.000 A 
ATOM     19  C   UNL     1      15.050  12.497  61.529  0.00  0.00    +0.000 A 
ATOM     20  C   UNL     1      16.005  14.544  62.367  0.00  0.00    +0.000 A 
ATOM     21  C   UNL     1      14.723  15.054  62.572  0.00  0.00    +0.000 A 
ATOM     22  C   UNL     1      13.751  12.997  61.706  0.00  0.00    +0.000 A 
ATOM     23  C   UNL     1      13.601  14.281  62.231  0.00  0.00    +0.000 A 
BRANCH  21  24
ATOM     24  O   UNL     1      14.432  16.295  63.090  0.00  0.00    +0.000 OA
ATOM     25  C   UNL     1      14.773  17.415  62.276  0.00  0.00    +0.000 C 
ENDBRANCH  21  24
BRANCH  22  26
ATOM     26  O   UNL     1      12.782  12.106  61.331  0.00  0.00    +0.000 OA
ATOM     27  C   UNL     1      12.143  12.303  60.078  0.00  0.00    +0.000 C 
ENDBRANCH  22  26
BRANCH  23  28
ATOM     28  O   UNL     1      12.365  14.837  62.449  0.00  0.00    +0.000 OA
ATOM     29  H   UNL     1      11.799  14.092  62.728  0.00  0.00    +0.000 HD
ENDBRANCH  23  28
ENDBRANCH   8  18
BRANCH   7  30
ATOM     30  O   UNL     1      19.386   9.364  62.205  0.00  0.00    +0.000 OA
BRANCH  30  34
ATOM     31  O   UNL     1      19.429   7.539  63.666  0.00  0.00    +0.000 OA
ATOM     32  O   UNL     1      21.432   4.454  63.715  0.00  0.00    +0.000 OA
ATOM     33  O   UNL     1      19.758   4.301  65.376  0.00  0.00    +0.000 OA
ATOM     34  C   UNL     1      19.616   7.953  62.311  0.00  0.00    +0.000 C 
ATOM     35  C   UNL     1      21.057   7.695  61.815  0.00  0.00    +0.000 C 
ATOM     36  C   UNL     1      21.163   5.847  63.520  0.00  0.00    +0.000 C 
ATOM     37  C   UNL     1      21.482   6.244  62.079  0.00  0.00    +0.000 C 
ATOM     38  C   UNL     1      19.697   6.147  63.816  0.00  0.00    +0.000 C 
ATOM     39  C   UNL     1      19.410   5.677  65.239  0.00  0.00    +0.000 C 
ATOM     40  C   UNL     1      21.131   4.075  65.062  0.00  0.00    +0.000 C 
ATOM     41  C   UNL     1      21.408   2.589  65.201  0.00  0.00    +0.000 C 
BRANCH  35  42
ATOM     42  O   UNL     1      21.129   7.981  60.408  0.00  0.00    +0.000 OA
ATOM     43  H   UNL     1      20.426   7.447  59.989  0.00  0.00    +0.000 HD
ENDBRANCH  35  42
BRANCH  37  44
ATOM     44  O   UNL     1      22.895   6.095  61.868  0.00  0.00    +0.000 OA
ATOM     45  H   UNL     1      23.187   5.401  62.489  0.00  0.00    +0.000 HD
ENDBRANCH  37  44
ENDBRANCH  30  34
ENDBRANCH   7  30
TORSDOF 8
ENDMDL
MODEL 6
REMARK VINA RESULT:      -4.3      4.030      8.188
REMARK  Name = 
REMARK  11 active torsions:
REMARK  status: ('A' for Active; 'I' for Inactive)
REMARK    1  A    between atoms: O_1  and  C_16
REMARK    2  A    between atoms: O_1  and  C_22
REMARK    3  A    between atoms: O_6  and  C_24
REMARK    4  A    between atoms: O_8  and  C_26
REMARK    5  A    between atoms: O_11  and  C_36
REMARK    6  A    between atoms: O_11  and  C_41
REMARK    7  A    between atoms: O_12  and  C_37
REMARK    8  A    between atoms: O_12  and  C_42
REMARK    9  A    between atoms: O_13  and  C_39
REMARK   10  A    between atoms: C_17  and  C_23
REMARK   11  A    between atoms: C_35  and  C_40
REMARK                            x       y       z     vdW  Elec       q    Type
REMARK                         _______ _______ _______ _____ _____    ______ ____
ROOT
ATOM      1  O   UNL     1       5.469  12.218  62.651  0.00  0.00    +0.000 OA
ATOM      2  O   UNL     1       7.749  12.357  62.453  0.00  0.00    +0.000 OA
ATOM      3  O   UNL     1       5.831   4.837  58.633  0.00  0.00    +0.000 OA
ATOM      4  O   UNL     1       8.079   5.594  58.193  0.00  0.00    +0.000 OA
ATOM      5  C   UNL     1       5.095  10.326  61.367  0.00  0.00    +0.000 C 
ATOM      6  C   UNL     1       6.562  10.355  61.751  0.00  0.00    +0.000 C 
ATOM      7  C   UNL     1       4.614   8.889  61.213  0.00  0.00    +0.000 C 
ATOM      8  C   UNL     1       7.438   9.897  60.586  0.00  0.00    +0.000 C 
ATOM      9  C   UNL     1       5.600   8.072  60.379  0.00  0.00    +0.000 A 
ATOM     10  C   UNL     1       6.936   8.521  60.115  0.00  0.00    +0.000 A 
ATOM     11  C   UNL     1       4.499  11.173  62.463  0.00  0.00    +0.000 C 
ATOM     12  C   UNL     1       6.705  11.750  62.280  0.00  0.00    +0.000 C 
ATOM     13  C   UNL     1       5.184   6.819  59.890  0.00  0.00    +0.000 A 
ATOM     14  C   UNL     1       7.817   7.708  59.373  0.00  0.00    +0.000 A 
ATOM     15  C   UNL     1       6.082   6.061  59.170  0.00  0.00    +0.000 A 
ATOM     16  C   UNL     1       7.360   6.491  58.920  0.00  0.00    +0.000 A 
ATOM     17  C   UNL     1       7.102   4.547  58.014  0.00  0.00    +0.000 C 
ENDROOT
BRANCH   8  18
ATOM     18  C   UNL     1       7.576  10.909  59.446  0.00  0.00    +0.000 A 
ATOM     19  C   UNL     1       6.591  11.085  58.459  0.00  0.00    +0.000 A 
ATOM     20  C   UNL     1       8.728  11.711  59.379  0.00  0.00    +0.000 A 
ATOM     21  C   UNL     1       8.874  12.670  58.376  0.00  0.00    +0.000 A 
ATOM     22  C   UNL     1       6.725  12.028  57.430  0.00  0.00    +0.000 A 
ATOM     23  C   UNL     1       7.874  12.818  57.399  0.00  0.00    +0.000 A 
BRANCH  21  24
ATOM     24  O   UNL     1       9.947  13.519  58.235  0.00  0.00    +0.000 OA
ATOM     25  C   UNL     1      11.217  12.903  58.032  0.00  0.00    +0.000 C 
ENDBRANCH  21  24
BRANCH  22  26
ATOM     26  O   UNL     1       5.654  12.041  56.577  0.00  0.00    +0.000 OA
ATOM     27  C   UNL     1       5.121  10.794  56.157  0.00  0.00    +0.000 C 
ENDBRANCH  22  26
BRANCH  23  28
ATOM     28  O   UNL     1       8.076  13.773  56.434  0.00  0.00    +0.000 OA
ATOM     29  H   UNL     1       8.350  14.572  56.925  0.00  0.00    +0.000 HD
ENDBRANCH  23  28
ENDBRANCH   8  18
BRANCH   7  30
ATOM     30  O   UNL     1       4.553   8.268  62.498  0.00  0.00    +0.000 OA
BRANCH  30  34
ATOM     31  O   UNL     1       2.238   8.325  62.816  0.00  0.00    +0.000 OA
ATOM     32  O   UNL     1      -0.067   6.101  64.625  0.00  0.00    +0.000 OA
ATOM     33  O   UNL     1      -1.333   7.682  63.408  0.00  0.00    +0.000 OA
ATOM     34  C   UNL     1       3.376   7.471  62.681  0.00  0.00    +0.000 C 
ATOM     35  C   UNL     1       3.611   6.608  63.942  0.00  0.00    +0.000 C 
ATOM     36  C   UNL     1       1.143   6.827  64.381  0.00  0.00    +0.000 C 
ATOM     37  C   UNL     1       2.331   5.865  64.351  0.00  0.00    +0.000 C 
ATOM     38  C   UNL     1       1.054   7.565  63.048  0.00  0.00    +0.000 C 
ATOM     39  C   UNL     1      -0.178   8.461  63.100  0.00  0.00    +0.000 C 
ATOM     40  C   UNL     1      -1.185   6.994  64.649  0.00  0.00    +0.000 C 
ATOM     41  C   UNL     1      -2.437   6.169  64.883  0.00  0.00    +0.000 C 
BRANCH  35  42
ATOM     42  O   UNL     1       4.663   5.664  63.677  0.00  0.00    +0.000 OA
ATOM     43  H   UNL     1       4.862   5.236  64.532  0.00  0.00    +0.000 HD
ENDBRANCH  35  42
BRANCH  37  44
ATOM     44  O   UNL     1       2.487   5.294  65.661  0.00  0.00    +0.000 OA
ATOM     45  H   UNL     1       2.691   4.350  65.518  0.00  0.00    +0.000 HD
ENDBRANCH  37  44
ENDBRANCH  30  34
ENDBRANCH   7  30
TORSDOF 8
ENDMDL
MODEL 7
REMARK VINA RESULT:      -4.2      2.181      8.386
REMARK  Name = 
REMARK  11 active torsions:
REMARK  status: ('A' for Active; 'I' for Inactive)
REMARK    1  A    between atoms: O_1  and  C_16
REMARK    2  A    between atoms: O_1  and  C_22
REMARK    3  A    between atoms: O_6  and  C_24
REMARK    4  A    between atoms: O_8  and  C_26
REMARK    5  A    between atoms: O_11  and  C_36
REMARK    6  A    between atoms: O_11  and  C_41
REMARK    7  A    between atoms: O_12  and  C_37
REMARK    8  A    between atoms: O_12  and  C_42
REMARK    9  A    between atoms: O_13  and  C_39
REMARK   10  A    between atoms: C_17  and  C_23
REMARK   11  A    between atoms: C_35  and  C_40
REMARK                            x       y       z     vdW  Elec       q    Type
REMARK                         _______ _______ _______ _____ _____    ______ ____
ROOT
ATOM      1  O   UNL     1      12.424  16.060  63.929  0.00  0.00    +0.000 OA
ATOM      2  O   UNL     1      10.446  17.141  64.348  0.00  0.00    +0.000 OA
ATOM      3  O   UNL     1       8.018  10.086  59.972  0.00  0.00    +0.000 OA
ATOM      4  O   UNL     1       6.184  11.236  61.036  0.00  0.00    +0.000 OA
ATOM      5  C   UNL     1      11.594  14.100  63.013  0.00  0.00    +0.000 C 
ATOM      6  C   UNL     1      10.501  15.150  62.954  0.00  0.00    +0.000 C 
ATOM      7  C   UNL     1      11.453  13.122  61.854  0.00  0.00    +0.000 C 
ATOM      8  C   UNL     1       9.139  14.537  63.278  0.00  0.00    +0.000 C 
ATOM      9  C   UNL     1      10.005  12.656  61.709  0.00  0.00    +0.000 A 
ATOM     10  C   UNL     1       8.914  13.338  62.341  0.00  0.00    +0.000 A 
ATOM     11  C   UNL     1      12.821  14.974  63.075  0.00  0.00    +0.000 C 
ATOM     12  C   UNL     1      11.062  16.217  63.845  0.00  0.00    +0.000 C 
ATOM     13  C   UNL     1       9.741  11.541  60.891  0.00  0.00    +0.000 A 
ATOM     14  C   UNL     1       7.593  12.888  62.141  0.00  0.00    +0.000 A 
ATOM     15  C   UNL     1       8.433  11.139  60.725  0.00  0.00    +0.000 A 
ATOM     16  C   UNL     1       7.390  11.794  61.331  0.00  0.00    +0.000 A 
ATOM     17  C   UNL     1       6.591  10.152  60.175  0.00  0.00    +0.000 C 
ENDROOT
BRANCH   8  18
ATOM     18  C   UNL     1       8.921  14.196  64.754  0.00  0.00    +0.000 A 
ATOM     19  C   UNL     1       9.585  13.137  65.399  0.00  0.00    +0.000 A 
ATOM     20  C   UNL     1       8.031  14.974  65.513  0.00  0.00    +0.000 A 
ATOM     21  C   UNL     1       7.832  14.717  66.870  0.00  0.00    +0.000 A 
ATOM     22  C   UNL     1       9.386  12.846  66.756  0.00  0.00    +0.000 A 
ATOM     23  C   UNL     1       8.505  13.647  67.484  0.00  0.00    +0.000 A 
BRANCH  21  24
ATOM     24  O   UNL     1       7.003  15.431  67.704  0.00  0.00    +0.000 OA
ATOM     25  C   UNL     1       5.986  16.204  67.072  0.00  0.00    +0.000 C 
ENDBRANCH  21  24
BRANCH  22  26
ATOM     26  O   UNL     1      10.129  11.780  67.187  0.00  0.00    +0.000 OA
ATOM     27  C   UNL     1      11.127  12.016  68.170  0.00  0.00    +0.000 C 
ENDBRANCH  22  26
BRANCH  23  28
ATOM     28  O   UNL     1       8.266  13.439  68.819  0.00  0.00    +0.000 OA
ATOM     29  H   UNL     1       7.823  14.253  69.126  0.00  0.00    +0.000 HD
ENDBRANCH  23  28
ENDBRANCH   8  18
BRANCH   7  30
ATOM     30  O   UNL     1      11.795  13.778  60.633  0.00  0.00    +0.000 OA
BRANCH  30  34
ATOM     31  O   UNL     1      13.612  12.313  60.770  0.00  0.00    +0.000 OA
ATOM     32  O   UNL     1      16.673  11.969  58.760  0.00  0.00    +0.000 OA
ATOM     33  O   UNL     1      16.542  10.150  60.264  0.00  0.00    +0.000 OA
ATOM     34  C   UNL     1      12.798  13.081  59.882  0.00  0.00    +0.000 C 
ATOM     35  C   UNL     1      13.613  14.152  59.121  0.00  0.00    +0.000 C 
ATOM     36  C   UNL     1      15.610  12.651  59.434  0.00  0.00    +0.000 C 
ATOM     37  C   UNL     1      14.846  13.533  58.446  0.00  0.00    +0.000 C 
ATOM     38  C   UNL     1      14.651  11.643  60.061  0.00  0.00    +0.000 C 
ATOM     39  C   UNL     1      15.467  10.747  60.987  0.00  0.00    +0.000 C 
ATOM     40  C   UNL     1      17.390  11.138  59.678  0.00  0.00    +0.000 C 
ATOM     41  C   UNL     1      18.482  10.422  58.905  0.00  0.00    +0.000 C 
BRANCH  35  42
ATOM     42  O   UNL     1      12.771  14.772  58.135  0.00  0.00    +0.000 OA
ATOM     43  H   UNL     1      12.861  15.735  58.271  0.00  0.00    +0.000 HD
ENDBRANCH  35  42
BRANCH  37  44
ATOM     44  O   UNL     1      15.729  14.567  57.982  0.00  0.00    +0.000 OA
ATOM     45  H   UNL     1      15.801  15.206  58.716  0.00  0.00    +0.000 HD
ENDBRANCH  37  44
ENDBRANCH  30  34
ENDBRANCH   7  30
TORSDOF 8
ENDMDL
MODEL 8
REMARK VINA RESULT:      -4.2      8.988     13.819
REMARK  Name = 
REMARK  11 active torsions:
REMARK  status: ('A' for Active; 'I' for Inactive)
REMARK    1  A    between atoms: O_1  and  C_16
REMARK    2  A    between atoms: O_1  and  C_22
REMARK    3  A    between atoms: O_6  and  C_24
REMARK    4  A    between atoms: O_8  and  C_26
REMARK    5  A    between atoms: O_11  and  C_36
REMARK    6  A    between atoms: O_11  and  C_41
REMARK    7  A    between atoms: O_12  and  C_37
REMARK    8  A    between atoms: O_12  and  C_42
REMARK    9  A    between atoms: O_13  and  C_39
REMARK   10  A    between atoms: C_17  and  C_23
REMARK   11  A    between atoms: C_35  and  C_40
REMARK                            x       y       z     vdW  Elec       q    Type
REMARK                         _______ _______ _______ _____ _____    ______ ____
ROOT
ATOM      1  O   UNL     1       5.090  10.340  76.777  0.00  0.00    +0.000 OA
ATOM      2  O   UNL     1       2.945  10.764  77.467  0.00  0.00    +0.000 OA
ATOM      3  O   UNL     1       2.088   9.194  69.003  0.00  0.00    +0.000 OA
ATOM      4  O   UNL     1      -0.006   9.190  70.199  0.00  0.00    +0.000 OA
ATOM      5  C   UNL     1       4.662   9.684  74.597  0.00  0.00    +0.000 C 
ATOM      6  C   UNL     1       3.450  10.439  75.110  0.00  0.00    +0.000 C 
ATOM      7  C   UNL     1       4.805   9.873  73.092  0.00  0.00    +0.000 C 
ATOM      8  C   UNL     1       2.157   9.783  74.629  0.00  0.00    +0.000 C 
ATOM      9  C   UNL     1       3.465   9.662  72.388  0.00  0.00    +0.000 A 
ATOM     10  C   UNL     1       2.219   9.658  73.097  0.00  0.00    +0.000 A 
ATOM     11  C   UNL     1       5.739  10.232  75.498  0.00  0.00    +0.000 C 
ATOM     12  C   UNL     1       3.742  10.507  76.579  0.00  0.00    +0.000 C 
ATOM     13  C   UNL     1       3.463   9.507  70.988  0.00  0.00    +0.000 A 
ATOM     14  C   UNL     1       1.009   9.500  72.391  0.00  0.00    +0.000 A 
ATOM     15  C   UNL     1       2.255   9.355  70.343  0.00  0.00    +0.000 A 
ATOM     16  C   UNL     1       1.064   9.353  71.023  0.00  0.00    +0.000 A 
ATOM     17  C   UNL     1       0.651   9.088  68.919  0.00  0.00    +0.000 C 
ENDROOT
BRANCH   8  18
ATOM     18  C   UNL     1       1.803   8.466  75.325  0.00  0.00    +0.000 A 
ATOM     19  C   UNL     1       0.686   8.325  76.168  0.00  0.00    +0.000 A 
ATOM     20  C   UNL     1       2.614   7.339  75.111  0.00  0.00    +0.000 A 
ATOM     21  C   UNL     1       2.303   6.112  75.698  0.00  0.00    +0.000 A 
ATOM     22  C   UNL     1       0.366   7.108  76.786  0.00  0.00    +0.000 A 
ATOM     23  C   UNL     1       1.185   6.005  76.542  0.00  0.00    +0.000 A 
BRANCH  21  24
ATOM     24  O   UNL     1       3.016   4.947  75.535  0.00  0.00    +0.000 OA
ATOM     25  C   UNL     1       4.436   5.066  75.565  0.00  0.00    +0.000 C 
ENDBRANCH  21  24
BRANCH  22  26
ATOM     26  O   UNL     1      -0.759   7.184  77.562  0.00  0.00    +0.000 OA
ATOM     27  C   UNL     1      -1.155   8.462  78.038  0.00  0.00    +0.000 C 
ENDBRANCH  22  26
BRANCH  23  28
ATOM     28  O   UNL     1       0.933   4.774  77.096  0.00  0.00    +0.000 OA
ATOM     29  H   UNL     1       0.447   4.965  77.922  0.00  0.00    +0.000 HD
ENDBRANCH  23  28
ENDBRANCH   8  18
BRANCH   7  30
ATOM     30  O   UNL     1       5.205  11.216  72.816  0.00  0.00    +0.000 OA
BRANCH  30  34
ATOM     31  O   UNL     1       7.517  10.905  72.667  0.00  0.00    +0.000 OA
ATOM     32  O   UNL     1      10.118  12.586  70.682  0.00  0.00    +0.000 OA
ATOM     33  O   UNL     1      11.074  10.711  71.758  0.00  0.00    +0.000 OA
ATOM     34  C   UNL     1       6.344  11.296  71.951  0.00  0.00    +0.000 C 
ATOM     35  C   UNL     1       6.425  12.757  71.451  0.00  0.00    +0.000 C 
ATOM     36  C   UNL     1       8.926  12.476  71.469  0.00  0.00    +0.000 C 
ATOM     37  C   UNL     1       7.729  13.007  70.680  0.00  0.00    +0.000 C 
ATOM     38  C   UNL     1       8.678  11.019  71.848  0.00  0.00    +0.000 C 
ATOM     39  C   UNL     1       9.921  10.515  72.574  0.00  0.00    +0.000 C 
ATOM     40  C   UNL     1      11.242  12.086  71.413  0.00  0.00    +0.000 C 
ATOM     41  C   UNL     1      12.466  12.201  70.522  0.00  0.00    +0.000 C 
BRANCH  35  42
ATOM     42  O   UNL     1       5.294  13.030  70.607  0.00  0.00    +0.000 OA
ATOM     43  H   UNL     1       4.743  12.223  70.627  0.00  0.00    +0.000 HD
ENDBRANCH  35  42
BRANCH  37  44
ATOM     44  O   UNL     1       7.915  14.415  70.464  0.00  0.00    +0.000 OA
ATOM     45  H   UNL     1       8.674  14.495  69.855  0.00  0.00    +0.000 HD
ENDBRANCH  37  44
ENDBRANCH  30  34
ENDBRANCH   7  30
TORSDOF 8
ENDMDL
MODEL 9
REMARK VINA RESULT:      -4.2      7.125     11.898
REMARK  Name = 
REMARK  11 active torsions:
REMARK  status: ('A' for Active; 'I' for Inactive)
REMARK    1  A    between atoms: O_1  and  C_16
REMARK    2  A    between atoms: O_1  and  C_22
REMARK    3  A    between atoms: O_6  and  C_24
REMARK    4  A    between atoms: O_8  and  C_26
REMARK    5  A    between atoms: O_11  and  C_36
REMARK    6  A    between atoms: O_11  and  C_41
REMARK    7  A    between atoms: O_12  and  C_37
REMARK    8  A    between atoms: O_12  and  C_42
REMARK    9  A    between atoms: O_13  and  C_39
REMARK   10  A    between atoms: C_17  and  C_23
REMARK   11  A    between atoms: C_35  and  C_40
REMARK                            x       y       z     vdW  Elec       q    Type
REMARK                         _______ _______ _______ _____ _____    ______ ____
ROOT
ATOM      1  O   UNL     1      18.048  11.509  65.662  0.00  0.00    +0.000 OA
ATOM      2  O   UNL     1      18.639  13.647  65.080  0.00  0.00    +0.000 OA
ATOM      3  O   UNL     1      18.346   9.484  57.503  0.00  0.00    +0.000 OA
ATOM      4  O   UNL     1      18.442  11.884  57.279  0.00  0.00    +0.000 OA
ATOM      5  C   UNL     1      17.751  10.612  63.546  0.00  0.00    +0.000 C 
ATOM      6  C   UNL     1      18.574  11.879  63.412  0.00  0.00    +0.000 C 
ATOM      7  C   UNL     1      18.121   9.620  62.451  0.00  0.00    +0.000 C 
ATOM      8  C   UNL     1      18.156  12.670  62.173  0.00  0.00    +0.000 C 
ATOM      9  C   UNL     1      18.177  10.310  61.089  0.00  0.00    +0.000 A 
ATOM     10  C   UNL     1      18.233  11.736  60.954  0.00  0.00    +0.000 A 
ATOM     11  C   UNL     1      18.033  10.243  64.981  0.00  0.00    +0.000 C 
ATOM     12  C   UNL     1      18.407  12.490  64.771  0.00  0.00    +0.000 C 
ATOM     13  C   UNL     1      18.213   9.505  59.934  0.00  0.00    +0.000 A 
ATOM     14  C   UNL     1      18.323  12.318  59.673  0.00  0.00    +0.000 A 
ATOM     15  C   UNL     1      18.302  10.120  58.704  0.00  0.00    +0.000 A 
ATOM     16  C   UNL     1      18.357  11.485  58.577  0.00  0.00    +0.000 A 
ATOM     17  C   UNL     1      18.432  10.609  56.603  0.00  0.00    +0.000 C 
ENDROOT
BRANCH   8  18
ATOM     18  C   UNL     1      16.813  13.393  62.293  0.00  0.00    +0.000 A 
ATOM     19  C   UNL     1      16.701  14.734  62.700  0.00  0.00    +0.000 A 
ATOM     20  C   UNL     1      15.632  12.702  61.973  0.00  0.00    +0.000 A 
ATOM     21  C   UNL     1      14.391  13.337  62.035  0.00  0.00    +0.000 A 
ATOM     22  C   UNL     1      15.464  15.388  62.790  0.00  0.00    +0.000 A 
ATOM     23  C   UNL     1      14.312  14.676  62.452  0.00  0.00    +0.000 A 
BRANCH  21  24
ATOM     24  O   UNL     1      13.183  12.759  61.722  0.00  0.00    +0.000 OA
ATOM     25  C   UNL     1      13.004  12.365  60.363  0.00  0.00    +0.000 C 
ENDBRANCH  21  24
BRANCH  22  26
ATOM     26  O   UNL     1      15.576  16.688  63.203  0.00  0.00    +0.000 OA
ATOM     27  C   UNL     1      15.731  17.692  62.210  0.00  0.00    +0.000 C 
ENDBRANCH  22  26
BRANCH  23  28
ATOM     28  O   UNL     1      13.064  15.246  62.499  0.00  0.00    +0.000 OA
ATOM     29  H   UNL     1      12.915  15.599  61.601  0.00  0.00    +0.000 HD
ENDBRANCH  23  28
ENDBRANCH   8  18
BRANCH   7  30
ATOM     30  O   UNL     1      19.429   9.102  62.701  0.00  0.00    +0.000 OA
BRANCH  30  34
ATOM     31  O   UNL     1      19.206   7.245  64.103  0.00  0.00    +0.000 OA
ATOM     32  O   UNL     1      20.771   3.916  64.070  0.00  0.00    +0.000 OA
ATOM     33  O   UNL     1      19.071   3.941  65.711  0.00  0.00    +0.000 OA
ATOM     34  C   UNL     1      19.464   7.671  62.764  0.00  0.00    +0.000 C 
ATOM     35  C   UNL     1      20.863   7.235  62.271  0.00  0.00    +0.000 C 
ATOM     36  C   UNL     1      20.696   5.338  63.917  0.00  0.00    +0.000 C 
ATOM     37  C   UNL     1      21.083   5.731  62.491  0.00  0.00    +0.000 C 
ATOM     38  C   UNL     1      19.281   5.826  64.211  0.00  0.00    +0.000 C 
ATOM     39  C   UNL     1      18.915   5.356  65.615  0.00  0.00    +0.000 C 
ATOM     40  C   UNL     1      20.406   3.541  65.401  0.00  0.00    +0.000 C 
ATOM     41  C   UNL     1      20.476   2.027  65.495  0.00  0.00    +0.000 C 
BRANCH  35  42
ATOM     42  O   UNL     1      20.990   7.551  60.874  0.00  0.00    +0.000 OA
ATOM     43  H   UNL     1      20.414   6.918  60.402  0.00  0.00    +0.000 HD
ENDBRANCH  35  42
BRANCH  37  44
ATOM     44  O   UNL     1      22.466   5.398  62.287  0.00  0.00    +0.000 OA
ATOM     45  H   UNL     1      22.503   4.918  61.438  0.00  0.00    +0.000 HD
ENDBRANCH  37  44
ENDBRANCH  30  34
ENDBRANCH   7  30
TORSDOF 8
ENDMDL
